# generated using pymatgen
data_Cu3H14C24N4(ClO)2
_symmetry_space_group_name_H-M   'P 1'
_cell_length_a   7.12018254
_cell_length_b   8.35901347
_cell_length_c   10.27152739
_cell_angle_alpha   111.54271574
_cell_angle_beta   98.04573071
_cell_angle_gamma   106.31338724
_symmetry_Int_Tables_number   1
_chemical_formula_structural   Cu3H14C24N4(ClO)2
_chemical_formula_sum   'Cu3 H14 C24 N4 Cl2 O2'
_cell_volume   525.11252771
_cell_formula_units_Z   1
loop_
 _symmetry_equiv_pos_site_id
 _symmetry_equiv_pos_as_xyz
  1  'x, y, z'
loop_
 _atom_site_type_symbol
 _atom_site_label
 _atom_site_symmetry_multiplicity
 _atom_site_fract_x
 _atom_site_fract_y
 _atom_site_fract_z
 _atom_site_occupancy
 _atom_site_hle17_ddec_charge
 _atom_site_hle17_ddec_spin_density
 _atom_site_hle17_ddec_sum_bond_order
 _atom_site_hle17_magmom
 _atom_site_hse06_10hf_ddec_charge
 _atom_site_hse06_10hf_ddec_spin_density
 _atom_site_hse06_10hf_ddec_sum_bond_order
 _atom_site_hse06_10hf_magmom
 _atom_site_hse06_ddec_charge
 _atom_site_hse06_ddec_spin_density
 _atom_site_hse06_ddec_sum_bond_order
 _atom_site_hse06_magmom
 _atom_site_pbe_cm5_charge
 _atom_site_pbe_ddec_charge
 _atom_site_pbe_ddec_spin_density
 _atom_site_pbe_ddec_sum_bond_order
 _atom_site_pbe_magmom
Cu  Cu0  1  0.96846098  0.55854291  0.61831136  1  0.592295  0.395184  1.96788  0.326  0.487681  0.427748  2.444543  0.378  0.531169  0.449612  2.38614  0.416  0.571844  0.459896  0.412479  2.486561  0.353
Cu  Cu1  1  0.03152777  0.44145083  0.38168139  1  0.592285  0.395157  1.967892  0.326  0.487702  0.427758  2.444568  0.378  0.531198  0.449631  2.386152  0.416  0.571804  0.459928  0.412513  2.486588  0.353
Cu  Cu2  1  0.49999929  0.50000043  0.49999877  1  0.421519  0.009175  1.876586  0.009  0.308481  -0.002056  2.387804  0.0  0.334929  -0.004208  2.319321  -0.001  0.29088  0.291034  0.000204  2.434073  0.002
H  H3  1  0.22581882  0.13909482  0.65045769  1  0.124475  0.000633  0.938043  0.001  0.135935  0.000609  0.994031  0.001  0.138931  0.000539  0.993992  0.001  0.107426  0.133794  0.000675  0.994238  0.001
H  H4  1  0.77417100  0.86089639  0.34954509  1  0.124475  0.000634  0.938014  0.001  0.13587  0.000609  0.994093  0.001  0.138867  0.000538  0.994052  0.001  0.107391  0.133729  0.000675  0.9943  0.001
H  H5  1  0.35375153  0.19576780  0.45350821  1  0.073959  4.6e-05  1.004162  0.0  0.081387  4e-05  1.085956  0.0  0.085926  8.3e-05  1.078425  0.0  0.081334  0.077777  1.1e-05  1.091758  0.0
H  H6  1  0.64624810  0.80423054  0.54649936  1  0.073878  4.4e-05  1.004262  0.0  0.081323  4e-05  1.086044  0.0  0.085863  8.3e-05  1.078516  0.0  0.081307  0.077715  1.1e-05  1.091843  0.0
H  H7  1  0.42951468  0.06170073  0.20685756  1  0.103533  0.000228  0.965517  0.0  0.113551  0.000196  1.027314  0.0  0.116285  0.000191  1.026389  0.0  0.094607  0.111502  0.000201  1.028118  0.0
H  H8  1  0.57050140  0.93830760  0.79315420  1  0.103502  0.000231  0.965516  0.0  0.113568  0.000196  1.027279  0.0  0.116307  0.000191  1.026346  0.0  0.094606  0.111517  0.000202  1.028081  0.0
H  H9  1  0.41061441  0.78559281  0.99192193  1  0.105898  0.000246  0.951942  0.0  0.118109  0.000148  1.009263  0.0  0.120603  0.000116  1.009208  0.0  0.099142  0.116692  0.000188  1.00844  0.0
H  H10  1  0.58940499  0.21441696  0.00808952  1  0.105822  0.000242  0.951988  0.0  0.118033  0.000148  1.009319  0.0  0.120523  0.000116  1.009267  0.0  0.099117  0.116618  0.000188  1.008492  0.0
H  H11  1  0.30497722  0.43384261  0.86393070  1  0.105073  0.000164  0.971717  0.0  0.114914  3.6e-05  1.035881  0.0  0.117617  4.4e-05  1.034081  0.0  0.095559  0.112804  5.7e-05  1.037534  0.0
H  H12  1  0.69503019  0.56616670  0.13607098  1  0.105086  0.000165  0.97175  0.0  0.114921  3.6e-05  1.035912  0.0  0.117626  4.4e-05  1.034109  0.0  0.095568  0.112811  5.7e-05  1.037564  0.0
H  H13  1  0.15754424  0.12913512  0.87346173  1  0.110749  0.000416  0.955827  0.0  0.11951  0.000372  1.019079  0.0  0.123296  0.00029  1.017495  0.0  0.106568  0.116812  0.000443  1.020277  0.0
H  H14  1  0.84246203  0.87087140  0.12653708  1  0.1108  0.000414  0.955805  0.0  0.119518  0.000372  1.019089  0.0  0.123285  0.00029  1.017539  0.0  0.106606  0.116822  0.000443  1.020289  0.0
H  H15  1  0.04133946  0.12478128  0.09412399  1  0.077009  0.000845  0.945024  0.002  0.088737  0.000724  1.006071  0.001  0.090385  0.000527  1.004271  0.001  0.11876  0.087568  0.000888  1.0073  0.002
H  H16  1  0.95865551  0.87521806  0.90586893  1  0.076933  0.000844  0.945031  0.002  0.08868  0.000724  1.006062  0.001  0.090327  0.000527  1.004261  0.001  0.118726  0.087511  0.000889  1.00729  0.002
C  C17  1  0.14149476  0.84133429  0.54289172  1  0.527047  -0.001584  3.870418  -0.001  0.498157  0.000206  4.132053  0.001  0.525636  -0.001062  4.140643  0.0  0.205712  0.479844  0.001131  4.12554  0.001
C  C18  1  0.85849545  0.15865543  0.45710187  1  0.527175  -0.001599  3.870469  -0.001  0.49832  0.000207  4.132068  0.001  0.525802  -0.001062  4.140656  0.0  0.205742  0.480006  0.001131  4.12556  0.001
C  C19  1  0.22255493  0.02491859  0.55363026  1  -0.207546  0.000619  3.67066  0.0  -0.219973  0.000996  3.917006  0.0  -0.23057  0.001362  3.936058  0.001  -0.091107  -0.213102  0.000634  3.904146  0.0
C  C20  1  0.77743847  0.97507537  0.44636873  1  -0.207551  0.000616  3.670682  0.0  -0.219939  0.000995  3.917021  0.0  -0.230536  0.001365  3.936071  0.001  -0.091044  -0.213069  0.000633  3.904161  0.0
C  C21  1  0.29335875  0.05520572  0.44424410  1  -0.008099  -0.002565  3.695791  -0.001  -0.032889  -0.001104  3.94155  0.0  -0.027876  -0.001273  3.958373  0.0  -0.069198  -0.035812  -0.000862  3.930096  0.0
C  C22  1  0.70663573  0.94479102  0.55575677  1  -0.008012  -0.002558  3.695825  -0.001  -0.032792  -0.001103  3.941512  0.0  -0.027791  -0.001277  3.958356  0.0  -0.069177  -0.035712  -0.000861  3.930054  0.0
C  C23  1  0.28922449  0.90552281  0.31832572  1  0.003719  0.000277  3.806465  0.001  0.019565  0.000358  4.037012  0.001  0.01429  9.9e-05  4.06322  0.0  -0.014364  0.023076  0.000497  4.019255  0.001
C  C24  1  0.71077473  0.09447541  0.68167496  1  0.003778  0.000309  3.806332  0.001  0.019623  0.000357  4.036899  0.001  0.014346  0.000102  4.06311  0.0  -0.014312  0.023133  0.000498  4.019141  0.001
C  C25  1  0.36319334  0.92317082  0.19996400  1  -0.088655  0.001419  3.731054  0.002  -0.107589  0.000497  3.981848  0.001  -0.109552  0.000576  4.004426  0.001  -0.085088  -0.106293  0.000441  3.966641  0.001
C  C26  1  0.63681388  0.07683313  0.80004288  1  -0.088643  0.001362  3.73101  0.002  -0.107619  0.000497  3.981786  0.001  -0.109585  0.000573  4.004368  0.001  -0.085112  -0.106322  0.000441  3.966578  0.001
C  C27  1  0.35430577  0.77137440  0.08197154  1  -0.118933  -0.001918  3.739161  -0.001  -0.143557  -0.000595  3.995765  0.0  -0.147191  -0.000857  4.018838  0.0  -0.095087  -0.140814  -0.000413  3.979511  0.0
C  C28  1  0.64570807  0.22863243  0.91803474  1  -0.11875  -0.001813  3.739052  -0.001  -0.143365  -0.000594  3.995674  0.0  -0.146997  -0.000853  4.018755  0.0  -0.095003  -0.140627  -0.000413  3.97942  0.0
C  C29  1  0.27057029  0.59022079  0.07442460  1  0.032632  0.003031  3.783222  0.004  0.049639  0.001475  4.014053  0.002  0.047148  0.001272  4.038482  0.002  -0.002122  0.050953  0.001676  3.998011  0.002
C  C30  1  0.72943565  0.40978440  0.92557671  1  0.03259  0.003005  3.783098  0.004  0.049524  0.001475  4.013989  0.002  0.047031  0.001271  4.038418  0.002  -0.002182  0.050841  0.001676  3.997948  0.002
C  C31  1  0.25337933  0.42563856  0.95724124  1  -0.037086  -0.007696  3.657562  -0.005  -0.064391  -0.003564  3.910032  -0.002  -0.060216  -0.003997  3.926193  -0.002  -0.064108  -0.067119  -0.003308  3.89982  -0.002
C  C32  1  0.74662861  0.57436806  0.04276162  1  -0.037096  -0.007684  3.657542  -0.005  -0.064374  -0.003563  3.90999  -0.002  -0.060195  -0.003993  3.926144  -0.002  -0.064113  -0.067099  -0.003308  3.899776  -0.002
C  C33  1  0.17189089  0.25767330  0.96240161  1  -0.126915  0.004827  3.728284  0.006  -0.142031  0.002465  3.990399  0.003  -0.149383  0.002227  4.010033  0.003  -0.086315  -0.137721  0.002712  3.978317  0.004
C  C34  1  0.82811064  0.74233174  0.03759739  1  -0.126984  0.004827  3.728166  0.006  -0.142058  0.002464  3.990311  0.003  -0.149408  0.002225  4.009938  0.003  -0.086335  -0.137753  0.002712  3.978239  0.004
C  C35  1  0.10521029  0.25298045  0.08404437  1  0.149116  -0.00728  3.696354  -0.005  0.115468  -0.002585  3.953867  -0.002  0.125935  -0.003866  3.969421  -0.002  0.055941  0.1082  -0.00174  3.943802  -0.001
C  C36  1  0.89478915  0.74701905  0.91595185  1  0.149157  -0.007256  3.696265  -0.005  0.115498  -0.002584  3.953787  -0.002  0.125968  -0.003863  3.969333  -0.002  0.055928  0.108228  -0.001739  3.943721  -0.001
C  C37  1  0.19829439  0.57085547  0.19162929  1  0.119004  -0.002784  3.767002  -0.002  0.114476  -0.000748  3.99955  0.0  0.118184  -0.001454  4.021818  -0.001  0.106631  0.112128  -0.000241  3.984772  0.0
C  C38  1  0.80170818  0.42914826  0.80837135  1  0.118841  -0.00273  3.767087  -0.002  0.114401  -0.000748  3.999562  0.0  0.118109  -0.001451  4.021827  -0.001  0.10657  0.11205  -0.00024  3.984788  0.0
C  C39  1  0.20823986  0.72894033  0.31406777  1  0.153306  0.000389  3.792614  0.001  0.144788  -2.4e-05  4.02823  0.0  0.151701  -0.000698  4.050653  -0.001  0.105051  0.139851  0.00046  4.013533  0.001
C  C40  1  0.79175540  0.27105909  0.68593007  1  0.153237  0.000346  3.792551  0.001  0.144712  -2.3e-05  4.028162  0.0  0.151627  -0.000703  4.050586  -0.001  0.105042  0.13978  0.00046  4.013461  0.001
N  N41  1  0.13741353  0.69883557  0.42291660  1  -0.488371  0.039691  3.402824  0.056  -0.419769  0.02825  3.693591  0.042  -0.450151  0.024227  3.708485  0.04  -0.396178  -0.400736  0.030378  3.68496  0.042
N  N42  1  0.86257764  0.30115689  0.57707691  1  -0.488371  0.039697  3.402988  0.056  -0.419803  0.028247  3.693768  0.042  -0.450184  0.024223  3.708663  0.04  -0.396195  -0.400777  0.03037  3.685157  0.042
N  N43  1  0.11640232  0.40461908  0.19428424  1  -0.310632  0.040484  3.335084  0.056  -0.250249  0.030834  3.62351  0.043  -0.270049  0.027848  3.635321  0.039  -0.350232  -0.237405  0.033247  3.615768  0.046
N  N44  1  0.88359619  0.59538177  0.80571231  1  -0.310477  0.040467  3.33506  0.056  -0.250098  0.030832  3.623438  0.043  -0.269897  0.027844  3.635253  0.039  -0.350166  -0.237251  0.033244  3.615691  0.046
Cl  Cl45  1  0.38880441  0.56546789  0.68532917  1  -0.533861  -0.001764  1.232803  0.001  -0.465288  -0.007201  1.587671  -0.003  -0.485946  -0.012178  1.552338  -0.005  -0.298794  -0.450171  -0.004066  1.611317  -0.001
Cl  Cl46  1  0.61119419  0.43453705  0.31466862  1  -0.53386  -0.001766  1.232841  0.001  -0.465242  -0.007202  1.587652  -0.003  -0.485899  -0.012179  1.552316  -0.005  -0.298777  -0.450137  -0.004069  1.611322  -0.001
O  O47  1  0.07101746  0.80936117  0.64403936  1  -0.568467  0.032483  2.103511  0.048  -0.510466  0.021892  2.384593  0.034  -0.543675  0.018469  2.376065  0.03  -0.341413  -0.487284  0.024396  2.389259  0.036
O  O48  1  0.92896973  0.19062436  0.35595178  1  -0.568583  0.032478  2.103419  0.048  -0.5106  0.021892  2.384479  0.034  -0.54381  0.018468  2.375949  0.03  -0.34144  -0.487418  0.024398  2.389148  0.036
