# generated using pymatgen
data_Ni2H30C34N4O13
_symmetry_space_group_name_H-M   'P 1'
_cell_length_a   10.48093845
_cell_length_b   15.86267016
_cell_length_c   25.46781825
_cell_angle_alpha   90.00017481
_cell_angle_beta   90.00012835
_cell_angle_gamma   90.00007853
_symmetry_Int_Tables_number   1
_chemical_formula_structural   Ni2H30C34N4O13
_chemical_formula_sum   'Ni8 H120 C136 N16 O52'
_cell_volume   4234.16917433
_cell_formula_units_Z   4
loop_
 _symmetry_equiv_pos_site_id
 _symmetry_equiv_pos_as_xyz
  1  'x, y, z'
loop_
 _atom_site_type_symbol
 _atom_site_label
 _atom_site_symmetry_multiplicity
 _atom_site_fract_x
 _atom_site_fract_y
 _atom_site_fract_z
 _atom_site_occupancy
 _atom_site_pbe_bader_charge
 _atom_site_pbe_bader_spin_density
 _atom_site_pbe_cm5_charge
 _atom_site_pbe_ddec_charge
 _atom_site_pbe_ddec_spin_density
 _atom_site_pbe_ddec_sum_bond_order
 _atom_site_pbe_magmom
Ni  Ni0  1  0.66890650  0.65085257  0.37657028  1  1.286104  1.042197  0.733596  0.968045  1.291051  2.7739  1.019
Ni  Ni1  1  0.83108578  0.34914679  0.87656775  1  1.286361  1.042329  0.733581  0.968042  1.291213  2.773702  1.019
Ni  Ni2  1  0.16891589  0.84914428  0.62342962  1  1.286245  1.04229  0.733563  0.967975  1.291166  2.773833  1.019
Ni  Ni3  1  0.33108821  0.15085463  0.12343097  1  1.286287  1.042279  0.733486  0.96789  1.291145  2.773597  1.019
Ni  Ni4  1  0.88065857  0.77425299  0.34377341  1  1.313683  1.491807  0.707919  0.996232  1.848523  2.653636  1.468
Ni  Ni5  1  0.61933544  0.22574495  0.84377281  1  1.31372  1.491666  0.707891  0.996088  1.848361  2.653894  1.467
Ni  Ni6  1  0.38066216  0.72574153  0.65622747  1  1.313637  1.491705  0.70792  0.996128  1.848418  2.653834  1.467
Ni  Ni7  1  0.11933735  0.27425692  0.15622964  1  1.313736  1.491718  0.707916  0.996168  1.848423  2.653791  1.467
H  H8  1  0.40292154  0.02620708  0.54418738  1  0.096017  0.000275  0.107566  0.112451  0.000147  1.017588  0.0
H  H9  1  0.09708690  0.97379522  0.04418182  1  0.096109  0.000275  0.10758  0.112458  0.000147  1.017545  0.0
H  H10  1  0.90292661  0.47378684  0.45580983  1  0.095981  0.000276  0.107548  0.112406  0.000147  1.017527  0.0
H  H11  1  0.59707469  0.52621039  0.95581095  1  0.096041  0.000275  0.107573  0.112461  0.000147  1.017508  0.0
H  H12  1  0.56751341  0.78515558  0.50853808  1  0.13926  0.00066  0.109933  0.115719  0.000464  1.026448  0.0
H  H13  1  0.93249594  0.21484763  0.00853768  1  0.139154  0.00066  0.109903  0.115654  0.000464  1.026475  0.0
H  H14  1  0.06750653  0.71484244  0.49146173  1  0.13928  0.00066  0.109904  0.115673  0.000464  1.026525  0.0
H  H15  1  0.43249195  0.28515578  0.99146231  1  0.139242  0.00066  0.109918  0.115719  0.000464  1.026477  0.0
H  H16  1  0.64840497  0.99818067  0.40936689  1  0.122864  0.000421  0.109825  0.119612  0.000233  0.997014  0.0
H  H17  1  0.85159226  0.00182453  0.90936490  1  0.123118  0.000421  0.109788  0.119612  0.000233  0.996947  0.0
H  H18  1  0.14840010  0.50181805  0.59063417  1  0.12289  0.000421  0.109815  0.119659  0.000233  0.996934  0.0
H  H19  1  0.35159523  0.49818322  0.09063305  1  0.122888  0.000421  0.109831  0.119629  0.000233  0.997008  0.0
H  H20  1  0.05229230  0.47838984  0.25091910  1  0.107502  0.000443  0.10406  0.109805  0.000293  1.030585  0.0
H  H21  1  0.44770391  0.52160971  0.75091700  1  0.107325  0.000443  0.104066  0.109787  0.000293  1.030662  0.0
H  H22  1  0.55229613  0.02160881  0.74908211  1  0.107365  0.000443  0.104079  0.109845  0.000293  1.030611  0.0
H  H23  1  0.94770213  0.97838488  0.24908119  1  0.107574  0.000443  0.104074  0.109843  0.000293  1.030585  0.0
H  H24  1  0.45463609  0.45253442  0.27908343  1  0.139584  0.000748  0.107333  0.116338  0.000593  1.008349  0.0
H  H25  1  0.04536314  0.54746779  0.77908180  1  0.139528  0.000749  0.107351  0.116364  0.000593  1.008392  0.0
H  H26  1  0.95464173  0.04747153  0.72091736  1  0.139512  0.000749  0.107339  0.116365  0.000593  1.008374  0.0
H  H27  1  0.54535447  0.95252832  0.22091995  1  0.139356  0.000749  0.107327  0.116321  0.000593  1.008398  0.0
H  H28  1  0.26129879  0.68348357  0.32027830  1  0.100453  0.00085  0.10826  0.116945  0.000647  1.012237  0.0
H  H29  1  0.23869780  0.31652010  0.82027876  1  0.100504  0.00085  0.108278  0.117  0.000647  1.012234  0.0
H  H30  1  0.76131048  0.81652093  0.67972287  1  0.100627  0.00085  0.10827  0.116915  0.000647  1.012325  0.0
H  H31  1  0.73869312  0.18347683  0.17972498  1  0.10071  0.00085  0.108248  0.11692  0.000647  1.012318  0.0
H  H32  1  0.47671119  0.68056774  0.46218022  1  0.107024  6.3e-05  0.126483  0.103851  -8.7e-05  0.998202  0.0
H  H33  1  0.02328809  0.31943411  0.96217853  1  0.107061  6.3e-05  0.126493  0.103918  -8.6e-05  0.998154  0.0
H  H34  1  0.97672115  0.81943128  0.53781643  1  0.106939  6.3e-05  0.126483  0.103876  -8.6e-05  0.99821  0.0
H  H35  1  0.52328454  0.18056766  0.03781951  1  0.107046  6.3e-05  0.126479  0.103867  -8.6e-05  0.998232  0.0
H  H36  1  0.36753309  0.59333791  0.53162970  1  0.107026  0.000125  0.109056  0.120194  2.1e-05  1.035901  0.0
H  H37  1  0.13247242  0.40665992  0.03162781  1  0.106979  0.000125  0.109015  0.120203  2.1e-05  1.0359  0.0
H  H38  1  0.86753427  0.90666039  0.46836881  1  0.107037  0.000125  0.109083  0.120275  2.1e-05  1.035881  0.0
H  H39  1  0.63246519  0.09333880  0.96836994  1  0.10703  0.000126  0.109036  0.120193  2.1e-05  1.035915  0.0
H  H40  1  0.40956829  0.43800406  0.53408875  1  0.071949  -8.3e-05  0.108375  0.10664  -8.3e-05  0.989555  0.0
H  H41  1  0.09044296  0.56199504  0.03408947  1  0.071866  -8.3e-05  0.1084  0.10665  -8.3e-05  0.989725  0.0
H  H42  1  0.90956493  0.06199491  0.46591239  1  0.07193  -8.3e-05  0.108367  0.106633  -8.3e-05  0.989587  0.0
H  H43  1  0.59042689  0.93800426  0.96591271  1  0.07165  -8.3e-05  0.108372  0.106647  -8.3e-05  0.98959  0.0
H  H44  1  0.67981096  0.47566840  0.40815665  1  0.116167  4.1e-05  0.127884  0.107213  -0.000141  0.984924  0.0
H  H45  1  0.82019008  0.52433679  0.90815915  1  0.115808  4.1e-05  0.127878  0.107197  -0.00014  0.984868  0.0
H  H46  1  0.17981665  0.02433099  0.59183957  1  0.11574  4.1e-05  0.127912  0.107189  -0.00014  0.984946  0.0
H  H47  1  0.32018824  0.97566965  0.09184364  1  0.115826  4.1e-05  0.127876  0.107191  -0.00014  0.984917  0.0
H  H48  1  0.68203217  0.33963597  0.47036130  1  0.09826  1.6e-05  0.113257  0.108671  8e-06  0.973034  0.0
H  H49  1  0.81797398  0.66036575  0.97036327  1  0.098341  1.6e-05  0.1132  0.108571  8e-06  0.973104  0.0
H  H50  1  0.18203207  0.16036469  0.52963649  1  0.098234  1.6e-05  0.11324  0.108601  9e-06  0.973013  0.0
H  H51  1  0.31796389  0.83963629  0.02963952  1  0.09822  1.6e-05  0.113215  0.108629  9e-06  0.972978  0.0
H  H52  1  0.53652904  0.31819004  0.50366403  1  0.043312  8e-06  0.107275  0.085986  2e-06  0.991092  0.0
H  H53  1  0.96347932  0.68181315  0.00366649  1  0.043107  8e-06  0.107293  0.086012  2e-06  0.990984  0.0
H  H54  1  0.03652595  0.18181049  0.49633599  1  0.04327  8e-06  0.107263  0.085974  2e-06  0.991074  0.0
H  H55  1  0.46346779  0.81819091  0.99633603  1  0.043316  8e-06  0.107275  0.086013  2e-06  0.99114  0.0
H  H56  1  0.36124876  0.38594566  0.41178256  1  0.019435  -6e-06  0.097285  0.067976  -1.5e-05  0.98657  0.0
H  H57  1  0.13875597  0.61405594  0.91178664  1  0.01947  -6e-06  0.097294  0.067998  -1.5e-05  0.986596  0.0
H  H58  1  0.86125571  0.11404885  0.58821775  1  0.019382  -6e-06  0.097259  0.068012  -1.5e-05  0.986513  0.0
H  H59  1  0.63874644  0.88594908  0.08821598  1  0.019431  -6e-06  0.097271  0.068003  -1.5e-05  0.986511  0.0
H  H60  1  0.34384862  0.29718895  0.45414103  1  0.059872  7e-06  0.103423  0.08241  3e-06  0.987318  0.0
H  H61  1  0.15615634  0.70281349  0.95414371  1  0.060382  7e-06  0.103394  0.082379  3e-06  0.987373  0.0
H  H62  1  0.84384789  0.20281122  0.54586241  1  0.060043  7e-06  0.10343  0.082455  3e-06  0.987298  0.0
H  H63  1  0.65614925  0.79718902  0.04586010  1  0.059893  7e-06  0.103442  0.082453  3e-06  0.987312  0.0
H  H64  1  0.38015133  0.28527580  0.33426425  1  0.09284  5.1e-05  0.100161  0.11137  3.3e-05  0.993206  0.0
H  H65  1  0.11985488  0.71472416  0.83426771  1  0.09275  5.1e-05  0.100145  0.111314  3.3e-05  0.993148  0.0
H  H66  1  0.88015414  0.21470865  0.66574118  1  0.092625  5.1e-05  0.100173  0.111387  3.3e-05  0.993282  0.0
H  H67  1  0.61985416  0.78528652  0.16573803  1  0.092814  5.1e-05  0.100165  0.111387  3.3e-05  0.99327  0.0
H  H68  1  0.35782512  0.20040494  0.37901162  1  -0.017817  8e-06  0.086623  0.070562  2e-06  1.011387  0.0
H  H69  1  0.14218229  0.79959587  0.87901447  1  -0.017796  8e-06  0.086625  0.070573  2e-06  1.011366  0.0
H  H70  1  0.85783550  0.29958642  0.62099733  1  -0.017585  8e-06  0.08667  0.070544  2e-06  1.011438  0.0
H  H71  1  0.64217351  0.70041104  0.12099326  1  -0.017651  8e-06  0.086639  0.070571  2e-06  1.011415  0.0
H  H72  1  0.16915508  0.34575360  0.35749942  1  0.039347  -3e-06  0.106094  0.111926  -1.4e-05  0.962775  0.0
H  H73  1  0.33084840  0.65424333  0.85750178  1  0.039283  -3e-06  0.106051  0.111865  -1.4e-05  0.962747  0.0
H  H74  1  0.66915764  0.15423633  0.64250229  1  0.039112  -3e-06  0.106105  0.111948  -1.4e-05  0.962704  0.0
H  H75  1  0.83084767  0.84576313  0.14249866  1  0.039152  -3e-06  0.106108  0.11198  -1.4e-05  0.962608  0.0
H  H76  1  0.14156790  0.26531831  0.40355707  1  0.012074  3.8e-05  0.089237  0.078874  2.1e-05  0.996937  0.0
H  H77  1  0.35843964  0.73467947  0.90356078  1  0.011906  3.8e-05  0.08924  0.078832  2.1e-05  0.997016  0.0
H  H78  1  0.64157896  0.23467159  0.59644226  1  0.012264  3.8e-05  0.089277  0.078921  2.1e-05  0.99692  0.0
H  H79  1  0.85842991  0.76532575  0.09643968  1  0.012067  3.8e-05  0.089238  0.078838  2.1e-05  0.99701  0.0
H  H80  1  0.17477068  0.24556221  0.28343056  1  0.154284  0.000111  0.125652  0.119392  2.4e-05  1.008476  0.0
H  H81  1  0.32523334  0.75443308  0.78343310  1  0.154368  0.000111  0.125616  0.119316  2.4e-05  1.00845  0.0
H  H82  1  0.67476432  0.25443213  0.71656998  1  0.154285  0.000111  0.125616  0.119328  2.4e-05  1.008522  0.0
H  H83  1  0.82523758  0.74556959  0.21656812  1  0.154352  0.000111  0.125618  0.119269  2.4e-05  1.008516  0.0
H  H84  1  0.02881628  0.23836357  0.31821438  1  0.05675  -1.3e-05  0.119618  0.101455  -3.6e-05  0.942663  0.0
H  H85  1  0.47119079  0.76163442  0.81821747  1  0.056639  -1.3e-05  0.119577  0.101398  -3.6e-05  0.942643  0.0
H  H86  1  0.52880879  0.26162938  0.68178209  1  0.056606  -1.3e-05  0.119563  0.101372  -3.6e-05  0.942591  0.0
H  H87  1  0.97119197  0.73837091  0.18178114  1  0.056569  -1.3e-05  0.119579  0.101384  -3.6e-05  0.942694  0.0
H  H88  1  0.98188647  0.10698964  0.36527448  1  0.041424  6.4e-05  0.123866  0.105414  2.6e-05  0.953567  0.0
H  H89  1  0.51811052  0.89300966  0.86527936  1  0.041382  6.4e-05  0.123885  0.105449  2.6e-05  0.953594  0.0
H  H90  1  0.48189029  0.39300372  0.63472281  1  0.041418  6.4e-05  0.123883  0.105472  2.6e-05  0.953584  0.0
H  H91  1  0.01811197  0.60699651  0.13472040  1  0.041404  6.4e-05  0.123885  0.105465  2.6e-05  0.953603  0.0
H  H92  1  0.11452916  0.12802806  0.40692824  1  0.042212  0.000139  0.114557  0.093594  6.3e-05  0.989664  0.0
H  H93  1  0.38546600  0.87197163  0.90693027  1  0.042122  0.000139  0.114605  0.093662  6.3e-05  0.989549  0.0
H  H94  1  0.61453095  0.37196561  0.59307067  1  0.042274  0.000139  0.114608  0.093641  6.3e-05  0.989615  0.0
H  H95  1  0.88546837  0.62803424  0.09306943  1  0.042098  0.000139  0.114618  0.093652  6.3e-05  0.989607  0.0
H  H96  1  0.29569127  0.01550422  0.41298370  1  0.09509  -3.9e-05  0.104241  0.101359  -7.6e-05  1.016183  0.0
H  H97  1  0.20430392  0.98449424  0.91298382  1  0.095115  -3.9e-05  0.104244  0.101373  -7.6e-05  1.016109  0.0
H  H98  1  0.79569135  0.48448960  0.58701341  1  0.095342  -3.9e-05  0.10424  0.101374  -7.6e-05  1.016087  0.0
H  H99  1  0.70430889  0.51551084  0.08701219  1  0.095308  -3.9e-05  0.104231  0.10134  -7.6e-05  1.016117  0.0
H  H100  1  0.32777994  0.85950277  0.42038129  1  0.102807  0.000538  0.112924  0.122126  0.000256  0.992352  0.0
H  H101  1  0.17221052  0.14049636  0.92038019  1  0.102711  0.000538  0.112949  0.122165  0.000256  0.992187  0.0
H  H102  1  0.82778022  0.64049297  0.57961482  1  0.102816  0.000538  0.11292  0.122176  0.000256  0.992179  0.0
H  H103  1  0.67221520  0.35950807  0.07961524  1  0.102785  0.000538  0.112932  0.122214  0.000256  0.992059  0.0
H  H104  1  0.15169056  0.76310585  0.38967610  1  0.132654  0.000959  0.125324  0.100589  0.00038  0.995941  0.001
H  H105  1  0.34830069  0.23689375  0.88967455  1  0.132648  0.000959  0.125326  0.100558  0.000379  0.995945  0.001
H  H106  1  0.65169217  0.73689099  0.61032300  1  0.132782  0.000959  0.125296  0.100561  0.000379  0.995868  0.001
H  H107  1  0.84830057  0.26310832  0.11032418  1  0.132754  0.000959  0.125341  0.100624  0.00038  0.995845  0.001
H  H108  1  0.92749331  0.96282971  0.34309236  1  0.123548  0.000926  0.122287  0.098626  0.000321  1.012011  0.001
H  H109  1  0.57249974  0.03717137  0.84309254  1  0.123646  0.000925  0.122295  0.09865  0.00032  1.012019  0.001
H  H110  1  0.42749556  0.53716422  0.65690895  1  0.123499  0.000926  0.122289  0.098611  0.00032  1.012028  0.001
H  H111  1  0.07250300  0.46283423  0.15690908  1  0.123529  0.000926  0.122313  0.098644  0.00032  1.012029  0.001
H  H112  1  0.55877864  0.21483084  0.42737472  1  0.611502  4e-06  0.280767  0.292512  2e-06  1.035079  0.0
H  H113  1  0.94122632  0.78517381  0.92737193  1  0.61172  4e-06  0.28074  0.292512  2e-06  1.035084  0.0
H  H114  1  0.05877713  0.28516592  0.57262767  1  0.611481  4e-06  0.280725  0.292522  2e-06  1.034978  0.0
H  H115  1  0.44121811  0.71483148  0.07262665  1  0.611504  4e-06  0.280768  0.292536  2e-06  1.035008  0.0
H  H116  1  0.56930921  0.33160744  0.38943087  1  0.416153  1.6e-05  0.314213  0.255013  9e-06  0.907709  0.0
H  H117  1  0.93069745  0.66839262  0.88943335  1  0.416247  1.6e-05  0.314235  0.255111  9e-06  0.90773  0.0
H  H118  1  0.06931816  0.16838934  0.61056761  1  0.416045  1.6e-05  0.314186  0.254999  9e-06  0.907802  0.0
H  H119  1  0.43068779  0.83160762  0.11056915  1  0.416128  1.6e-05  0.314218  0.255058  9e-06  0.907696  0.0
H  H120  1  0.11767166  0.11091715  0.28732238  1  0.573104  4e-05  0.306596  0.293006  0.000105  1.001579  0.0
H  H121  1  0.38233143  0.88908069  0.78732483  1  0.573188  4e-05  0.306604  0.292996  0.000105  1.001527  0.0
H  H122  1  0.61767605  0.38907841  0.71267575  1  0.573127  4e-05  0.306646  0.29305  0.000105  1.001534  0.0
H  H123  1  0.88232774  0.61092266  0.21267487  1  0.573212  4e-05  0.306669  0.293064  0.000105  1.001431  0.0
H  H124  1  0.24724033  0.12186124  0.32737966  1  0.428473  2.4e-05  0.340166  0.285992  1.6e-05  0.860839  0.0
H  H125  1  0.25276298  0.87813490  0.82738002  1  0.428536  2.4e-05  0.340181  0.286029  1.6e-05  0.860688  0.0
H  H126  1  0.74724162  0.37813065  0.67261819  1  0.428444  2.4e-05  0.340181  0.28601  1.6e-05  0.860754  0.0
H  H127  1  0.75276100  0.62186959  0.17261799  1  0.428484  2.4e-05  0.340196  0.286051  1.6e-05  0.860632  0.0
C  C128  1  0.50387994  0.11414610  0.46629980  1  1.539226  0.000366  0.213174  0.562862  0.000223  4.170593  0.0
C  C129  1  0.99612524  0.88586001  0.96629333  1  1.539152  0.000366  0.213106  0.56261  0.000223  4.170675  0.0
C  C130  1  0.00388224  0.38584998  0.53370175  1  1.539302  0.000366  0.213205  0.562908  0.000223  4.170356  0.0
C  C131  1  0.49611088  0.61414786  0.03370334  1  1.539219  0.000366  0.213192  0.562795  0.000223  4.170343  0.0
C  C132  1  0.52628626  0.02240055  0.47654010  1  -0.007904  0.001663  -0.024802  -0.0614  0.000939  4.012125  0.001
C  C133  1  0.97372279  0.97760498  0.97653574  1  -0.008265  0.001663  -0.024782  -0.061183  0.000939  4.011808  0.001
C  C134  1  0.02628392  0.47759555  0.52345834  1  -0.007921  0.001664  -0.02476  -0.061308  0.000939  4.012081  0.001
C  C135  1  0.47371105  0.52240286  0.02345816  1  -0.007961  0.001663  -0.024799  -0.061324  0.000939  4.012263  0.001
C  C136  1  0.46428339  0.98694190  0.51992985  1  -0.003837  -0.001622  -0.071161  -0.09482  -0.002078  3.926395  -0.001
C  C137  1  0.03572683  0.01306218  0.01992596  1  -0.067734  -0.001583  -0.071262  -0.095033  -0.002078  3.926303  -0.001
C  C138  1  0.96429049  0.51305270  0.48006796  1  -0.003979  -0.001622  -0.071059  -0.094629  -0.002078  3.926228  -0.001
C  C139  1  0.53571189  0.48694654  0.98006974  1  -0.003947  -0.001622  -0.071068  -0.094667  -0.002079  3.926288  -0.001
C  C140  1  0.48047654  0.90174568  0.53180281  1  -0.003888  0.015944  -0.015655  -0.027196  0.010232  3.982228  0.013
C  C141  1  0.01953088  0.09825845  0.03180023  1  0.060076  0.015903  -0.015575  -0.026997  0.01023  3.982161  0.013
C  C142  1  0.98048185  0.59824767  0.46819581  1  -0.004067  0.015945  -0.015774  -0.027346  0.010232  3.982151  0.013
C  C143  1  0.51951856  0.40174962  0.96819663  1  -0.004049  0.015945  -0.015725  -0.027349  0.010232  3.982177  0.013
C  C144  1  0.41015658  0.86094494  0.57618188  1  1.571518  -0.00047  0.218682  0.581106  -0.000821  4.163698  -0.003
C  C145  1  0.08985013  0.13905437  0.07618063  1  1.571455  -0.000468  0.21866  0.581106  -0.00082  4.163769  -0.003
C  C146  1  0.91014742  0.63904457  0.42381824  1  1.571585  -0.00047  0.218642  0.580974  -0.00082  4.163919  -0.003
C  C147  1  0.58984703  0.36095188  0.92381865  1  1.571471  -0.00047  0.218771  0.581243  -0.000821  4.163687  -0.003
C  C148  1  0.55614233  0.85167147  0.49943135  1  -0.122026  -0.000246  -0.070705  -0.096396  -0.000997  3.925438  0.0
C  C149  1  0.94386493  0.14833291  0.99942815  1  -0.121514  -0.000247  -0.070672  -0.096389  -0.000997  3.925507  0.0
C  C150  1  0.05613919  0.64832591  0.50056923  1  -0.121703  -0.000247  -0.070547  -0.096179  -0.000998  3.925279  0.0
C  C151  1  0.44386043  0.35167303  0.00056949  1  -0.121731  -0.000247  -0.070593  -0.096228  -0.000998  3.925392  0.0
C  C152  1  0.60208571  0.97152507  0.44386096  1  -0.05845  -0.001322  -0.071079  -0.100248  -0.001887  3.910249  -0.001
C  C153  1  0.89791457  0.02848030  0.94385867  1  -0.058709  -0.001322  -0.071073  -0.100347  -0.001886  3.909924  -0.001
C  C154  1  0.10208453  0.52846983  0.55613770  1  -0.058453  -0.001322  -0.071157  -0.100474  -0.001887  3.910248  -0.001
C  C155  1  0.39791444  0.47152875  0.05613814  1  -0.058468  -0.001322  -0.071123  -0.100351  -0.001887  3.91045  -0.001
C  C156  1  0.61472574  0.88538828  0.45489442  1  -0.007687  0.019458  -0.015189  -0.035432  0.012544  3.975095  0.015
C  C157  1  0.88527842  0.11461588  0.95489267  1  -0.007999  0.019458  -0.015161  -0.035346  0.012544  3.975147  0.015
C  C158  1  0.11472563  0.61460852  0.54510582  1  -0.007694  0.019459  -0.015244  -0.03543  0.012545  3.975077  0.015
C  C159  1  0.38527423  0.38539001  0.04510648  1  -0.0077  0.019459  -0.015278  -0.035558  0.012545  3.975199  0.015
C  C160  1  0.68704449  0.82555404  0.41995579  1  1.568799  -0.002408  0.221673  0.587798  -0.002858  4.155412  -0.004
C  C161  1  0.81295089  0.17444680  0.91995567  1  1.568856  -0.002408  0.221642  0.587731  -0.002858  4.1554  -0.004
C  C162  1  0.18704851  0.67444094  0.58004491  1  1.568897  -0.002408  0.221557  0.587538  -0.002857  4.155545  -0.004
C  C163  1  0.31295345  0.32555839  0.08004657  1  1.568862  -0.002409  0.221671  0.587683  -0.002858  4.155176  -0.004
C  C164  1  0.02064654  0.63496696  0.28785644  1  1.575174  -0.000852  0.215643  0.584344  -0.001301  4.184245  -0.002
C  C165  1  0.47934987  0.36503277  0.78785682  1  1.575153  -0.000851  0.21572  0.58442  -0.0013  4.18406  -0.002
C  C166  1  0.52065469  0.86503039  0.71214215  1  1.575193  -0.000852  0.215657  0.584205  -0.0013  4.184335  -0.002
C  C167  1  0.97934146  0.13496627  0.21214282  1  1.575123  -0.000851  0.215676  0.584355  -0.0013  4.183904  -0.002
C  C168  1  0.14385873  0.58642852  0.28533994  1  -0.058293  0.01146  -0.026914  -0.054369  0.007185  4.011271  0.009
C  C169  1  0.35613767  0.41357245  0.78533873  1  -0.058279  0.01146  -0.026884  -0.05433  0.007184  4.011296  0.009
C  C170  1  0.64386795  0.91357209  0.71466033  1  -0.058362  0.011461  -0.026916  -0.05434  0.007185  4.011493  0.009
C  C171  1  0.85613012  0.08642710  0.21466079  1  -0.058301  0.011461  -0.026911  -0.054388  0.007185  4.011299  0.009
C  C172  1  0.14215264  0.50491130  0.26448138  1  -0.033735  -5.8e-05  -0.081125  -0.111092  -0.000656  3.956464  0.0
C  C173  1  0.35784747  0.49508768  0.76447954  1  -0.033539  -5.9e-05  -0.081147  -0.111092  -0.000656  3.956482  0.0
C  C174  1  0.64215832  0.99508742  0.73552006  1  -0.033438  -5.8e-05  -0.081149  -0.111144  -0.000655  3.956673  0.0
C  C175  1  0.85784177  0.00490998  0.23551959  1  -0.033676  -5.8e-05  -0.081097  -0.111103  -0.000655  3.956533  0.0
C  C176  1  0.25364928  0.45679902  0.26181057  1  -0.009001  0.010961  -0.021442  -0.035403  0.006914  3.990316  0.009
C  C177  1  0.24635081  0.54320311  0.76180989  1  -0.009008  0.010962  -0.021394  -0.03532  0.006915  3.990139  0.009
C  C178  1  0.75365309  0.04320234  0.73818886  1  -0.009034  0.01096  -0.021473  -0.03548  0.006914  3.990262  0.009
C  C179  1  0.74634702  0.95679508  0.23818890  1  -0.009501  0.010963  -0.021501  -0.035413  0.006914  3.990224  0.009
C  C180  1  0.36790726  0.49031806  0.28067053  1  -0.022073  0.000793  -0.074289  -0.103831  0.000146  3.931306  0.001
C  C181  1  0.13209007  0.50968541  0.78066851  1  -0.022038  0.000792  -0.07435  -0.103982  0.000146  3.931256  0.001
C  C182  1  0.86791567  0.00968529  0.71932822  1  -0.02215  0.000794  -0.074294  -0.103915  0.000147  3.931342  0.001
C  C183  1  0.63208338  0.99031204  0.21933096  1  -0.022031  0.000793  -0.074346  -0.10403  0.000146  3.931207  0.001
C  C184  1  0.37030127  0.57189833  0.30156600  1  -0.147712  8.1e-05  -0.021301  -0.034972  -0.000677  4.011186  -0.001
C  C185  1  0.12969617  0.42810462  0.80156539  1  -0.147712  8.2e-05  -0.021256  -0.03476  -0.000677  4.011032  -0.001
C  C186  1  0.87031234  0.92810627  0.69843605  1  -0.147751  8.1e-05  -0.021268  -0.034766  -0.000678  4.010917  -0.001
C  C187  1  0.62968564  0.07189157  0.19843824  1  -0.14766  8.1e-05  -0.021217  -0.034456  -0.000678  4.010639  -0.001
C  C188  1  0.25855752  0.62015434  0.30385201  1  0.045592  -0.000215  -0.072933  -0.094032  -0.000602  3.914436  0.0
C  C189  1  0.24144280  0.37984673  0.80385260  1  0.04556  -0.000215  -0.072986  -0.094205  -0.000602  3.914474  0.0
C  C190  1  0.75856275  0.87984700  0.69614954  1  0.045509  -0.000215  -0.073006  -0.094134  -0.000602  3.914437  0.0
C  C191  1  0.74143236  0.12015020  0.19614957  1  0.045387  -0.000216  -0.072979  -0.094245  -0.000602  3.914375  0.0
C  C192  1  0.25204907  0.36926514  0.23854936  1  1.575013  3.5e-05  0.199344  0.557346  -0.00026  4.223425  -0.002
C  C193  1  0.24794993  0.63073434  0.73854728  1  1.575021  3.4e-05  0.19933  0.557409  -0.00026  4.223489  -0.002
C  C194  1  0.75205415  0.13073369  0.76145164  1  1.575045  3.5e-05  0.19941  0.55759  -0.00026  4.223244  -0.002
C  C195  1  0.74794132  0.86925943  0.26144915  1  1.575514  3.5e-05  0.199441  0.557387  -0.000258  4.223516  -0.002
C  C196  1  0.49037172  0.60464828  0.32455510  1  1.537147  -0.002946  0.196452  0.537149  -0.004497  4.183636  -0.006
C  C197  1  0.00962585  0.39535541  0.82455432  1  1.537193  -0.002945  0.196309  0.536832  -0.004497  4.183945  -0.006
C  C198  1  0.99038164  0.89535706  0.67544471  1  1.537356  -0.002946  0.196344  0.536946  -0.004495  4.184192  -0.006
C  C199  1  0.50961908  0.10464194  0.17544763  1  1.537204  -0.002944  0.196314  0.536822  -0.004495  4.184188  -0.006
C  C200  1  0.49474673  0.61339622  0.46651701  1  0.565521  -0.001007  0.0571  0.097663  -0.00122  3.901797  -0.001
C  C201  1  0.00525448  0.38660629  0.96651622  1  0.565557  -0.001007  0.057053  0.097491  -0.00122  3.901633  -0.001
C  C202  1  0.99475299  0.88660345  0.53348044  1  0.565621  -0.001008  0.057046  0.09745  -0.00122  3.901597  -0.001
C  C203  1  0.50525458  0.11339610  0.03348299  1  0.565472  -0.001008  0.057097  0.097634  -0.001221  3.901767  -0.001
C  C204  1  0.43369690  0.56432699  0.50416877  1  -0.037976  0.000768  -0.081081  -0.115044  0.000392  3.970532  0.001
C  C205  1  0.06630941  0.43567259  0.00416805  1  -0.037995  0.000769  -0.081064  -0.115051  0.000393  3.970486  0.001
C  C206  1  0.93369734  0.93567136  0.49583020  1  -0.037965  0.000769  -0.081108  -0.114981  0.000393  3.97042  0.001
C  C207  1  0.56630036  0.06432733  0.99583160  1  -0.03798  0.000769  -0.081076  -0.115054  0.000393  3.97075  0.001
C  C208  1  0.45968591  0.47823116  0.50605854  1  -0.08556  -0.001241  -0.069421  -0.093769  -0.001392  3.968899  -0.001
C  C209  1  0.04032328  0.52176969  0.00605914  1  -0.085652  -0.001241  -0.069485  -0.0938  -0.001392  3.968981  -0.001
C  C210  1  0.95968452  0.02176786  0.49394108  1  -0.085631  -0.001242  -0.069399  -0.093856  -0.001393  3.968897  -0.001
C  C211  1  0.54031222  0.97823209  0.99394261  1  -0.085162  -0.001242  -0.069428  -0.093756  -0.001393  3.968831  -0.001
C  C212  1  0.54903560  0.44351691  0.47151888  1  0.009454  0.000335  -0.012142  0.033812  0.000102  3.995043  0.0
C  C213  1  0.95097247  0.55648544  0.97152077  1  0.009483  0.000335  -0.011975  0.034007  0.000103  3.994922  0.0
C  C214  1  0.04903623  0.05648489  0.52847997  1  0.009479  0.000335  -0.01213  0.033986  0.000103  3.994891  0.0
C  C215  1  0.45095876  0.94351482  0.02848135  1  0.009459  0.000335  -0.012074  0.033925  0.000103  3.995006  0.0
C  C216  1  0.60827453  0.49794400  0.43596349  1  0.46667  -0.001658  0.054525  0.040705  -0.002172  3.901211  -0.001
C  C217  1  0.89173048  0.50205754  0.93596563  1  0.467087  -0.001658  0.05452  0.040691  -0.002171  3.90147  -0.001
C  C218  1  0.10828002  0.00205532  0.56403188  1  0.466769  -0.001658  0.054533  0.040664  -0.002172  3.901371  -0.001
C  C219  1  0.39172472  0.99794519  0.06403526  1  0.467064  -0.001659  0.054485  0.040694  -0.002172  3.901314  -0.001
C  C220  1  0.57830482  0.35040649  0.46946405  1  0.286842  2.6e-05  -0.062855  -0.090578  1.9e-05  3.936661  0.0
C  C221  1  0.92170323  0.64959648  0.96946688  1  0.287081  2.6e-05  -0.062879  -0.090561  1.9e-05  3.936545  0.0
C  C222  1  0.07830280  0.14959659  0.53053522  1  0.286995  2.6e-05  -0.062794  -0.090497  1.9e-05  3.936376  0.0
C  C223  1  0.42169603  0.85040375  0.03053639  1  0.286833  2.6e-05  -0.062811  -0.090609  1.9e-05  3.936696  0.0
C  C224  1  0.38627986  0.31888825  0.41700204  1  0.29415  5e-06  -0.073145  -0.030922  -5e-06  3.921227  0.0
C  C225  1  0.11372585  0.68111401  0.91700504  1  0.293303  5e-06  -0.073166  -0.030849  -5e-06  3.921268  0.0
C  C226  1  0.88628406  0.18110755  0.58300065  1  0.294154  5e-06  -0.073061  -0.030986  -5e-06  3.921222  0.0
C  C227  1  0.61371806  0.81889036  0.08299835  1  0.29418  5e-06  -0.073169  -0.03096  -5e-06  3.921262  0.0
C  C228  1  0.33409160  0.26714777  0.37153125  1  -0.041963  8.1e-05  -0.166143  -0.174587  4.8e-05  3.942773  0.0
C  C229  1  0.16591672  0.73285237  0.87153439  1  -0.041702  8.1e-05  -0.166122  -0.174542  4.8e-05  3.942619  0.0
C  C230  1  0.83409712  0.23284231  0.62847454  1  -0.04214  8.1e-05  -0.166206  -0.174569  4.8e-05  3.942795  0.0
C  C231  1  0.66590812  0.76715520  0.12847061  1  -0.042133  8.1e-05  -0.166135  -0.174621  4.8e-05  3.942748  0.0
C  C232  1  0.18990509  0.27906309  0.36602817  1  -0.0053  2e-06  -0.159773  -0.168371  -1e-05  3.952096  0.0
C  C233  1  0.31010321  0.72093450  0.86603103  1  -0.005143  2e-06  -0.159699  -0.168234  -1e-05  3.951985  0.0
C  C234  1  0.68990774  0.22092812  0.63397434  1  -0.00516  2e-06  -0.159821  -0.168413  -1e-05  3.952062  0.0
C  C235  1  0.81009657  0.77907193  0.13397057  1  -0.005167  2e-06  -0.159809  -0.168361  -1e-05  3.951895  0.0
C  C236  1  0.13224691  0.22837792  0.32126337  1  0.234698  0.000116  -0.059482  -0.043116  2.9e-05  3.800131  0.0
C  C237  1  0.36775923  0.77161946  0.82126598  1  0.234719  0.000116  -0.059401  -0.042962  2.9e-05  3.799965  0.0
C  C238  1  0.63224323  0.27161702  0.67873595  1  0.234653  0.000116  -0.05941  -0.042967  2.9e-05  3.800065  0.0
C  C239  1  0.86776037  0.72838325  0.17873371  1  0.234694  0.000116  -0.059404  -0.042884  2.9e-05  3.800032  0.0
C  C240  1  0.08413003  0.09498560  0.37115128  1  0.296901  0.000401  -0.04989  -0.076541  0.00027  3.876794  0.0
C  C241  1  0.41586875  0.90501391  0.87115340  1  0.296993  0.000401  -0.049971  -0.076742  0.00027  3.876772  0.0
C  C242  1  0.58412922  0.40500867  0.62884721  1  0.296673  0.000401  -0.049907  -0.076633  0.00027  3.876721  0.0
C  C243  1  0.91587220  0.59499010  0.12884555  1  0.296791  0.000401  -0.049938  -0.076679  0.00027  3.876868  0.0
C  C244  1  0.10991771  0.00214438  0.37613592  1  0.033609  0.002928  -0.01732  0.017869  0.00176  4.006687  0.002
C  C245  1  0.39007823  0.99785705  0.87613702  1  0.033856  0.002927  -0.017332  0.017849  0.001759  4.006702  0.002
C  C246  1  0.60991516  0.49784991  0.62386298  1  0.033499  0.002927  -0.017397  0.018  0.001759  4.006483  0.002
C  C247  1  0.89008432  0.50215072  0.12386230  1  0.033449  0.002927  -0.017377  0.01802  0.001759  4.006344  0.002
C  C248  1  0.22302506  0.97191879  0.39855380  1  -0.115206  -0.00301  -0.070145  -0.088936  -0.003391  3.961293  -0.002
C  C249  1  0.27696910  0.02808148  0.89855376  1  -0.11535  -0.00301  -0.070133  -0.088844  -0.003391  3.961112  -0.002
C  C250  1  0.72302237  0.52807622  0.60144300  1  -0.115494  -0.00301  -0.070238  -0.089126  -0.003391  3.961281  -0.002
C  C251  1  0.77697508  0.47192430  0.10144294  1  -0.115471  -0.003009  -0.070247  -0.089092  -0.00339  3.961151  -0.002
C  C252  1  0.24074191  0.88526695  0.40337786  1  -0.026571  0.003148  -0.075658  -0.109683  0.001904  3.956421  0.002
C  C253  1  0.25925132  0.11473209  0.90337639  1  -0.026561  0.003147  -0.075738  -0.109892  0.001903  3.956379  0.002
C  C254  1  0.74074223  0.61472682  0.59662054  1  -0.026656  0.003147  -0.075638  -0.109762  0.001903  3.956413  0.002
C  C255  1  0.75925424  0.38527368  0.09661951  1  -0.026662  0.003147  -0.075533  -0.109658  0.001903  3.956237  0.002
C  C256  1  0.14391365  0.83135538  0.38640576  1  0.514652  -0.001837  0.064786  0.109881  -0.002197  3.894984  -0.001
C  C257  1  0.35607854  0.16864547  0.88640409  1  0.514653  -0.001837  0.064739  0.109928  -0.002197  3.895039  -0.001
C  C258  1  0.64391417  0.66863956  0.61359294  1  0.514454  -0.001837  0.064851  0.110041  -0.002198  3.894931  -0.001
C  C259  1  0.85607953  0.33136039  0.11359583  1  0.514583  -0.001837  0.064687  0.109752  -0.002197  3.895072  -0.001
C  C260  1  0.01827036  0.94338369  0.36024102  1  0.4955  -0.002029  0.057342  0.049748  -0.002488  3.900731  -0.002
C  C261  1  0.48172168  0.05661451  0.86024083  1  0.495268  -0.002028  0.057382  0.049841  -0.002488  3.900658  -0.002
C  C262  1  0.51827366  0.55661114  0.63976071  1  0.495662  -0.002028  0.057447  0.049858  -0.002488  3.900602  -0.002
C  C263  1  0.98172686  0.44338642  0.13976078  1  0.495747  -0.002028  0.057372  0.049756  -0.002487  3.900658  -0.002
N  N264  1  0.58086008  0.58039353  0.43324994  1  -1.220685  0.005649  -0.317459  -0.201767  0.003726  3.595156  0.005
N  N265  1  0.91913919  0.41961052  0.93324998  1  -1.220816  0.005661  -0.31747  -0.201734  0.003733  3.59523  0.005
N  N266  1  0.08086453  0.91960765  0.56674831  1  -1.22052  0.005659  -0.317512  -0.201757  0.003732  3.595071  0.005
N  N267  1  0.41914021  0.08039161  0.06675118  1  -1.220848  0.00566  -0.317444  -0.201803  0.003733  3.595025  0.005
N  N268  1  0.03461425  0.86006104  0.36552330  1  -1.198238  0.037687  -0.300591  -0.191956  0.024434  3.485536  0.033
N  N269  1  0.46537878  0.13994033  0.86552129  1  -1.198161  0.037676  -0.300521  -0.191919  0.024426  3.485425  0.033
N  N270  1  0.53461578  0.63993506  0.63447765  1  -1.197861  0.037679  -0.300587  -0.192088  0.024428  3.485558  0.033
N  N271  1  0.96538090  0.36006499  0.13447755  1  -1.197999  0.037675  -0.300549  -0.191922  0.024425  3.485672  0.033
N  N272  1  0.52578359  0.30798600  0.42230604  1  -1.062114  -0.0  -0.456404  -0.295331  -1.1e-05  3.398184  0.0
N  N273  1  0.97422230  0.69201548  0.92230821  1  -1.062253  -0.0  -0.456396  -0.295571  -1.1e-05  3.398117  0.0
N  N274  1  0.02578764  0.19201262  0.57769554  1  -1.062115  -0.0  -0.45645  -0.295423  -1.1e-05  3.398248  0.0
N  N275  1  0.47421431  0.80798670  0.07769471  1  -1.062166  0.0  -0.456419  -0.295467  -1.1e-05  3.398232  0.0
N  N276  1  0.15135961  0.13485081  0.32568534  1  -1.065354  0.000312  -0.465389  -0.215288  0.000191  3.48558  0.0
N  N277  1  0.34864369  0.86514722  0.82568654  1  -1.065289  0.000312  -0.465424  -0.215303  0.000191  3.485373  0.0
N  N278  1  0.65135993  0.36514415  0.67431321  1  -1.065198  0.000312  -0.465435  -0.215384  0.000191  3.485538  0.0
N  N279  1  0.84864270  0.63485547  0.17431195  1  -1.06516  0.000312  -0.465433  -0.215423  0.000191  3.485447  0.0
O  O280  1  0.76617952  0.85636218  0.38752787  1  -1.125233  0.096092  -0.287782  -0.524449  0.058107  2.319973  0.089
O  O281  1  0.73381568  0.14363724  0.88752801  1  -1.12529  0.096089  -0.287729  -0.52437  0.058105  2.319869  0.089
O  O282  1  0.26617984  0.64363603  0.61247290  1  -1.125414  0.096081  -0.287745  -0.524301  0.0581  2.320071  0.089
O  O283  1  0.23381848  0.35636410  0.11247454  1  -1.125403  0.096086  -0.287793  -0.524406  0.058105  2.319881  0.089
O  O284  1  0.66206861  0.74785275  0.42768232  1  -1.109046  0.078226  -0.296812  -0.542986  0.046382  2.39121  0.072
O  O285  1  0.83792490  0.25214875  0.92768315  1  -1.109147  0.078238  -0.296815  -0.542983  0.046386  2.391259  0.072
O  O286  1  0.16207085  0.75214472  0.57231679  1  -1.108867  0.078244  -0.296748  -0.542846  0.046392  2.391097  0.072
O  O287  1  0.33793489  0.24785520  0.07231950  1  -1.108916  0.078239  -0.296785  -0.542851  0.046389  2.391031  0.072
O  O288  1  0.32550778  0.90638245  0.59866398  1  -1.097544  0.062418  -0.292574  -0.517837  0.037365  2.353924  0.057
O  O289  1  0.17449619  0.09361634  0.09866469  1  -1.097523  0.062412  -0.292565  -0.517808  0.037362  2.353903  0.057
O  O290  1  0.82549840  0.59361454  0.40133528  1  -1.097802  0.062408  -0.292554  -0.517802  0.037358  2.354171  0.057
O  O291  1  0.67449210  0.40638494  0.90133506  1  -1.097615  0.062417  -0.292619  -0.517905  0.037365  2.354026  0.057
O  O292  1  0.43586892  0.78469615  0.58641042  1  -1.129074  0.079605  -0.29017  -0.539172  0.047716  2.378838  0.074
O  O293  1  0.06413498  0.21530195  0.08641242  1  -1.128967  0.079604  -0.290157  -0.539253  0.047716  2.378772  0.074
O  O294  1  0.93585700  0.71529527  0.41359130  1  -1.128797  0.07961  -0.290182  -0.539168  0.047721  2.378839  0.074
O  O295  1  0.56413930  0.28470175  0.91358997  1  -1.128884  0.079609  -0.290264  -0.53933  0.047719  2.378897  0.074
O  O296  1  0.58414941  0.14900651  0.43227576  1  -1.179888  0.000103  -0.348193  -0.492368  4e-05  2.281303  0.0
O  O297  1  0.91585939  0.85099817  0.93226796  1  -1.180013  0.000102  -0.348166  -0.492322  4e-05  2.281428  0.0
O  O298  1  0.08414705  0.35099090  0.56772823  1  -1.180021  0.000102  -0.348169  -0.492351  4e-05  2.281227  0.0
O  O299  1  0.41584816  0.64900711  0.06772666  1  -1.180056  0.000102  -0.348172  -0.492285  4e-05  2.281369  0.0
O  O300  1  0.41622281  0.15330094  0.48823297  1  -1.173611  0.000321  -0.321989  -0.53843  0.000176  2.093392  0.0
O  O301  1  0.08377947  0.84670105  0.98822997  1  -1.173414  0.000321  -0.321951  -0.538297  0.000176  2.093302  0.0
O  O302  1  0.91621838  0.34669489  0.51176975  1  -1.17364  0.000321  -0.322007  -0.538514  0.000176  2.093272  0.0
O  O303  1  0.58377477  0.65330834  0.01176593  1  -1.173497  0.000322  -0.322019  -0.538481  0.000177  2.093084  0.0
O  O304  1  0.02527413  0.70545831  0.31184678  1  -1.123036  0.088064  -0.298383  -0.536851  0.053128  2.356513  0.081
O  O305  1  0.47472433  0.29454154  0.81184389  1  -1.123063  0.088052  -0.298431  -0.536839  0.05312  2.356474  0.081
O  O306  1  0.52527819  0.79454031  0.68815377  1  -1.123178  0.088059  -0.298439  -0.536809  0.053125  2.356653  0.081
O  O307  1  0.97471783  0.20545812  0.18815614  1  -1.123086  0.088067  -0.298446  -0.53685  0.053129  2.35634  0.081
O  O308  1  0.92292062  0.60203528  0.26675215  1  -1.175979  0.018234  -0.322173  -0.530603  0.010563  2.230477  0.016
O  O309  1  0.57707583  0.39796480  0.76675144  1  -1.175833  0.01824  -0.322168  -0.530616  0.010566  2.230422  0.016
O  O310  1  0.42292689  0.89796117  0.73324759  1  -1.175754  0.018241  -0.32207  -0.530447  0.010566  2.230446  0.016
O  O311  1  0.07706922  0.10203892  0.23324783  1  -1.175664  0.018239  -0.322072  -0.530504  0.010565  2.23033  0.016
O  O312  1  0.34711114  0.32291739  0.24355097  1  -1.138399  0.036987  -0.312316  -0.502996  0.02162  2.080407  0.032
O  O313  1  0.15288599  0.67708527  0.74354928  1  -1.138472  0.036994  -0.312325  -0.503069  0.021624  2.08036  0.032
O  O314  1  0.84711056  0.17709035  0.75645051  1  -1.138533  0.036991  -0.312305  -0.503054  0.021622  2.080419  0.032
O  O315  1  0.65289156  0.82290526  0.25644589  1  -1.138698  0.036961  -0.312305  -0.502912  0.021604  2.080717  0.032
O  O316  1  0.14412641  0.35141937  0.21595961  1  -1.106341  0.082532  -0.318168  -0.558947  0.049447  2.36844  0.075
O  O317  1  0.35587057  0.64857937  0.71595688  1  -1.106352  0.082535  -0.318165  -0.558941  0.049448  2.368415  0.075
O  O318  1  0.64412782  0.14857810  0.78404090  1  -1.10628  0.082536  -0.318275  -0.559157  0.049449  2.368275  0.075
O  O319  1  0.85586872  0.85141891  0.28404084  1  -1.106149  0.082552  -0.318241  -0.559104  0.049458  2.368155  0.075
O  O320  1  0.49050735  0.67563513  0.34879831  1  -1.063468  0.086218  -0.288764  -0.480531  0.051345  2.162633  0.076
O  O321  1  0.00949036  0.32436994  0.84879740  1  -1.063405  0.086212  -0.288757  -0.480462  0.051341  2.162776  0.076
O  O322  1  0.99051126  0.82437147  0.65120267  1  -1.06344  0.086195  -0.288707  -0.480411  0.051331  2.162814  0.076
O  O323  1  0.50949314  0.17562867  0.15120534  1  -1.063352  0.086196  -0.288743  -0.480457  0.051332  2.162713  0.076
O  O324  1  0.59226236  0.56024408  0.32394924  1  -1.084481  0.097897  -0.294206  -0.496935  0.058379  2.12931  0.086
O  O325  1  0.90773535  0.43976070  0.82394813  1  -1.084521  0.097896  -0.294097  -0.496756  0.058377  2.129329  0.086
O  O326  1  0.09227032  0.93976090  0.67605216  1  -1.084722  0.097891  -0.294097  -0.496808  0.058373  2.129612  0.086
O  O327  1  0.40773025  0.06023827  0.17605459  1  -1.084771  0.097887  -0.294096  -0.496792  0.05837  2.129588  0.086
O  O328  1  0.75198104  0.70532881  0.32696031  1  -0.603848  0.641578  -0.377549  -0.532924  0.381397  1.895005  0.545
O  O329  1  0.74800906  0.29466842  0.82695838  1  -0.603887  0.64157  -0.377548  -0.532892  0.381404  1.895058  0.545
O  O330  1  0.25199155  0.79466686  0.67304163  1  -0.603849  0.641585  -0.37754  -0.532897  0.381414  1.895051  0.545
O  O331  1  0.24800806  0.20533356  0.17304379  1  -0.603906  0.641599  -0.377481  -0.532847  0.381426  1.894945  0.545
