# generated using pymatgen
data_AgH4C5SNO3
_symmetry_space_group_name_H-M   'P 1'
_cell_length_a   8.76638040
_cell_length_b   9.78921259
_cell_length_c   9.78673464
_cell_angle_alpha   78.43063183
_cell_angle_beta   63.40520501
_cell_angle_gamma   63.39529308
_symmetry_Int_Tables_number   1
_chemical_formula_structural   AgH4C5SNO3
_chemical_formula_sum   'Ag4 H16 C20 S4 N4 O12'
_cell_volume   671.47932811
_cell_formula_units_Z   4
loop_
 _symmetry_equiv_pos_site_id
 _symmetry_equiv_pos_as_xyz
  1  'x, y, z'
loop_
 _atom_site_type_symbol
 _atom_site_label
 _atom_site_symmetry_multiplicity
 _atom_site_fract_x
 _atom_site_fract_y
 _atom_site_fract_z
 _atom_site_occupancy
 _atom_site_pbe_bader_spin_density
 _atom_site_pbe_cm5_charge
 _atom_site_pbe_ddec_charge
 _atom_site_pbe_ddec_spin_density
 _atom_site_pbe_ddec_sum_bond_order
 _atom_site_pbe_magmom
Ag  Ag0  1  0.16611377  0.00005175  0.00003314  1  0  0.472066  0.28776  0  2.171341  0
Ag  Ag1  1  0.83391412  0.99989380  0.99996557  1  0  0.472271  0.28767  0  2.170804  0
Ag  Ag2  1  0.50005558  0.99998835  0.99997226  1  0  0.416555  0.542155  0  1.793042  0
Ag  Ag3  1  0.24990396  0.50000055  0.49999869  1  0  0.47595  0.651877  0  1.49884  0
H  H4  1  0.36306082  0.83168313  0.69342779  1  0  0.116195  0.088579  0  1.018557  0
H  H5  1  0.88806628  0.16840669  0.30659855  1  0  0.116297  0.088976  0  1.018558  0
H  H6  1  0.94322142  0.69339812  0.16842975  1  0  0.116325  0.088629  0  1.018291  0
H  H7  1  0.80521419  0.30644641  0.83159646  1  0  0.116349  0.088602  0  1.018392  0
H  H8  1  0.48338132  0.56688020  0.60585474  1  0  0.107021  0.113166  0  1.030385  0
H  H9  1  0.65625827  0.43327312  0.39418447  1  0  0.106643  0.111782  0  1.030405  0
H  H10  1  0.91025535  0.60577281  0.43332530  1  0  0.10664  0.111898  0  1.03056  0
H  H11  1  0.94961286  0.39407092  0.56678859  1  0  0.106765  0.112579  0  1.030816  0
H  H12  1  0.48758642  0.35318476  0.79963114  1  0  0.11141  0.12037  0  1.02406  0
H  H13  1  0.64057902  0.64693223  0.20040338  1  0  0.111281  0.120428  0  1.024713  0
H  H14  1  0.71261420  0.79954982  0.64700824  1  0  0.111454  0.120347  0  1.024546  0
H  H15  1  0.15922631  0.20040724  0.35302665  1  0  0.111398  0.12041  0  1.025128  0
H  H16  1  0.25949584  0.69086904  0.14267330  1  0  0.117487  0.099472  0  1.046819  0
H  H17  1  0.09294651  0.30921131  0.85738671  1  0  0.117361  0.098503  0  1.047207  0
H  H18  1  0.59795791  0.14260771  0.30916381  1  0  0.117114  0.098304  0  1.04747  0
H  H19  1  0.04983237  0.85731247  0.69072986  1  0  0.117637  0.099354  0  1.046522  0
C  C20  1  0.37012204  0.73631521  0.77334159  1  0  0.05417  0.102977  0  3.887713  0
C  C21  1  0.87966771  0.26376514  0.22667432  1  0  0.053415  0.100698  0  3.889427  0
C  C22  1  0.85640150  0.77329804  0.26378992  1  0  0.054078  0.102408  0  3.885638  0
C  C23  1  0.89360916  0.22654274  0.73625018  1  0  0.054101  0.103467  0  3.886568  0
C  C24  1  0.43796787  0.58772134  0.72577662  1  0  -0.076061  -0.105799  0  3.934386  0
C  C25  1  0.75152982  0.41239680  0.27425779  1  0  -0.075849  -0.102426  0  3.930646  0
C  C26  1  0.83600831  0.72572588  0.41245408  1  0  -0.07623  -0.103831  0  3.931405  0
C  C27  1  0.97433240  0.27413901  0.58758923  1  0  -0.076056  -0.105623  0  3.93462  0
C  C28  1  0.44017431  0.47012332  0.83280725  1  0  -0.057012  -0.028015  0  3.902387  0
C  C29  1  0.74327877  0.52998993  0.16721965  1  0  -0.056473  -0.029128  0  3.900754  0
C  C30  1  0.72695028  0.83275271  0.53001132  1  0  -0.056463  -0.028092  0  3.901421  0
C  C31  1  0.08970877  0.16715936  0.46999235  1  0  -0.05667  -0.028109  0  3.905827  0
C  C32  1  0.37683105  0.50719818  0.98494509  1  0  -0.010584  -0.113007  0  3.927592  0
C  C33  1  0.86894012  0.49290164  0.01505552  1  0  -0.010529  -0.112276  0  3.926175  0
C  C34  1  0.63841254  0.98488763  0.49287061  1  0  -0.011024  -0.11423  0  3.929476  0
C  C35  1  0.11611092  0.01504898  0.50706451  1  0  -0.010732  -0.113252  0  3.930281  0
C  C36  1  0.31172400  0.65778993  0.02505240  1  0  0.048206  0.074746  0  3.892119  0
C  C37  1  0.99443744  0.34229380  0.97497428  1  0  0.047887  0.075629  0  3.891194  0
C  C38  1  0.66339100  0.02500548  0.34225016  1  0  0.048581  0.076597  0  3.892247  0
C  C39  1  0.03067167  0.97491045  0.65768974  1  0  0.047928  0.074642  0  3.89346  0
S  S40  1  0.38427578  0.36301123  0.12888440  1  0  0.51125  1.180802  0  6.180231  0
S  S41  1  0.87611348  0.63705217  0.87109840  1  0  0.510547  1.179865  0  6.181547  0
S  S42  1  0.48699295  0.12884831  0.63700499  1  0  0.509563  1.177457  0  6.177438  0
S  S43  1  0.25278125  0.87111452  0.36292280  1  0  0.511631  1.182769  0  6.18242  0
N  N44  1  0.30659411  0.77082601  0.92073237  1  0  -0.348453  -0.158175  0  3.610173  0
N  N45  1  0.99802003  0.22926042  0.07929643  1  0  -0.347587  -0.157677  0  3.611335  0
N  N46  1  0.77268206  0.92069844  0.22924489  1  0  -0.348082  -0.157477  0  3.608685  0
N  N47  1  0.92272268  0.07917135  0.77073892  1  0  -0.348248  -0.157873  0  3.61167  0
O  O48  1  0.24799109  0.44374923  0.27527923  1  0  -0.350202  -0.625171  0  2.353978  0
O  O49  1  0.96710255  0.55627539  0.72470201  1  0  -0.349842  -0.624388  0  2.353224  0
O  O50  1  0.47667225  0.27523126  0.55617608  1  0  -0.350053  -0.624305  0  2.352888  0
O  O51  1  0.30813308  0.72472740  0.44371209  1  0  -0.350196  -0.625109  0  2.354152  0
O  O52  1  0.32619738  0.25836132  0.09512088  1  0  -0.344935  -0.595307  0  2.342412  0
O  O53  1  0.67962470  0.74166207  0.90476534  1  0  -0.344675  -0.595051  0  2.345082  0
O  O54  1  0.57883629  0.09526119  0.74165810  1  0  -0.344315  -0.593819  0  2.341822  0
O  O55  1  0.41562971  0.90470936  0.25828286  1  0  -0.345107  -0.596383  0  2.345038  0
O  O56  1  0.57843445  0.29371502  0.11226184  1  0  -0.337879  -0.597341  0  2.286503  0
O  O57  1  0.98419803  0.70642834  0.88785592  1  0  -0.337419  -0.597242  0  2.287221  0
O  O58  1  0.30957023  0.11203269  0.70642375  1  0  -0.336751  -0.59552  0  2.283317  0
O  O59  1  0.12786493  0.88795773  0.29356562  1  0  -0.338152  -0.598292  0  2.287645  0
