# generated using pymatgen
data_CaH9C10(NO2)3
_symmetry_space_group_name_H-M   'P 1'
_cell_length_a   6.79056981
_cell_length_b   7.67196779
_cell_length_c   12.86307126
_cell_angle_alpha   70.73621053
_cell_angle_beta   73.56165120
_cell_angle_gamma   74.11303428
_symmetry_Int_Tables_number   1
_chemical_formula_structural   CaH9C10(NO2)3
_chemical_formula_sum   'Ca2 H18 C20 N6 O12'
_cell_volume   594.58668110
_cell_formula_units_Z   2
loop_
 _symmetry_equiv_pos_site_id
 _symmetry_equiv_pos_as_xyz
  1  'x, y, z'
loop_
 _atom_site_type_symbol
 _atom_site_label
 _atom_site_symmetry_multiplicity
 _atom_site_fract_x
 _atom_site_fract_y
 _atom_site_fract_z
 _atom_site_occupancy
 _atom_site_hle17_bader_spin_density
 _atom_site_hle17_ddec_charge
 _atom_site_hle17_ddec_spin_density
 _atom_site_hle17_ddec_sum_bond_order
 _atom_site_hle17_magmom
 _atom_site_hse06_10hf_bader_spin_density
 _atom_site_hse06_10hf_ddec_charge
 _atom_site_hse06_10hf_ddec_spin_density
 _atom_site_hse06_10hf_ddec_sum_bond_order
 _atom_site_hse06_10hf_magmom
 _atom_site_hse06_bader_spin_density
 _atom_site_hse06_ddec_charge
 _atom_site_hse06_ddec_spin_density
 _atom_site_hse06_ddec_sum_bond_order
 _atom_site_hse06_magmom
 _atom_site_pbe_bader_spin_density
 _atom_site_pbe_cm5_charge
 _atom_site_pbe_ddec_charge
 _atom_site_pbe_ddec_spin_density
 _atom_site_pbe_ddec_sum_bond_order
 _atom_site_pbe_magmom
Ca  Ca0  1  0.24374480  0.39062267  0.56368245  1  0  1.572277  0  1.100583  0  0  1.443935  0  1.44957  0  0  1.48728  0  1.402859  0  0  0.917292  1.411319  0  1.482666  0
Ca  Ca1  1  0.75625368  0.60937888  0.43631743  1  0  1.572278  0  1.100584  0  0  1.443936  0  1.449575  0  0  1.487273  0  1.402868  0  0  0.917305  1.411307  0  1.482712  0
H  H2  1  0.44326416  0.07587558  0.76770935  1  0  0.318215  0  0.931881  0  0  0.295817  0  1.000111  0  0  0.305601  0  0.991442  0  0  0.315178  0.28889  0  1.006267  0
H  H3  1  0.55673520  0.92412174  0.23229045  1  0  0.318162  0  0.931909  0  0  0.295761  0  1.000159  0  0  0.305544  0  0.991491  0  0  0.315138  0.28883  0  1.006315  0
H  H4  1  0.75740359  0.59109351  0.05069396  1  0  0.11643  0  0.938247  0  0  0.125847  0  0.999619  0  0  0.129718  0  0.997211  0  0  0.11201  0.122983  0  1.00166  0
H  H5  1  0.24259858  0.40890517  0.94930439  1  0  0.116408  0  0.938204  0  0  0.12578  0  0.999647  0  0  0.129649  0  0.997241  0  0  0.111987  0.122913  0  1.001691  0
H  H6  1  0.21967188  0.94712480  0.91769558  1  0  0.10503  0  0.972174  0  0  0.116178  0  1.033153  0  0  0.118905  0  1.032734  0  0  0.108245  0.114183  0  1.033634  0
H  H7  1  0.78033050  0.05287248  0.08230612  1  0  0.105059  0  0.97212  0  0  0.116182  0  1.033132  0  0  0.118912  0  1.032715  0  0  0.108238  0.114185  0  1.033616  0
H  H8  1  0.99672343  0.75954369  0.07832929  1  0  0.072309  0  0.944234  0  0  0.079977  0  1.01225  0  0  0.083094  0  1.008757  0  0  0.11437  0.077633  0  1.014966  0
H  H9  1  0.00327836  0.24045641  0.92167273  1  0  0.072263  0  0.944251  0  0  0.079928  0  1.012281  0  0  0.083048  0  1.008776  0  0  0.114346  0.07758  0  1.014998  0
H  H10  1  0.51001207  0.42320606  0.20953234  1  0  0.079717  0  0.978633  0  0  0.084799  0  1.048294  0  0  0.088108  0  1.045212  0  0  0.115035  0.082354  0  1.050614  0
H  H11  1  0.48999377  0.57678976  0.79046527  1  0  0.079721  0  0.978674  0  0  0.084809  0  1.04832  0  0  0.088117  0  1.04524  0  0  0.115067  0.082363  0  1.050646  0
H  H12  1  0.11060401  0.66566570  0.70168677  1  0  0.422574  0  0.877117  0  0  0.387902  0  0.94648  0  0  0.399037  0  0.930318  0  0  0.293077  0.380006  0  0.957899  0
H  H13  1  0.88939601  0.33433583  0.29831288  1  0  0.422589  0  0.877086  0  0  0.387909  0  0.946463  0  0  0.399043  0  0.930303  0  0  0.293082  0.380012  0  0.957881  0
H  H14  1  0.93581769  0.52881063  0.75015434  1  0  0.381234  0  0.946772  0  0  0.335872  0  1.03429  0  0  0.347971  0  1.017218  0  0  0.28165  0.327369  0  1.046247  0
H  H15  1  0.06418233  0.47119089  0.24984531  1  0  0.381194  0  0.946825  0  0  0.335844  0  1.034326  0  0  0.347942  0  1.017256  0  0  0.281633  0.327343  0  1.046279  0
H  H16  1  0.20837966  0.26478686  0.38322012  1  0  0.429263  0  0.860636  0  0  0.400053  0  0.921459  0  0  0.410558  0  0.906018  0  0  0.304769  0.392462  0  0.932619  0
H  H17  1  0.79161670  0.73521753  0.61677950  1  0  0.429241  0  0.860658  0  0  0.400002  0  0.921504  0  0  0.410507  0  0.906066  0  0  0.304769  0.392418  0  0.932653  0
H  H18  1  0.45940517  0.20075356  0.37372204  1  0  0.431299  0  0.864308  0  0  0.396027  0  0.934465  0  0  0.407926  0  0.916938  0  0  0.297378  0.38756  0  0.946906  0
H  H19  1  0.54059175  0.79924801  0.62627883  1  0  0.431244  0  0.864379  0  0  0.395977  0  0.934533  0  0  0.407877  0  0.917005  0  0  0.297369  0.387509  0  0.946975  0
C  C20  1  0.51034423  0.78333872  0.96922312  1  0  0.040797  0  3.798311  0  0  0.056195  0  4.034104  0  0  0.058809  0  4.054834  0  0  0.011518  0.054458  0  4.019969  0
C  C21  1  0.48965696  0.21665717  0.03077669  1  0  0.040746  0  3.798378  0  0  0.056128  0  4.034182  0  0  0.05874  0  4.054913  0  0  0.011469  0.054393  0  4.020039  0
C  C22  1  0.93253420  0.97388047  0.76547378  1  0  0.019796  0  3.75389  0  0  0.017194  0  4.018061  0  0  0.017455  0  4.035427  0  0  0.093764  0.016948  0  4.006589  0
C  C23  1  0.06746120  0.02612113  0.23452653  1  0  0.019786  0  3.754128  0  0  0.01739  0  4.018055  0  0  0.017664  0  4.0354  0  0  0.093818  0.017131  0  4.006597  0
C  C24  1  0.65186734  0.88184938  0.87404936  1  0  0.314648  0  3.756548  0  0  0.283312  0  4.032432  0  0  0.295142  0  4.046655  0  0  0.213352  0.275683  0  4.02238  0
C  C25  1  0.34813176  0.11814935  0.12594942  1  0  0.314636  0  3.756564  0  0  0.283314  0  4.032461  0  0  0.295145  0  4.046685  0  0  0.213371  0.27568  0  4.022407  0
C  C26  1  0.16223779  0.96772871  0.72274950  1  0  0.682832  0  3.886902  0  0  0.625622  0  4.192647  0  0  0.660516  0  4.180989  0  0  0.238779  0.601781  0  4.19992  0
C  C27  1  0.83776252  0.03227141  0.27725039  1  0  0.68286  0  3.886995  0  0  0.625573  0  4.192741  0  0  0.660467  0  4.181078  0  0  0.23878  0.601735  0  4.200009  0
C  C28  1  0.58937157  0.63451572  0.05481771  1  0  -0.136426  0  3.689343  0  0  -0.15992  0  3.941355  0  0  -0.165733  0  3.960982  0  0  -0.08058  -0.156117  0  3.92823  0
C  C29  1  0.41063242  0.36548152  0.94518066  1  0  -0.136407  0  3.689418  0  0  -0.159864  0  3.941449  0  0  -0.165677  0  3.96108  0  0  -0.080589  -0.156054  0  3.928318  0
C  C30  1  0.29210550  0.83133824  0.97963545  1  0  -0.140479  0  3.68937  0  0  -0.164714  0  3.941881  0  0  -0.171006  0  3.962845  0  0  -0.084748  -0.160591  0  3.927845  0
C  C31  1  0.70789567  0.16865765  0.02036515  1  0  -0.140498  0  3.689281  0  0  -0.1647  0  3.941782  0  0  -0.170999  0  3.962757  0  0  -0.084689  -0.160572  0  3.927733  0
C  C32  1  0.16609038  0.72716352  0.07028292  1  0  0.131194  0  3.729009  0  0  0.100258  0  3.991386  0  0  0.106938  0  4.007227  0  0  0.047988  0.095889  0  3.98072  0
C  C33  1  0.83390990  0.27283660  0.92971775  1  0  0.131321  0  3.728994  0  0  0.100363  0  3.991371  0  0  0.107046  0  4.007215  0  0  0.048027  0.095994  0  3.980704  0
C  C34  1  0.45065389  0.53994333  0.14312570  1  0  0.117661  0  3.719764  0  0  0.087258  0  3.980969  0  0  0.093364  0  3.997532  0  0  0.041874  0.083328  0  3.969647  0
C  C35  1  0.54935009  0.46005392  0.85687345  1  0  0.117672  0  3.7199  0  0  0.087264  0  3.981073  0  0  0.093371  0  3.997634  0  0  0.041849  0.083329  0  3.969757  0
C  C36  1  0.75169650  0.26668215  0.62469061  1  0  0.688134  0  3.938545  0  0  0.638717  0  4.230593  0  0  0.67567  0  4.218838  0  0  0.236587  0.613414  0  4.237893  0
C  C37  1  0.24830013  0.73332084  0.37531002  1  0  0.688127  0  3.938554  0  0  0.638717  0  4.230597  0  0  0.675666  0  4.218851  0  0  0.236614  0.613424  0  4.237889  0
C  C38  1  0.76408992  0.09714284  0.72029271  1  0  -0.003226  0  3.689647  0  0  -0.015399  0  3.944071  0  0  -0.019606  0  3.96278  0  0  0.091808  -0.012722  0  3.931742  0
C  C39  1  0.23590523  0.90286016  0.27970580  1  0  -0.003286  0  3.689862  0  0  -0.015514  0  3.944234  0  0  -0.019725  0  3.962941  0  0  0.091735  -0.012839  0  3.931909  0
N  N40  1  0.58903999  0.03278032  0.78991573  1  0  -0.335593  0  3.404933  0  0  -0.277664  0  3.635506  0  0  -0.293127  0  3.651088  0  0  -0.364849  -0.267234  0  3.625049  0
N  N41  1  0.41095882  0.96721981  0.21008281  1  0  -0.335524  0  3.404947  0  0  -0.277604  0  3.635509  0  0  -0.293068  0  3.651095  0  0  -0.364807  -0.267167  0  3.625051  0
N  N42  1  0.86172319  0.84146878  0.85994241  1  0  -0.410996  0  2.965193  0  0  -0.392581  0  3.243725  0  0  -0.404586  0  3.257375  0  0  -0.332954  -0.38437  0  3.234377  0
N  N43  1  0.13827712  0.15853133  0.14005748  1  0  -0.41099  0  2.965192  0  0  -0.392655  0  3.243683  0  0  -0.404665  0  3.257331  0  0  -0.33298  -0.384441  0  3.234337  0
N  N44  1  0.24187896  0.58295847  0.15105024  1  0  -0.315293  0  3.176699  0  0  -0.254933  0  3.429159  0  0  -0.268507  0  3.44474  0  0  -0.305893  -0.245685  0  3.418499  0
N  N45  1  0.75812621  0.41704017  0.84895080  1  0  -0.315375  0  3.176786  0  0  -0.254975  0  3.429225  0  0  -0.268551  0  3.444808  0  0  -0.305893  -0.245727  0  3.418566  0
O  O46  1  0.27409549  0.81645478  0.70237494  1  0  -0.606292  0  1.965971  0  0  -0.541108  0  2.176038  0  0  -0.567075  0  2.164803  0  0  -0.278095  -0.522841  0  2.183324  0
O  O47  1  0.72590197  0.18354397  0.29762795  1  0  -0.606342  0  1.965944  0  0  -0.54111  0  2.175996  0  0  -0.567077  0  2.164758  0  0  -0.278083  -0.522841  0  2.183278  0
O  O48  1  0.23074665  0.11314771  0.71344336  1  0  -0.712075  0  2.023283  0  0  -0.658576  0  2.276726  0  0  -0.685694  0  2.263862  0  0  -0.370476  -0.638929  0  2.284821  0
O  O49  1  0.76925366  0.88685241  0.28655653  1  0  -0.712054  0  2.0233  0  0  -0.658553  0  2.276753  0  0  -0.685671  0  2.263893  0  0  -0.370488  -0.638903  0  2.284851  0
O  O50  1  0.91660203  0.33259340  0.57268129  1  0  -0.732925  0  2.038653  0  0  -0.665954  0  2.286536  0  0  -0.696028  0  2.276805  0  0  -0.389125  -0.644541  0  2.292584  0
O  O51  1  0.08339334  0.66740820  0.42732057  1  0  -0.732962  0  2.038713  0  0  -0.665961  0  2.286535  0  0  -0.696033  0  2.276806  0  0  -0.389148  -0.644551  0  2.292582  0
O  O52  1  0.57566758  0.34819907  0.59647662  1  0  -0.747876  0  1.95758  0  0  -0.684018  0  2.200211  0  0  -0.711603  0  2.186357  0  0  -0.385876  -0.664244  0  2.209091  0
O  O53  1  0.42433088  0.65180248  0.40352403  1  0  -0.74782  0  1.957513  0  0  -0.68397  0  2.200138  0  0  -0.711552  0  2.186288  0  0  -0.385867  -0.664204  0  2.209024  0
O  O54  1  0.03949856  0.58838544  0.68114360  1  0  -0.899842  0  1.87225  0  0  -0.832813  0  2.068436  0  0  -0.855675  0  2.034661  0  0  -0.617816  -0.816228  0  2.091866  0
O  O55  1  0.96050118  0.41161750  0.31885582  1  0  -0.899833  0  1.872256  0  0  -0.832812  0  2.068452  0  0  -0.855671  0  2.034678  0  0  -0.617805  -0.816221  0  2.091885  0
O  O56  1  0.32172751  0.22854249  0.42466926  1  0  -0.882333  0  1.7791  0  0  -0.827276  0  1.952781  0  0  -0.847442  0  1.91871  0  0  -0.624259  -0.812743  0  1.976826  0
O  O57  1  0.67826789  0.77145911  0.57533105  1  0  -0.882265  0  1.779173  0  0  -0.82717  0  1.952922  0  0  -0.847334  0  1.918854  0  0  -0.624247  -0.812636  0  1.976966  0
