# generated using pymatgen
data_MnH8C12(NO2)2
_symmetry_space_group_name_H-M   'P 1'
_cell_length_a   9.05383054
_cell_length_b   9.92953224
_cell_length_c   41.72990532
_cell_angle_alpha   90.00033012
_cell_angle_beta   89.99947893
_cell_angle_gamma   100.06511172
_symmetry_Int_Tables_number   1
_chemical_formula_structural   MnH8C12(NO2)2
_chemical_formula_sum   'Mn12 H96 C144 N24 O48'
_cell_volume   3693.79421744
_cell_formula_units_Z   12
loop_
 _symmetry_equiv_pos_site_id
 _symmetry_equiv_pos_as_xyz
  1  'x, y, z'
loop_
 _atom_site_type_symbol
 _atom_site_label
 _atom_site_symmetry_multiplicity
 _atom_site_fract_x
 _atom_site_fract_y
 _atom_site_fract_z
 _atom_site_occupancy
 _atom_site_pbe_bader_charge
 _atom_site_pbe_bader_spin_density
 _atom_site_pbe_cm5_charge
 _atom_site_pbe_ddec_charge
 _atom_site_pbe_ddec_spin_density
 _atom_site_pbe_ddec_sum_bond_order
 _atom_site_pbe_magmom
Mn  Mn0  1  0.00761090  0.74236055  0.83401557  1  1.539554  4.524454  0.610705  0.949975  4.656944  2.404959  4.458
Mn  Mn1  1  0.49237633  0.75764465  0.33401470  1  1.539463  4.524495  0.610744  0.94993  4.656902  2.405019  4.458
Mn  Mn2  1  0.99237894  0.25764001  0.16598641  1  1.539472  4.524527  0.61075  0.949961  4.656896  2.404887  4.458
Mn  Mn3  1  0.50761758  0.24236510  0.66598633  1  1.539589  4.524446  0.610736  0.94998  4.656845  2.404973  4.458
Mn  Mn4  1  0.00380373  0.24316915  0.83266704  1  1.545292  4.490108  0.621563  0.946175  4.624077  2.447696  4.429
Mn  Mn5  1  0.49619830  0.25682775  0.33266568  1  1.545415  4.490032  0.621544  0.946161  4.624021  2.447643  4.429
Mn  Mn6  1  0.99619230  0.75682930  0.16733111  1  1.545386  4.489989  0.621498  0.946167  4.624005  2.447778  4.429
Mn  Mn7  1  0.50380739  0.74317470  0.66733319  1  1.545336  4.490038  0.62155  0.946114  4.624044  2.447715  4.429
Mn  Mn8  1  0.49682982  0.24515062  0.00051778  1  1.541907  4.504484  0.617342  0.947778  4.631369  2.426173  4.44
Mn  Mn9  1  0.00316789  0.25483633  0.50051485  1  1.541936  4.50448  0.617426  0.948011  4.631389  2.42587  4.44
Mn  Mn10  1  0.50317516  0.75483750  0.99948204  1  1.541858  4.504425  0.617298  0.94779  4.631273  2.426295  4.44
Mn  Mn11  1  0.99684283  0.74516916  0.49948498  1  1.541755  4.504444  0.617389  0.947893  4.631319  2.426219  4.44
H  H12  1  0.56382445  0.77068252  0.74108625  1  0.155983  0.000866  0.113523  0.079788  0.000271  1.057733  0.0
H  H13  1  0.93617586  0.72932381  0.24108641  1  0.156027  0.000866  0.113528  0.079801  0.00027  1.057722  0.0
H  H14  1  0.43617337  0.22931386  0.25891214  1  0.155951  0.000867  0.113516  0.079737  0.000271  1.057856  0.0
H  H15  1  0.06383465  0.27068064  0.75890982  1  0.155916  0.000866  0.113515  0.079712  0.000271  1.057933  0.0
H  H16  1  0.44584529  0.69793064  0.79412550  1  0.100148  0.00087  0.114934  0.128438  0.000354  0.973462  0.0
H  H17  1  0.05415301  0.80207169  0.29412577  1  0.100444  0.00087  0.114962  0.128452  0.000354  0.973455  0.0
H  H18  1  0.55415101  0.30206371  0.20587265  1  0.099996  0.00087  0.114969  0.128441  0.000354  0.97355  0.0
H  H19  1  0.94585295  0.19792666  0.70587118  1  0.100004  0.00087  0.115004  0.128527  0.000354  0.973474  0.0
H  H20  1  0.06074208  0.49101985  0.74179611  1  0.114703  0.000745  0.1057  0.110573  0.0003  1.034573  0.0
H  H21  1  0.43926764  0.00896306  0.24179812  1  0.114452  0.000745  0.105671  0.110502  0.0003  1.034682  0.0
H  H22  1  0.93924185  0.50899512  0.25820084  1  0.114668  0.000745  0.105715  0.110592  0.0003  1.034694  0.0
H  H23  1  0.56075567  0.99102282  0.75820219  1  0.114861  0.000745  0.10569  0.110588  0.0003  1.034743  0.0
H  H24  1  0.19138941  0.57925413  0.69129773  1  0.097663  0.001475  0.121869  0.094185  0.000693  0.978294  0.0
H  H25  1  0.30862766  0.92073184  0.19129935  1  0.097634  0.001475  0.121883  0.094269  0.000693  0.978265  0.0
H  H26  1  0.80859673  0.42076082  0.30870018  1  0.097735  0.001475  0.121884  0.094237  0.000693  0.978388  0.0
H  H27  1  0.69140440  0.07925909  0.80870024  1  0.097738  0.001475  0.121893  0.09424  0.000694  0.978332  0.0
H  H28  1  0.67575631  0.51447976  0.97040880  1  0.172977  0.00119  0.117618  0.093425  0.000245  1.074259  0.001
H  H29  1  0.82424350  0.98550196  0.47040353  1  0.173135  0.001189  0.117595  0.093399  0.000245  1.074229  0.001
H  H30  1  0.32423875  0.48550845  0.02959174  1  0.172932  0.001189  0.117546  0.093255  0.000245  1.074344  0.001
H  H31  1  0.17575613  0.01450875  0.52959654  1  0.173048  0.001189  0.117551  0.093217  0.000245  1.074427  0.001
H  H32  1  0.79390231  0.60407338  0.91851934  1  0.097748  0.000687  0.106879  0.112374  6.8e-05  1.031886  0.0
H  H33  1  0.70609921  0.89591663  0.41851346  1  0.097736  0.000687  0.106898  0.112404  6.8e-05  1.031919  0.0
H  H34  1  0.20609007  0.39591794  0.08148072  1  0.097583  0.000687  0.106952  0.112495  6.8e-05  1.031854  0.0
H  H35  1  0.29390022  0.10409306  0.58148733  1  0.097607  0.000687  0.106938  0.112421  6.8e-05  1.031778  0.0
H  H36  1  0.67462212  0.19802833  0.87981504  1  0.129154  0.000584  0.1103  0.124253  -0.000247  1.020934  0.0
H  H37  1  0.82536985  0.30197243  0.37981455  1  0.129139  0.000584  0.110291  0.124221  -0.000247  1.020922  0.0
H  H38  1  0.32536206  0.80196614  0.12018454  1  0.129036  0.000584  0.110319  0.124265  -0.000247  1.020826  0.0
H  H39  1  0.17464658  0.69803402  0.62018431  1  0.129019  0.000584  0.110316  0.124222  -0.000247  1.020892  0.0
H  H40  1  0.56148479  0.12282808  0.93338939  1  0.098273  0.00135  0.116362  0.085304  0.000598  1.012368  0.001
H  H41  1  0.93850651  0.37716442  0.43338950  1  0.098488  0.00135  0.116354  0.085336  0.000598  1.012339  0.001
H  H42  1  0.43851000  0.87716424  0.06661020  1  0.098405  0.00135  0.116376  0.085353  0.000598  1.012311  0.001
H  H43  1  0.06150835  0.62284512  0.56660913  1  0.098647  0.00135  0.116317  0.085295  0.000598  1.012227  0.001
H  H44  1  0.32701755  0.97450441  0.69608244  1  0.172742  0.001129  0.117861  0.092467  0.000198  1.075057  0.001
H  H45  1  0.17299180  0.52552066  0.19608379  1  0.172687  0.001128  0.117815  0.09237  0.000197  1.075138  0.001
H  H46  1  0.67300538  0.02551222  0.30391834  1  0.172532  0.001129  0.11783  0.092407  0.000198  1.075062  0.001
H  H47  1  0.82699425  0.47448302  0.80391795  1  0.172571  0.001129  0.117813  0.092398  0.000197  1.075062  0.001
H  H48  1  0.20999727  0.88303130  0.74783866  1  0.138751  0.000653  0.106521  0.112112  6.6e-05  1.032366  0.0
H  H49  1  0.28999929  0.61699073  0.24784134  1  0.13845  0.000653  0.106461  0.112084  6.6e-05  1.032412  0.0
H  H50  1  0.79001234  0.11697420  0.25216020  1  0.137587  0.000653  0.106507  0.112153  6.6e-05  1.032322  0.0
H  H51  1  0.70999269  0.38301494  0.75215992  1  0.138521  0.000653  0.106487  0.112102  6.6e-05  1.03229  0.0
H  H52  1  0.33495911  0.28658690  0.78764364  1  0.111042  0.000581  0.110255  0.123826  -0.000231  1.018659  0.0
H  H53  1  0.16506008  0.21343056  0.28764286  1  0.1113  0.000581  0.110207  0.123782  -0.000232  1.018566  0.0
H  H54  1  0.66503865  0.71341461  0.21235810  1  0.111197  0.000581  0.110189  0.123735  -0.000232  1.018551  0.0
H  H55  1  0.83494885  0.78657699  0.71235840  1  0.111336  0.000581  0.11023  0.123806  -0.000232  1.018551  0.0
H  H56  1  0.44798509  0.36344031  0.73417953  1  0.108905  0.001235  0.116258  0.086211  0.000508  1.013636  0.001
H  H57  1  0.05203199  0.13657724  0.23417766  1  0.109165  0.001235  0.116253  0.086228  0.000508  1.013569  0.001
H  H58  1  0.55201806  0.63657139  0.26582365  1  0.109038  0.001235  0.116261  0.086241  0.000508  1.01361  0.001
H  H59  1  0.94797128  0.86342422  0.76582336  1  0.109142  0.001235  0.116234  0.08621  0.000508  1.013545  0.001
H  H60  1  0.44040557  0.72547135  0.92500624  1  0.106193  0.000869  0.112684  0.078875  0.000262  1.058908  0.0
H  H61  1  0.05961527  0.77452284  0.42500503  1  0.106624  0.000868  0.112692  0.078893  0.000262  1.058856  0.0
H  H62  1  0.55959466  0.27452604  0.07499430  1  0.106205  0.000869  0.112644  0.078811  0.000263  1.058943  0.0
H  H63  1  0.94039694  0.22546828  0.57499695  1  0.106363  0.000869  0.112649  0.078847  0.000262  1.058944  0.0
H  H64  1  0.56050886  0.79452801  0.87201516  1  0.08454  0.000869  0.114273  0.127623  0.000362  0.973127  0.0
H  H65  1  0.93950414  0.70546516  0.37201527  1  0.084914  0.000869  0.114285  0.127716  0.000362  0.972981  0.0
H  H66  1  0.43948953  0.20547657  0.12798515  1  0.084512  0.000869  0.114274  0.127667  0.000362  0.973102  0.0
H  H67  1  0.06050773  0.29451879  0.62798671  1  0.084469  0.000869  0.114299  0.1277  0.000362  0.973006  0.0
H  H68  1  0.94741330  0.99764943  0.92443584  1  0.101005  0.000738  0.105373  0.109816  0.000294  1.034759  0.0
H  H69  1  0.55260094  0.50234466  0.42443954  1  0.100945  0.000738  0.105353  0.109843  0.000294  1.03483  0.0
H  H70  1  0.05258831  0.00234384  0.07556446  1  0.100958  0.000738  0.10535  0.109815  0.000294  1.034717  0.0
H  H71  1  0.44739786  0.49766197  0.57556364  1  0.101029  0.000738  0.105333  0.109847  0.000294  1.034757  0.0
H  H72  1  0.81363565  0.91344219  0.97495747  1  0.100492  0.001394  0.121431  0.095706  0.000583  0.984793  0.0
H  H73  1  0.68638894  0.58655372  0.47496007  1  0.100706  0.001394  0.121393  0.095621  0.000583  0.984921  0.0
H  H74  1  0.18636981  0.08654285  0.02504307  1  0.100702  0.001394  0.121446  0.09568  0.000583  0.984832  0.0
H  H75  1  0.31361159  0.41345596  0.52504263  1  0.100792  0.001394  0.121455  0.095673  0.000583  0.984869  0.0
H  H76  1  0.18710109  0.01001145  0.86392558  1  0.177285  0.001153  0.117878  0.093451  0.000197  1.067825  0.001
H  H77  1  0.31290462  0.48999929  0.36392873  1  0.17747  0.001153  0.117807  0.093272  0.000197  1.068183  0.001
H  H78  1  0.81288288  0.98998200  0.13607376  1  0.177645  0.001153  0.117923  0.093477  0.000197  1.067834  0.001
H  H79  1  0.68710955  0.51001230  0.63607326  1  0.17734  0.001153  0.117866  0.093394  0.000197  1.067955  0.001
H  H80  1  0.29909756  0.10490724  0.91583579  1  0.131017  0.000674  0.106981  0.113458  6.9e-05  1.030081  0.0
H  H81  1  0.20091479  0.39509822  0.41583830  1  0.131093  0.000674  0.106979  0.113518  6.8e-05  1.030021  0.0
H  H82  1  0.70090047  0.89509017  0.08416259  1  0.131002  0.000674  0.106993  0.11353  6.8e-05  1.030017  0.0
H  H83  1  0.79909614  0.60490829  0.58416200  1  0.131054  0.000674  0.106977  0.113482  6.8e-05  1.030012  0.0
H  H84  1  0.16594705  0.70520529  0.95723901  1  0.119035  0.000509  0.112112  0.12683  -0.000223  1.007983  0.0
H  H85  1  0.33408397  0.79479142  0.45724544  1  0.119364  0.000509  0.112039  0.12676  -0.000223  1.00804  0.0
H  H86  1  0.83406070  0.29479100  0.04276153  1  0.119043  0.000509  0.112094  0.126792  -0.000223  1.007971  0.0
H  H87  1  0.66592240  0.20520898  0.54275893  1  0.119051  0.000509  0.112115  0.126851  -0.000223  1.008038  0.0
H  H88  1  0.05790032  0.62495421  0.90360726  1  0.113225  0.001149  0.115826  0.085245  0.000462  1.016876  0.001
H  H89  1  0.44212234  0.87504982  0.40361239  1  0.11339  0.001149  0.11583  0.085231  0.000462  1.016804  0.001
H  H90  1  0.94209467  0.37503913  0.09639352  1  0.113279  0.001149  0.115848  0.085277  0.000462  1.01685  0.001
H  H91  1  0.55788879  0.12495771  0.59639150  1  0.11347  0.001149  0.11583  0.085253  0.000462  1.016818  0.001
H  H92  1  0.94655980  0.21889186  0.90593299  1  0.126433  0.000925  0.113741  0.07994  0.000327  1.058183  0.0
H  H93  1  0.55342858  0.28110223  0.40593036  1  0.12668  0.000925  0.113767  0.079947  0.000327  1.058284  0.0
H  H94  1  0.05341701  0.78110986  0.09406635  1  0.126668  0.000925  0.113704  0.079863  0.000327  1.05823  0.0
H  H95  1  0.44657365  0.71889411  0.59406659  1  0.126597  0.000925  0.11371  0.079825  0.000327  1.058368  0.0
H  H96  1  0.06414938  0.29645525  0.95878401  1  0.096205  0.000867  0.115045  0.128861  0.000342  0.97282  0.0
H  H97  1  0.43584604  0.20353576  0.45878173  1  0.096407  0.000867  0.115065  0.128949  0.000342  0.972805  0.0
H  H98  1  0.93583487  0.70353410  0.04121486  1  0.09629  0.000868  0.115074  0.128876  0.000342  0.972856  0.0
H  H99  1  0.56415815  0.79648106  0.54121546  1  0.096314  0.000867  0.115043  0.128854  0.000342  0.972913  0.0
H  H100  1  0.44612211  0.50566937  0.90587664  1  0.103724  0.000754  0.105787  0.110752  0.000325  1.031472  0.0
H  H101  1  0.05387783  0.99431034  0.40587526  1  0.103429  0.000754  0.105817  0.110747  0.000325  1.031598  0.0
H  H102  1  0.55386302  0.49431894  0.09412223  1  0.10366  0.000754  0.105847  0.110791  0.000325  1.031803  0.0
H  H103  1  0.94613197  0.00567978  0.59412385  1  0.103737  0.000754  0.105825  0.110765  0.000325  1.031704  0.0
H  H104  1  0.31631133  0.41248098  0.85564007  1  0.081631  0.001496  0.121881  0.093746  0.000676  0.981116  0.0
H  H105  1  0.18368000  0.08750619  0.35563956  1  0.081662  0.001497  0.12186  0.093637  0.000676  0.981234  0.0
H  H106  1  0.68366844  0.58751354  0.14435880  1  0.081116  0.001497  0.121916  0.093679  0.000676  0.981161  0.0
H  H107  1  0.81632051  0.91248709  0.64435979  1  0.081477  0.001497  0.121901  0.093727  0.000676  0.981139  0.0
C  C108  1  0.45225059  0.70889688  0.74251095  1  0.419571  0.006025  0.044686  0.084026  0.004524  3.962674  0.003
C  C109  1  0.04775394  0.79110344  0.24251099  1  0.419616  0.006022  0.044673  0.083993  0.004521  3.962581  0.003
C  C110  1  0.54774413  0.29110056  0.25748791  1  0.419691  0.006026  0.044666  0.084041  0.004524  3.962718  0.003
C  C111  1  0.95226277  0.20889890  0.75748668  1  0.42006  0.006022  0.044766  0.084161  0.004522  3.962488  0.003
C  C112  1  0.38651733  0.66773747  0.77182738  1  -0.037174  0.004922  -0.079534  -0.149691  0.003469  3.942241  0.003
C  C113  1  0.11348453  0.83226135  0.27182829  1  -0.037713  0.004925  -0.079523  -0.149661  0.003472  3.942151  0.003
C  C114  1  0.61347147  0.33225798  0.22817053  1  -0.03723  0.004924  -0.079556  -0.149706  0.003471  3.942402  0.003
C  C115  1  0.88652997  0.16774101  0.72816913  1  -0.037174  0.004924  -0.079613  -0.149839  0.003471  3.942274  0.003
C  C116  1  0.24422801  0.58576462  0.77223628  1  -0.081461  0.010033  0.01085  0.025611  0.006955  3.937503  0.005
C  C117  1  0.25577920  0.91422801  0.27223631  1  -0.081395  0.010031  0.010847  0.0257  0.006954  3.937401  0.005
C  C118  1  0.75576162  0.41423493  0.22776331  1  -0.08127  0.010034  0.010904  0.025774  0.006957  3.937295  0.005
C  C119  1  0.74423468  0.08577129  0.72776327  1  -0.081104  0.010031  0.010791  0.025753  0.006954  3.937441  0.005
C  C120  1  0.17241670  0.55305150  0.74278838  1  -0.007331  0.00463  -0.083152  -0.160281  0.003192  3.957811  0.003
C  C121  1  0.32759456  0.94693852  0.24278952  1  -0.006758  0.004632  -0.08316  -0.160292  0.003194  3.957932  0.003
C  C122  1  0.82757018  0.44695627  0.25721097  1  -0.007295  0.004629  -0.083321  -0.160577  0.003192  3.958081  0.003
C  C123  1  0.67242621  0.05305662  0.75721055  1  -0.007584  0.004631  -0.083223  -0.16053  0.003193  3.958004  0.003
C  C124  1  0.24455780  0.60179867  0.71459968  1  0.502733  0.006858  0.054119  0.101052  0.005223  3.943009  0.004
C  C125  1  0.25545677  0.89819081  0.21459970  1  0.502812  0.006855  0.054111  0.100953  0.005221  3.942927  0.004
C  C126  1  0.75543281  0.39821111  0.28539966  1  0.502747  0.00686  0.054188  0.101119  0.005224  3.942888  0.004
C  C127  1  0.74456930  0.10180325  0.78539965  1  0.50285  0.006857  0.054188  0.101185  0.005223  3.942881  0.004
C  C128  1  0.17551841  0.52980426  0.80348248  1  1.582947  0.03194  0.226331  0.581964  0.030471  4.202508  0.027
C  C129  1  0.32447635  0.97018803  0.30348486  1  1.582903  0.03195  0.226393  0.582071  0.030483  4.202247  0.027
C  C130  1  0.82447149  0.47019118  0.19651447  1  1.583051  0.031942  0.226404  0.582086  0.030475  4.202168  0.027
C  C131  1  0.67552300  0.02981039  0.69651449  1  1.58302  0.031949  0.226304  0.581859  0.030483  4.20233  0.027
C  C132  1  0.67846364  0.44699814  0.94983166  1  0.433013  0.005561  0.042921  0.080336  0.004332  3.925594  0.003
C  C133  1  0.82153086  0.05298642  0.44982820  1  0.433368  0.005563  0.04278  0.080073  0.004333  3.925209  0.003
C  C134  1  0.32152748  0.55298704  0.05016888  1  0.433095  0.005561  0.042966  0.080559  0.004331  3.925515  0.003
C  C135  1  0.17847050  0.94702735  0.55017258  1  0.433421  0.005563  0.042751  0.080123  0.004333  3.925655  0.003
C  C136  1  0.74316106  0.49675610  0.92098278  1  -0.028916  0.006372  -0.082949  -0.148708  0.004457  3.964916  0.004
C  C137  1  0.75683561  0.00323305  0.42097818  1  -0.028807  0.006375  -0.082697  -0.148309  0.004459  3.964203  0.004
C  C138  1  0.25683158  0.50323112  0.07901729  1  -0.028444  0.006373  -0.082911  -0.148753  0.004458  3.964727  0.004
C  C139  1  0.24316202  0.99677871  0.57902093  1  -0.028698  0.006372  -0.082761  -0.148243  0.004456  3.964002  0.004
C  C140  1  0.74304085  0.40730317  0.89515040  1  -0.015033  0.007678  -0.001163  -0.002553  0.005396  3.966859  0.004
C  C141  1  0.75695237  0.09269068  0.39514760  1  -0.015729  0.00768  -0.001296  -0.002764  0.005398  3.966728  0.004
C  C142  1  0.25695069  0.59268405  0.10484990  1  -0.015371  0.007679  -0.001167  -0.002479  0.005397  3.966676  0.004
C  C143  1  0.24304664  0.90731697  0.60485222  1  -0.015711  0.007682  -0.00116  -0.002641  0.005399  3.966636  0.004
C  C144  1  0.67435843  0.27069595  0.89932604  1  -0.028134  0.004785  -0.080692  -0.148567  0.003377  3.956716  0.003
C  C145  1  0.82563353  0.22929798  0.39932473  1  -0.027757  0.004786  -0.080666  -0.148448  0.003379  3.956664  0.003
C  C146  1  0.32562981  0.72929130  0.10067355  1  -0.027491  0.004787  -0.080757  -0.148643  0.003379  3.956617  0.003
C  C147  1  0.17437451  0.77071060  0.60067485  1  -0.027486  0.004785  -0.080775  -0.14863  0.003378  3.956926  0.003
C  C148  1  0.61307969  0.22888346  0.92900646  1  0.439508  0.006732  0.047867  0.089842  0.00506  3.94366  0.004
C  C149  1  0.88691227  0.27110588  0.42900533  1  0.43843  0.006735  0.047878  0.089713  0.005062  3.943729  0.004
C  C150  1  0.38691427  0.77110477  0.07099312  1  0.438596  0.006735  0.047885  0.089805  0.005062  3.943556  0.004
C  C151  1  0.11309597  0.72890372  0.57099401  1  0.43848  0.006737  0.047959  0.089905  0.005063  3.94365  0.004
C  C152  1  0.82034597  0.45557259  0.86417210  1  1.606302  0.030369  0.224529  0.584155  0.028542  4.176902  0.026
C  C153  1  0.67964820  0.04442479  0.36416914  1  1.606339  0.030379  0.224383  0.58389  0.028554  4.177041  0.026
C  C154  1  0.17964516  0.54441258  0.13582749  1  1.606335  0.030373  0.224458  0.583994  0.028547  4.176893  0.026
C  C155  1  0.32035626  0.95558792  0.63583068  1  1.606161  0.030376  0.224392  0.58376  0.02855  4.177225  0.026
C  C156  1  0.32599476  0.04110130  0.71685612  1  0.440525  0.005743  0.043189  0.081208  0.004403  3.922624  0.003
C  C157  1  0.17401675  0.45892317  0.21685709  1  0.44181  0.005737  0.043407  0.081555  0.0044  3.92263  0.003
C  C158  1  0.67402314  0.95891231  0.28314466  1  0.441359  0.00574  0.04333  0.081311  0.004403  3.922604  0.003
C  C159  1  0.82598054  0.54108142  0.78314393  1  0.441722  0.005739  0.043349  0.081394  0.004401  3.922676  0.003
C  C160  1  0.26170045  0.99022832  0.74566470  1  -0.05551  0.006154  -0.083495  -0.1505  0.004303  3.963192  0.003
C  C161  1  0.23830784  0.50979662  0.24566590  1  -0.057084  0.006157  -0.083418  -0.150485  0.004304  3.963387  0.003
C  C162  1  0.73831551  0.00978121  0.25433536  1  -0.055262  0.006156  -0.083511  -0.150579  0.004304  3.963367  0.003
C  C163  1  0.76169185  0.49020897  0.75433488  1  -0.056796  0.006156  -0.083449  -0.150448  0.004303  3.963364  0.003
C  C164  1  0.26405231  0.07826020  0.77183380  1  -0.000764  0.007806  0.000122  -0.000167  0.005458  3.963377  0.004
C  C165  1  0.23595752  0.42176219  0.27183389  1  -0.00014  0.007802  1.4e-05  -0.000355  0.005455  3.963383  0.004
C  C166  1  0.73595552  0.92174736  0.22816674  1  -0.000552  0.007807  0.000127  -0.000106  0.005458  3.963364  0.004
C  C167  1  0.76404859  0.57824231  0.72816642  1  -0.00025  0.007804  7.2e-05  -0.000281  0.005456  3.963541  0.004
C  C168  1  0.33364991  0.21476710  0.76791889  1  -0.052627  0.004935  -0.081162  -0.149338  0.003478  3.95872  0.003
C  C169  1  0.16637040  0.28525717  0.26791845  1  -0.061304  0.004945  -0.081097  -0.149221  0.00348  3.958339  0.003
C  C170  1  0.66635875  0.78524455  0.23208261  1  -0.061634  0.004944  -0.081056  -0.149134  0.003479  3.958381  0.003
C  C171  1  0.83363790  0.71474731  0.73208210  1  -0.0614  0.004944  -0.081073  -0.14919  0.003479  3.95836  0.003
C  C172  1  0.39480822  0.25764459  0.73829358  1  0.436638  0.006553  0.047941  0.089408  0.00495  3.946449  0.004
C  C173  1  0.10520823  0.24237611  0.23829176  1  0.445396  0.006545  0.048016  0.089382  0.00495  3.946393  0.004
C  C174  1  0.60520175  0.74236807  0.26170936  1  0.445658  0.006547  0.047903  0.089181  0.004953  3.946579  0.004
C  C175  1  0.89479725  0.75762532  0.76170854  1  0.445352  0.006545  0.047962  0.089339  0.00495  3.946499  0.004
C  C176  1  0.18951854  0.02871903  0.80301100  1  1.596894  0.030673  0.223183  0.582953  0.028712  4.180283  0.026
C  C177  1  0.31048282  0.47130092  0.30301077  1  1.596906  0.030673  0.223227  0.58296  0.028712  4.180541  0.026
C  C178  1  0.81048392  0.97129473  0.19699050  1  1.596668  0.030677  0.223119  0.582851  0.028714  4.180567  0.026
C  C179  1  0.68951776  0.52870364  0.69698953  1  1.597303  0.030674  0.223117  0.582801  0.028715  4.180733  0.026
C  C180  1  0.55280470  0.78568178  0.92362706  1  0.447933  0.006149  0.043827  0.083223  0.004627  3.966182  0.004
C  C181  1  0.94721026  0.71431023  0.42362670  1  0.447943  0.006147  0.04362  0.082965  0.004626  3.966261  0.004
C  C182  1  0.44719333  0.21431563  0.07637324  1  0.447983  0.006148  0.043828  0.083176  0.004626  3.96629  0.004
C  C183  1  0.05279431  0.28567584  0.57637504  1  0.448235  0.006143  0.043854  0.083229  0.004623  3.966095  0.004
C  C184  1  0.61997962  0.82458140  0.89431160  1  0.07695  0.004617  -0.080444  -0.152044  0.003313  3.944823  0.003
C  C185  1  0.88002809  0.67541221  0.39431131  1  0.076016  0.004617  -0.080391  -0.152075  0.003313  3.944514  0.003
C  C186  1  0.38001745  0.17542216  0.10568870  1  0.076796  0.004619  -0.080445  -0.15203  0.003314  3.944801  0.003
C  C187  1  0.11997427  0.32457388  0.60569019  1  0.076596  0.004619  -0.080487  -0.152153  0.003314  3.944735  0.003
C  C188  1  0.76363146  0.90414973  0.89390485  1  -0.084617  0.010172  0.010162  0.024443  0.007109  3.940538  0.005
C  C189  1  0.73637426  0.59584492  0.39390545  1  -0.083696  0.010169  0.010184  0.024643  0.007107  3.940496  0.005
C  C190  1  0.23636299  0.09585182  0.10609569  1  -0.084314  0.010176  0.01015  0.024292  0.007112  3.94045  0.005
C  C191  1  0.26362452  0.40414530  0.60609581  1  -0.084092  0.01017  0.010188  0.024636  0.007107  3.940446  0.005
C  C192  1  0.83493251  0.93714566  0.92339229  1  -0.021404  0.004197  -0.084122  -0.160772  0.002884  3.960563  0.002
C  C193  1  0.66508109  0.56285047  0.42339298  1  -0.021659  0.004197  -0.084137  -0.161101  0.002884  3.960675  0.002
C  C194  1  0.16506662  0.06285174  0.07660801  1  -0.021579  0.004198  -0.084086  -0.160687  0.002884  3.960501  0.002
C  C195  1  0.33491998  0.43715101  0.57660780  1  -0.021696  0.004198  -0.084095  -0.160952  0.002885  3.960544  0.002
C  C196  1  0.76120762  0.89083391  0.95158962  1  0.457835  0.006829  0.053739  0.099259  0.005113  3.942399  0.004
C  C197  1  0.73881238  0.60916163  0.45159095  1  0.457512  0.00683  0.053904  0.099644  0.005112  3.942237  0.004
C  C198  1  0.23879447  0.10915628  0.04841069  1  0.457601  0.00683  0.053725  0.099303  0.005114  3.942607  0.004
C  C199  1  0.26118959  0.39083882  0.54841127  1  0.457592  0.006825  0.053742  0.09941  0.005109  3.942421  0.004
C  C200  1  0.83414439  0.95751567  0.86261024  1  1.58086  0.031349  0.22716  0.585391  0.029774  4.203058  0.026
C  C201  1  0.66585666  0.54249282  0.36261258  1  1.580721  0.03133  0.227183  0.585353  0.029756  4.203574  0.026
C  C202  1  0.16584773  0.04249614  0.13739222  1  1.58096  0.031347  0.227104  0.585283  0.029776  4.202992  0.026
C  C203  1  0.33414221  0.45750868  0.63739060  1  1.580896  0.031345  0.226921  0.58496  0.029773  4.203407  0.026
C  C204  1  0.18570408  0.94494760  0.88505255  1  0.417433  0.006049  0.04333  0.081602  0.004639  3.92707  0.003
C  C205  1  0.31430319  0.55505831  0.38505463  1  0.417557  0.006043  0.043491  0.081841  0.004634  3.927404  0.003
C  C206  1  0.81428754  0.05505090  0.11494775  1  0.417392  0.006045  0.04331  0.081675  0.004637  3.927084  0.003
C  C207  1  0.68570595  0.44495026  0.61494640  1  0.417384  0.006047  0.043328  0.081704  0.004637  3.927118  0.003
C  C208  1  0.24709226  0.99770081  0.91394524  1  -0.072248  0.006936  -0.083169  -0.151389  0.004877  3.963364  0.004
C  C209  1  0.25291415  0.50230152  0.41394736  1  -0.072015  0.006938  -0.083265  -0.151483  0.004879  3.963389  0.004
C  C210  1  0.75290467  0.00229661  0.08605411  1  -0.071993  0.006935  -0.083326  -0.151603  0.004876  3.963455  0.004
C  C211  1  0.74708802  0.49769994  0.58605343  1  -0.07221  0.00693  -0.083247  -0.151423  0.004872  3.963552  0.004
C  C212  1  0.24152996  0.91181364  0.94064211  1  -0.065661  0.008223  -0.000645  -0.000272  0.005697  3.955972  0.004
C  C213  1  0.25847284  0.58818203  0.44064505  1  -0.037758  0.008109  -0.000595  -0.000432  0.005693  3.956021  0.004
C  C214  1  0.75847379  0.08818474  0.05935724  1  -0.066102  0.008219  -0.0006  -0.000526  0.005694  3.956027  0.004
C  C215  1  0.74152099  0.41181644  0.55935669  1  -0.065664  0.008218  -0.000484  -0.00034  0.005694  3.95596  0.004
C  C216  1  0.17070789  0.77550948  0.93712566  1  -0.016491  0.006047  -0.079386  -0.148081  0.004304  3.955963  0.003
C  C217  1  0.32930738  0.72448703  0.43713009  1  -0.01706  0.006048  -0.079407  -0.148033  0.004304  3.956112  0.003
C  C218  1  0.82929386  0.22448994  0.06287512  1  -0.016379  0.006046  -0.07936  -0.147899  0.004303  3.956008  0.003
C  C219  1  0.67069485  0.27550931  0.56287213  1  -0.016654  0.006046  -0.079401  -0.148032  0.004302  3.956176  0.003
C  C220  1  0.11222427  0.73065558  0.90737220  1  0.467967  0.006416  0.047767  0.089224  0.004825  3.945384  0.004
C  C221  1  0.38778901  0.76934657  0.40737538  1  0.467793  0.006411  0.047863  0.08929  0.004822  3.945446  0.004
C  C222  1  0.88777066  0.26934288  0.09262762  1  0.46787  0.006408  0.047743  0.089177  0.004819  3.945507  0.004
C  C223  1  0.61221599  0.23065795  0.59262636  1  0.467743  0.00641  0.047815  0.08926  0.004821  3.94574  0.004
C  C224  1  0.31405018  0.96503000  0.97181348  1  1.597004  0.034968  0.221364  0.580277  0.033132  4.191584  0.029
C  C225  1  0.18595512  0.53496824  0.47181745  1  1.568848  0.035079  0.221564  0.580591  0.033134  4.191135  0.029
C  C226  1  0.68595694  0.03496321  0.02818370  1  1.596995  0.034965  0.221664  0.580834  0.033127  4.190847  0.029
C  C227  1  0.81404622  0.46502913  0.52818357  1  1.596942  0.034957  0.221521  0.580512  0.03312  4.191208  0.029
C  C228  1  0.05725109  0.28242768  0.90720565  1  0.482419  0.005931  0.044234  0.082003  0.00459  3.964387  0.003
C  C229  1  0.44273856  0.21756760  0.40720433  1  0.4821  0.00593  0.044224  0.081974  0.004589  3.964406  0.003
C  C230  1  0.94273177  0.71756578  0.09279298  1  0.482362  0.00593  0.044291  0.082071  0.004589  3.964312  0.003
C  C231  1  0.55726024  0.78243902  0.59279357  1  0.481957  0.005932  0.044315  0.082121  0.00459  3.964271  0.003
C  C232  1  0.12247606  0.32636386  0.93636336  1  -0.035082  0.004002  -0.079261  -0.148656  0.002737  3.945505  0.002
C  C233  1  0.37751672  0.17362576  0.43636116  1  -0.035085  0.004003  -0.079247  -0.148791  0.002737  3.945689  0.002
C  C234  1  0.87750997  0.67362342  0.06363647  1  -0.035181  0.004001  -0.079333  -0.148705  0.002736  3.945605  0.002
C  C235  1  0.62248511  0.82638493  0.56363675  1  -0.034742  0.004001  -0.079311  -0.148734  0.002736  3.945667  0.002
C  C236  1  0.26386870  0.41001717  0.93651281  1  -0.084641  0.008935  0.010055  0.023852  0.006168  3.945414  0.005
C  C237  1  0.23612456  0.08996937  0.43651029  1  -0.083112  0.008932  0.009954  0.02378  0.006168  3.945275  0.005
C  C238  1  0.73612181  0.58996494  0.06348653  1  -0.083538  0.008932  0.010113  0.02388  0.006167  3.945074  0.005
C  C239  1  0.76387445  0.91003827  0.56348714  1  -0.083218  0.008932  0.010048  0.02383  0.006168  3.945245  0.005
C  C240  1  0.33513273  0.44242263  0.90703271  1  -0.013732  0.004132  -0.082446  -0.159278  0.002841  3.95608  0.002
C  C241  1  0.16486147  0.05756235  0.40703004  1  -0.01464  0.004134  -0.082441  -0.159196  0.002842  3.956086  0.002
C  C242  1  0.66485178  0.55756262  0.09296688  1  -0.015133  0.004134  -0.082496  -0.159252  0.002842  3.956288  0.002
C  C243  1  0.83514159  0.94243808  0.59296739  1  -0.015015  0.004134  -0.082544  -0.159345  0.002842  3.956137  0.002
C  C244  1  0.26350985  0.39075205  0.87899386  1  0.545436  0.00655  0.055147  0.104763  0.004971  3.940286  0.004
C  C245  1  0.23647988  0.10923760  0.37899256  1  0.545282  0.006548  0.055218  0.104849  0.004969  3.940542  0.004
C  C246  1  0.73647350  0.60923833  0.12100549  1  0.546119  0.006548  0.055161  0.104907  0.004969  3.940481  0.004
C  C247  1  0.76351767  0.89076289  0.62100583  1  0.54556  0.006549  0.055193  0.104795  0.00497  3.940412  0.004
C  C248  1  0.33275683  0.46343878  0.96787279  1  1.603052  0.028307  0.228874  0.585029  0.026721  4.19303  0.024
C  C249  1  0.16724160  0.03654724  0.46787272  1  1.602075  0.028323  0.229033  0.585151  0.026732  4.192619  0.024
C  C250  1  0.66723863  0.53653508  0.03212608  1  1.602921  0.028319  0.228754  0.584914  0.026731  4.193124  0.024
C  C251  1  0.83275783  0.96346245  0.53212734  1  1.60255  0.02832  0.22893  0.585022  0.02673  4.193049  0.024
N  N252  1  0.38354705  0.67711621  0.71416011  1  -1.247656  0.05184  -0.314593  -0.247106  0.036535  3.47566  0.021
N  N253  1  0.11646542  0.82288456  0.21416029  1  -1.247923  0.051847  -0.314638  -0.247152  0.036536  3.475564  0.021
N  N254  1  0.61644472  0.32288844  0.28583780  1  -1.247752  0.051846  -0.314627  -0.247135  0.036537  3.475461  0.021
N  N255  1  0.88355418  0.17711571  0.78583714  1  -1.248271  0.051844  -0.314665  -0.247225  0.036535  3.475636  0.021
N  N256  1  0.61471916  0.31496385  0.95403629  1  -1.273406  0.052542  -0.312964  -0.240819  0.036583  3.47988  0.021
N  N257  1  0.88527450  0.18502284  0.45403433  1  -1.272797  0.052539  -0.312961  -0.240781  0.036592  3.479752  0.021
N  N258  1  0.38527921  0.68502433  0.04596353  1  -1.272967  0.052537  -0.312994  -0.240908  0.036584  3.47976  0.021
N  N259  1  0.11472844  0.81498784  0.54596526  1  -1.273129  0.05254  -0.31297  -0.2408  0.036589  3.479789  0.021
N  N260  1  0.39173199  0.17281548  0.71298770  1  -1.281101  0.052314  -0.311957  -0.241551  0.036505  3.473721  0.021
N  N261  1  0.10828318  0.32720991  0.21298670  1  -1.281771  0.052316  -0.3121  -0.241656  0.036505  3.47379  0.021
N  N262  1  0.60828302  0.82720021  0.28701500  1  -1.281456  0.052314  -0.312033  -0.241453  0.036503  3.473728  0.021
N  N263  1  0.89171761  0.67279567  0.78701432  1  -1.281696  0.052309  -0.312036  -0.241578  0.036501  3.473832  0.021
N  N264  1  0.62108634  0.81765830  0.95201625  1  -1.25002  0.050681  -0.314132  -0.24702  0.035625  3.470052  0.02
N  N265  1  0.87893405  0.68233929  0.45201813  1  -1.250479  0.050688  -0.314079  -0.247036  0.035626  3.469939  0.02
N  N266  1  0.37891285  0.18233397  0.04798405  1  -1.249958  0.050683  -0.314134  -0.247038  0.035627  3.470275  0.02
N  N267  1  0.12107411  0.31765904  0.54798529  1  -1.250508  0.050693  -0.314144  -0.247132  0.035628  3.46987  0.02
N  N268  1  0.11922207  0.81316595  0.88155168  1  -1.258938  0.052612  -0.311142  -0.243378  0.03689  3.470456  0.021
N  N269  1  0.38077968  0.68683380  0.38155452  1  -1.258879  0.0526  -0.311226  -0.243404  0.03689  3.470816  0.021
N  N270  1  0.88076562  0.18682951  0.11844694  1  -1.259064  0.052594  -0.311138  -0.243428  0.036888  3.470641  0.021
N  N271  1  0.61922207  0.31316562  0.61844626  1  -1.258823  0.052605  -0.311265  -0.243591  0.036889  3.470769  0.021
N  N272  1  0.12576700  0.31327915  0.87880103  1  -1.269722  0.051191  -0.31491  -0.244859  0.035835  3.478542  0.02
N  N273  1  0.37421744  0.18671157  0.37880029  1  -1.269585  0.051187  -0.314951  -0.244784  0.035831  3.478463  0.02
N  N274  1  0.87421436  0.68671227  0.12119784  1  -1.269541  0.051188  -0.314973  -0.244959  0.035838  3.478511  0.02
N  N275  1  0.62577770  0.81328791  0.62119858  1  -1.269484  0.051177  -0.314919  -0.244737  0.035832  3.478404  0.02
O  O276  1  0.16901359  0.61131800  0.82657629  1  -1.195298  0.059391  -0.311061  -0.560703  0.040504  2.316933  0.023
O  O277  1  0.33098413  0.88868287  0.32657711  1  -1.195467  0.059418  -0.311032  -0.560653  0.040509  2.317277  0.023
O  O278  1  0.83098769  0.38868450  0.17342401  1  -1.195475  0.05941  -0.310997  -0.560605  0.040507  2.3174  0.023
O  O279  1  0.66900964  0.11132073  0.67342319  1  -1.195529  0.0594  -0.310986  -0.560571  0.040505  2.317219  0.023
O  O280  1  0.13370359  0.40075641  0.80406691  1  -1.174732  0.068449  -0.296414  -0.552298  0.050088  2.380781  0.034
O  O281  1  0.36628669  0.09924728  0.30406774  1  -1.174662  0.068457  -0.296468  -0.552472  0.050091  2.380473  0.034
O  O282  1  0.86628434  0.59925648  0.19593196  1  -1.174749  0.068442  -0.296465  -0.552539  0.050088  2.380514  0.034
O  O283  1  0.63371575  0.90075008  0.69593184  1  -1.174725  0.068459  -0.296415  -0.552391  0.050091  2.380605  0.034
O  O284  1  0.86305108  0.58346271  0.86100295  1  -1.197853  0.070927  -0.300778  -0.551764  0.051957  2.332636  0.038
O  O285  1  0.63694369  0.91654172  0.36100011  1  -1.197856  0.070926  -0.300726  -0.551631  0.051958  2.332747  0.038
O  O286  1  0.13695529  0.41653769  0.13899831  1  -1.198046  0.070921  -0.300673  -0.551538  0.051952  2.332949  0.038
O  O287  1  0.36304996  0.08347213  0.63899996  1  -1.197832  0.070924  -0.300759  -0.551604  0.051953  2.332812  0.038
O  O288  1  0.83662127  0.36399192  0.84368407  1  -1.207002  0.057712  -0.312726  -0.560131  0.040048  2.361516  0.022
O  O289  1  0.66337075  0.13601230  0.34368104  1  -1.207041  0.057715  -0.312636  -0.55994  0.040048  2.361514  0.022
O  O290  1  0.16336023  0.63600565  0.15631599  1  -1.207025  0.057728  -0.31277  -0.560224  0.040052  2.361176  0.022
O  O291  1  0.33663833  0.86400140  0.65631807  1  -1.207033  0.057731  -0.312587  -0.559843  0.040047  2.361486  0.022
O  O292  1  0.15331660  0.90037469  0.80664356  1  -1.179135  0.069271  -0.300074  -0.55114  0.050872  2.327987  0.037
O  O293  1  0.34667253  0.59963410  0.30664611  1  -1.179288  0.069273  -0.300127  -0.551202  0.050874  2.328448  0.037
O  O294  1  0.84667764  0.09962583  0.19335722  1  -1.179314  0.069285  -0.300091  -0.551176  0.050875  2.328386  0.037
O  O295  1  0.65332723  0.40036636  0.69335563  1  -1.179437  0.069284  -0.30007  -0.55119  0.050876  2.328363  0.037
O  O296  1  0.16957473  0.11980944  0.82332673  1  -1.210622  0.059189  -0.312933  -0.562471  0.041303  2.365782  0.024
O  O297  1  0.33043079  0.38020264  0.32332634  1  -1.210407  0.059185  -0.312965  -0.562406  0.0413  2.365604  0.024
O  O298  1  0.83042890  0.88019919  0.17667285  1  -1.210096  0.059182  -0.312895  -0.562386  0.041301  2.365629  0.024
O  O299  1  0.66956477  0.61979889  0.67667421  1  -1.210661  0.059189  -0.312953  -0.562363  0.041306  2.365808  0.024
O  O300  1  0.84542932  0.87380424  0.84025090  1  -1.195866  0.059568  -0.31041  -0.5613  0.041033  2.320317  0.024
O  O301  1  0.65455784  0.62618555  0.34025554  1  -1.195829  0.059547  -0.310563  -0.561341  0.041024  2.320895  0.024
O  O302  1  0.15455527  0.12619228  0.15974868  1  -1.196103  0.05956  -0.310339  -0.561078  0.04103  2.320692  0.024
O  O303  1  0.34543034  0.37380684  0.65974812  1  -1.196037  0.059564  -0.310266  -0.561011  0.041027  2.320649  0.024
O  O304  1  0.87216497  0.08682477  0.86123434  1  -1.17297  0.067009  -0.297031  -0.551191  0.048856  2.377413  0.033
O  O305  1  0.62783151  0.41317255  0.36123582  1  -1.172893  0.067017  -0.296927  -0.551162  0.048846  2.377275  0.033
O  O306  1  0.12782961  0.91316653  0.13876525  1  -1.172921  0.067025  -0.296959  -0.551134  0.048849  2.376929  0.033
O  O307  1  0.37216515  0.58682897  0.63876569  1  -1.17291  0.067019  -0.296932  -0.551062  0.048848  2.377178  0.033
O  O308  1  0.33734455  0.87862503  0.99288774  1  -1.201439  0.064819  -0.316873  -0.56889  0.044947  2.337144  0.027
O  O309  1  0.16267405  0.62137244  0.49289307  1  -1.201536  0.06481  -0.316929  -0.569023  0.044939  2.337171  0.027
O  O310  1  0.66266511  0.12135894  0.00710969  1  -1.201521  0.064826  -0.316916  -0.568965  0.044948  2.337215  0.027
O  O311  1  0.83732806  0.37863415  0.50710891  1  -1.201514  0.064805  -0.316832  -0.568893  0.044937  2.3373  0.027
O  O312  1  0.34588007  0.09439049  0.97444335  1  -1.184681  0.073552  -0.304919  -0.55729  0.053189  2.364167  0.038
O  O313  1  0.15409902  0.40560506  0.47444285  1  -1.184684  0.073558  -0.305053  -0.557414  0.053198  2.363976  0.038
O  O314  1  0.65412855  0.90558836  0.02555767  1  -1.184596  0.073541  -0.30512  -0.557614  0.053186  2.363601  0.038
O  O315  1  0.84589358  0.59440367  0.52555865  1  -1.184586  0.073531  -0.305115  -0.557497  0.053186  2.363775  0.038
O  O316  1  0.33707499  0.37670921  0.99005729  1  -1.204074  0.054796  -0.304928  -0.550103  0.037771  2.355759  0.021
O  O317  1  0.16291059  0.12328349  0.49005615  1  -1.203875  0.054814  -0.305085  -0.55023  0.037782  2.355538  0.021
O  O318  1  0.66292504  0.62328716  0.00994157  1  -1.203805  0.054812  -0.304989  -0.550292  0.03778  2.35546  0.021
O  O319  1  0.83708765  0.87671494  0.50994295  1  -1.203789  0.054809  -0.305033  -0.550198  0.037782  2.355391  0.021
O  O320  1  0.37645777  0.59163673  0.96982155  1  -1.195172  0.064782  -0.292629  -0.548455  0.04805  2.353904  0.033
O  O321  1  0.12355793  0.90834703  0.46982136  1  -1.194794  0.064777  -0.292664  -0.548443  0.048057  2.353988  0.033
O  O322  1  0.62355314  0.40835337  0.03017492  1  -1.195519  0.064807  -0.292483  -0.548173  0.04805  2.354509  0.033
O  O323  1  0.87643397  0.09164737  0.53017463  1  -1.195363  0.064798  -0.292619  -0.548348  0.048049  2.354423  0.033
