# generated using pymatgen
data_Mn2H15C19(NO5)3
_symmetry_space_group_name_H-M   'P 1'
_cell_length_a   13.09972466
_cell_length_b   15.32830024
_cell_length_c   15.32773096
_cell_angle_alpha   67.19640788
_cell_angle_beta   76.34821535
_cell_angle_gamma   76.34139427
_symmetry_Int_Tables_number   1
_chemical_formula_structural   Mn2H15C19(NO5)3
_chemical_formula_sum   'Mn8 H60 C76 N12 O60'
_cell_volume   2720.85049766
_cell_formula_units_Z   4
loop_
 _symmetry_equiv_pos_site_id
 _symmetry_equiv_pos_as_xyz
  1  'x, y, z'
loop_
 _atom_site_type_symbol
 _atom_site_label
 _atom_site_symmetry_multiplicity
 _atom_site_fract_x
 _atom_site_fract_y
 _atom_site_fract_z
 _atom_site_occupancy
 _atom_site_pbe_bader_charge
 _atom_site_pbe_bader_spin_density
 _atom_site_pbe_cm5_charge
 _atom_site_pbe_ddec_charge
 _atom_site_pbe_ddec_spin_density
 _atom_site_pbe_ddec_sum_bond_order
 _atom_site_pbe_magmom
Mn  Mn0  1  0.15485152  0.70776956  0.54796233  1  1.515558  4.550115  0.608304  1.051095  4.656069  2.238715  4.467
Mn  Mn1  1  0.34523266  0.45168709  0.29230559  1  1.515848  4.541199  0.608787  1.050606  4.652845  2.243367  4.459
Mn  Mn2  1  0.84518845  0.29241346  0.45165781  1  1.515987  4.541049  0.60883  1.050833  4.652955  2.243561  4.459
Mn  Mn3  1  0.65515145  0.54824195  0.70779380  1  1.516553  4.545208  0.60904  1.051508  4.653041  2.242509  4.463
Mn  Mn4  1  0.87770313  0.68504809  0.67404527  1  1.565852  -4.515545  0.617255  1.099901  -4.62101  2.307525  -4.461
Mn  Mn5  1  0.62241453  0.32611131  0.31494371  1  1.565937  -4.5156  0.617271  1.099693  -4.621304  2.307377  -4.461
Mn  Mn6  1  0.12245978  0.31495849  0.32602902  1  1.565325  -4.515885  0.617238  1.099874  -4.620852  2.307167  -4.461
Mn  Mn7  1  0.37798854  0.67436358  0.68506173  1  1.56565  4.527661  0.616927  1.10101  4.648958  2.303999  4.472
H  H8  1  0.98763780  0.36988559  0.75353576  1  0.091084  0.000348  0.120435  0.115435  0.000222  1.029912  0.0
H  H9  1  0.51265994  0.24654879  0.63002627  1  0.091417  0.00033  0.120267  0.115029  0.000219  1.030396  0.0
H  H10  1  0.01250100  0.63032916  0.24637693  1  0.090231  0.000314  0.120152  0.115141  0.000214  1.030302  0.0
H  H11  1  0.48738457  0.75362273  0.36989091  1  0.089218  0.000585  0.120413  0.115161  9.6e-05  1.030329  0.0
H  H12  1  0.18867196  0.45328348  0.47926905  1  0.167763  6.8e-05  0.117588  0.124162  -0.00049  1.023375  0.0
H  H13  1  0.31131893  0.52067726  0.54684026  1  0.133899  0.00011  0.117344  0.123374  -0.000771  1.024367  0.0
H  H14  1  0.81160286  0.54668387  0.52068361  1  0.134779  3.7e-05  0.117423  0.123785  -0.000507  1.023692  0.0
H  H15  1  0.68850930  0.47938873  0.45341726  1  0.133998  6.7e-05  0.117593  0.124205  -0.000506  1.023006  0.0
H  H16  1  0.04560171  0.99555183  0.55905435  1  0.097418  0.00028  0.114712  0.117575  -0.000141  0.997645  0.0
H  H17  1  0.45423842  0.44056993  0.00475905  1  0.098553  0.000179  0.114446  0.117708  -0.000213  0.997292  0.0
H  H18  1  0.95413951  0.00473070  0.44075380  1  0.101343  0.000142  0.114748  0.118281  -0.000226  0.997128  0.0
H  H19  1  0.54594527  0.55905441  0.99536231  1  0.101549  0.000144  0.114647  0.117984  -0.000222  0.997108  0.0
H  H20  1  0.32755417  0.91177333  0.68941653  1  0.14789  2.8e-05  0.124408  0.139457  -0.000405  1.002713  0.0
H  H21  1  0.17229901  0.31028657  0.08817366  1  0.146625  0.000161  0.124419  0.139773  0.000336  1.003033  0.0
H  H22  1  0.67202755  0.08813864  0.31065074  1  0.146196  0.000159  0.12454  0.139846  0.000336  1.002592  0.0
H  H23  1  0.82770058  0.68958042  0.91201205  1  0.14822  0.000165  0.124461  0.139889  0.000336  1.002652  0.0
H  H24  1  0.05726729  0.61688513  0.76520977  1  0.647683  -0.001224  0.292881  0.376325  -0.000439  0.966192  -0.002
H  H25  1  0.44279728  0.23484321  0.38277718  1  0.64992  -0.00131  0.293522  0.376903  -0.000237  0.965455  -0.002
H  H26  1  0.94270984  0.38291640  0.23486320  1  0.648694  -0.001314  0.293366  0.376763  -0.000231  0.965595  -0.002
H  H27  1  0.55767342  0.76522421  0.61694711  1  0.648409  0.001151  0.293336  0.377001  0.001198  0.965621  0.002
H  H28  1  0.04619938  0.73067696  0.71639476  1  0.631069  -0.000931  0.307374  0.39164  -0.000174  0.932267  -0.001
H  H29  1  0.45400700  0.28362168  0.26902388  1  0.631046  -0.00151  0.307725  0.391939  -0.00061  0.931582  -0.002
H  H30  1  0.95391359  0.26916431  0.28353275  1  0.630929  -0.001534  0.307926  0.392166  -0.000611  0.931148  -0.002
H  H31  1  0.54633230  0.71667991  0.73077086  1  0.632065  0.001167  0.308019  0.392328  0.001283  0.930798  0.001
H  H32  1  0.36812703  0.68832496  0.48265818  1  0.660404  0.001619  0.297595  0.383644  0.000696  0.96712  0.002
H  H33  1  0.13195981  0.51743455  0.31163021  1  0.661105  0.00125  0.297778  0.383666  0.001474  0.967139  0.002
H  H34  1  0.63193461  0.31181683  0.51737900  1  0.661959  0.001245  0.2978  0.383731  0.001472  0.967052  0.002
H  H35  1  0.86834766  0.48254786  0.68818345  1  0.660217  0.001249  0.297751  0.383894  0.001462  0.966801  0.002
H  H36  1  0.31474946  0.74036034  0.38604202  1  0.650186  0.003222  0.330626  0.418291  0.001876  0.867263  0.003
H  H37  1  0.18562471  0.61388859  0.25929973  1  0.650198  0.003229  0.330874  0.417757  0.001836  0.86753  0.003
H  H38  1  0.68552363  0.25947367  0.61387165  1  0.65074  0.003218  0.330746  0.418015  0.001832  0.867772  0.003
H  H39  1  0.81477894  0.38602718  0.74048294  1  0.649798  0.003227  0.33093  0.418536  0.001823  0.866607  0.003
H  H40  1  0.66667498  0.85674766  0.61972339  1  0.116389  -0.000354  0.12262  0.045049  -0.000233  1.043596  0.0
H  H41  1  0.83338116  0.38041144  0.14327507  1  0.114967  -0.001367  0.122514  0.045054  -0.000843  1.043784  -0.001
H  H42  1  0.33329168  0.14327839  0.38049214  1  0.11586  -0.001365  0.122518  0.045058  -0.000846  1.043834  -0.001
H  H43  1  0.16725551  0.61998930  0.85612594  1  0.118467  0.000529  0.122868  0.045059  -6.5e-05  1.043994  0.0
H  H44  1  0.71635074  0.03709590  0.73353116  1  0.106765  -0.000345  0.11364  0.140569  -0.000229  0.975397  0.0
H  H45  1  0.78396157  0.26633628  0.96302551  1  0.104252  -0.00035  0.113687  0.140659  -0.000227  0.975717  0.0
H  H46  1  0.28402162  0.96296603  0.26643074  1  0.090136  -0.00036  0.113645  0.140712  -0.000238  0.975361  0.0
H  H47  1  0.21591873  0.73336760  0.03720497  1  0.091709  0.000367  0.113805  0.14088  0.000211  0.975451  0.0
H  H48  1  0.79686254  0.07044083  0.61791951  1  0.073798  -0.000347  0.103097  0.122218  -0.000496  1.028706  0.0
H  H49  1  0.70327635  0.38186949  0.92965314  1  0.077058  -0.000219  0.10299  0.122341  -0.000396  1.028994  0.0
H  H50  1  0.20325596  0.92962565  0.38194083  1  0.078272  -0.000264  0.103007  0.122397  -0.000462  1.02885  0.0
H  H51  1  0.29658140  0.61781468  0.07053858  1  0.07546  0.000352  0.10305  0.12225  -7.4e-05  1.0287  0.0
H  H52  1  0.83015109  0.95495554  0.70568153  1  0.113517  -0.000222  0.116242  0.140536  0.000196  0.984832  0.0
H  H53  1  0.67012918  0.29411025  0.04515428  1  0.113754  -0.000282  0.116163  0.140558  0.000151  0.984528  0.0
H  H54  1  0.17014756  0.04513056  0.29412714  1  0.112703  -0.000283  0.116211  0.140628  0.000148  0.984187  0.0
H  H55  1  0.33001275  0.70575817  0.95521955  1  0.112767  0.000299  0.116364  0.140952  -0.000137  0.984736  0.0
H  H56  1  0.62983068  0.09324235  0.53999522  1  0.109763  -0.000768  0.103325  0.129691  -0.000106  1.026275  0.0
H  H57  1  0.87026567  0.45999562  0.90680552  1  0.108956  -0.000766  0.103091  0.129328  -0.000112  1.026249  0.0
H  H58  1  0.36999485  0.90678335  0.46028599  1  0.109902  -0.000165  0.103248  0.129667  -0.000751  1.02639  0.0
H  H59  1  0.13004412  0.53963927  0.09271762  1  0.108222  0.000241  0.103137  0.129392  0.000516  1.026398  0.0
H  H60  1  0.55218837  0.05838157  0.65791393  1  0.105305  -0.000362  0.104023  0.125389  -0.000217  1.01187  0.0
H  H61  1  0.94798076  0.34209592  0.94172001  1  0.103637  -0.000366  0.1039  0.125198  -0.000219  1.012035  0.0
H  H62  1  0.44790785  0.94157321  0.34246191  1  0.104368  -0.000324  0.103547  0.124704  -0.000194  1.011955  0.0
H  H63  1  0.05210085  0.65742761  0.05793348  1  0.109806  0.000353  0.103464  0.125037  0.000205  1.012826  0.0
H  H64  1  0.56313840  0.99179573  0.58235837  1  0.062627  8e-06  0.111261  0.128631  1.5e-05  0.982702  0.0
H  H65  1  0.93693230  0.41769729  0.00827704  1  0.062032  -0.000142  0.111098  0.128313  -4.1e-05  0.982706  0.0
H  H66  1  0.43674374  0.00820762  0.41803192  1  0.0615  -0.000122  0.111347  0.128559  -3.7e-05  0.982863  0.0
H  H67  1  0.06363818  0.58200306  0.99106715  1  0.05896  3.9e-05  0.111175  0.128353  2e-06  0.98273  0.0
C  C68  1  0.06744074  0.25752413  0.69998201  1  0.291601  0.000134  0.084429  0.031356  6e-06  3.897005  0.0
C  C69  1  0.43273882  0.29991476  0.74246624  1  0.251804  -0.000567  0.084244  0.03156  -0.000594  3.8982  -0.001
C  C70  1  0.93250978  0.74261555  0.29994507  1  0.287592  -0.000527  0.084225  0.030465  -0.000536  3.897511  -0.001
C  C71  1  0.56718781  0.70002848  0.25757957  1  0.250621  -0.000739  0.084414  0.031495  -0.000707  3.898575  -0.001
C  C72  1  0.04008358  0.35256167  0.69409729  1  -0.016006  0.0047  -0.067839  -0.119346  0.003718  3.974329  0.003
C  C73  1  0.46009863  0.30590474  0.64740000  1  -0.017014  0.006181  -0.068089  -0.119456  0.004912  3.974951  0.004
C  C74  1  0.96001533  0.64757922  0.30582492  1  -0.01536  0.004645  -0.067644  -0.118604  0.003706  3.973892  0.003
C  C75  1  0.53986612  0.69419360  0.35259140  1  -0.015884  0.006025  -0.068313  -0.119818  0.004465  3.975691  0.003
C  C76  1  0.08287787  0.42348724  0.61423130  1  0.049465  -0.000306  -0.013144  -0.031451  -0.000419  3.977648  -0.001
C  C77  1  0.41725214  0.38578135  0.57652091  1  0.064567  -0.000514  -0.013381  -0.031499  -0.000562  3.977937  -0.001
C  C78  1  0.91734861  0.57659312  0.38570400  1  0.06835  -0.000328  -0.012877  -0.030954  -0.000398  3.97714  -0.001
C  C79  1  0.58268398  0.61436832  0.42354951  1  0.064144  0.003005  -0.012729  -0.030589  0.001951  3.976155  0.002
C  C80  1  0.15526578  0.39764329  0.54194991  1  -0.054458  0.001957  -0.059103  -0.070875  0.001202  3.879427  0.001
C  C81  1  0.34476064  0.45797728  0.60244882  1  -0.035589  0.003396  -0.058985  -0.070281  0.001856  3.878369  0.002
C  C82  1  0.84494261  0.60236517  0.45801970  1  -0.039435  0.001952  -0.058815  -0.070397  0.001218  3.878629  0.001
C  C83  1  0.65508012  0.54205716  0.39774895  1  -0.039558  0.004862  -0.058811  -0.070425  0.003515  3.877296  0.003
C  C84  1  0.18658966  0.30150620  0.55002147  1  0.06008  0.000529  -0.002367  -0.061626  0.000173  3.900328  0.0
C  C85  1  0.31334586  0.44978929  0.69861460  1  0.063617  -1e-05  -0.002254  -0.060839  -0.000779  3.898058  -0.001
C  C86  1  0.81350827  0.69848374  0.44997985  1  0.060163  -5.5e-05  -0.002507  -0.06204  -0.000303  3.900783  0.0
C  C87  1  0.68641682  0.55009727  0.30161890  1  0.066623  -0.000374  -0.002831  -0.062105  -0.000561  3.899787  0.0
C  C88  1  0.14322401  0.22851957  0.63047064  1  -0.004042  0.002575  0.022966  0.042475  0.002015  3.93081  0.001
C  C89  1  0.35684842  0.36932168  0.77154276  1  0.039965  0.004983  0.022775  0.041555  0.003595  3.930523  0.003
C  C90  1  0.85674195  0.77152885  0.36950687  1  -0.006674  0.002447  0.022968  0.042842  0.001846  3.930494  0.002
C  C91  1  0.64302587  0.63053249  0.22860051  1  0.034343  0.004339  0.023113  0.042514  0.003361  3.930218  0.003
C  C92  1  0.16250763  0.12869773  0.63072819  1  0.107248  0.015261  0.018198  0.024231  0.012168  3.957541  0.01
C  C93  1  0.33757461  0.36891193  0.87143455  1  0.092609  -0.003229  0.018605  0.025096  -0.0027  3.956876  -0.002
C  C94  1  0.83732695  0.87136386  0.36925240  1  0.103224  -0.004302  0.017924  0.024497  -0.003406  3.956568  -0.003
C  C95  1  0.66243642  0.63082792  0.12874038  1  0.09912  -0.004315  0.018421  0.024331  -0.003419  3.95708  -0.003
C  C96  1  0.09250552  0.10594187  0.58889180  1  0.002508  -0.004158  -0.002426  -0.056753  -0.003373  3.929706  -0.004
C  C97  1  0.40754114  0.41069701  0.89429031  1  0.005163  0.002414  -0.003549  -0.057718  0.000801  3.930961  0.001
C  C98  1  0.90728102  0.89424303  0.41104136  1  0.003072  0.000535  -0.003538  -0.058077  0.000235  3.930808  0.0
C  C99  1  0.59255818  0.58896392  0.10586580  1  0.004567  0.00056  -0.003013  -0.05755  0.000277  3.93041  0.0
C  C100  1  0.10264752  0.01338370  0.58849329  1  -0.060649  0.014478  -0.060998  -0.081724  0.010902  3.898522  0.009
C  C101  1  0.39726699  0.41111183  0.98685639  1  -0.061113  -0.004031  -0.060327  -0.081709  -0.00355  3.897085  -0.002
C  C102  1  0.89707562  0.98682800  0.41138660  1  -0.062646  -0.00499  -0.060408  -0.081985  -0.00425  3.896894  -0.003
C  C103  1  0.60288049  0.58853503  0.01329126  1  -0.064535  -0.00497  -0.060809  -0.081955  -0.004227  3.897287  -0.003
C  C104  1  0.18791880  0.94360621  0.62295633  1  0.013376  -0.001603  -0.008343  -0.021084  -0.001891  3.985597  -0.003
C  C105  1  0.31185821  0.37674078  0.05652526  1  0.013622  0.000629  -0.008421  -0.020675  0.000201  3.984408  0.001
C  C106  1  0.81166331  0.05648540  0.37702169  1  0.022623  0.000662  -0.007785  -0.020168  0.000212  3.984395  0.001
C  C107  1  0.68821876  0.62302459  0.94361989  1  0.017354  0.000684  -0.007921  -0.020164  0.000236  3.985261  0.001
C  C108  1  0.26043789  0.96530980  0.66239759  1  0.076305  0.012237  -0.059763  -0.116796  0.009372  3.900608  0.007
C  C109  1  0.23946656  0.33723839  0.03473114  1  0.073961  0.002595  -0.060453  -0.118311  0.002232  3.902108  0.002
C  C110  1  0.73920924  0.03466755  0.33758505  1  0.072987  0.001813  -0.060528  -0.117995  0.001601  3.901922  0.001
C  C111  1  0.76055090  0.66255652  0.96544567  1  0.073063  0.001827  -0.060289  -0.118129  0.001606  3.902378  0.001
C  C112  1  0.24503639  0.05581136  0.66823930  1  0.195395  -0.002471  0.087608  0.041861  -0.00214  3.907568  -0.003
C  C113  1  0.25500617  0.33138788  0.94422413  1  0.197532  0.000407  0.087799  0.042427  0.000337  3.908143  0.0
C  C114  1  0.75471871  0.94415251  0.33176542  1  0.199556  0.000248  0.087686  0.041861  0.000213  3.908474  0.0
C  C115  1  0.74501006  0.66837546  0.05596298  1  0.200578  0.000322  0.087488  0.042227  0.000262  3.908837  0.0
C  C116  1  0.05199688  0.52573375  0.60745159  1  1.578752  0.007299  0.236127  0.60865  0.007888  4.14981  0.006
C  C117  1  0.44814057  0.39261913  0.47426488  1  1.579673  0.006867  0.235712  0.607795  0.007466  4.150903  0.006
C  C118  1  0.94823777  0.47436069  0.39243558  1  1.578823  0.006894  0.23548  0.60783  0.007485  4.150636  0.006
C  C119  1  0.55181458  0.60770895  0.52577427  1  1.580345  0.017109  0.23529  0.607714  0.016492  4.150825  0.015
C  C120  1  0.26832307  0.27994163  0.47069637  1  1.565511  0.001575  0.221589  0.583215  0.000686  4.17881  0.001
C  C121  1  0.23152622  0.52909622  0.72023845  1  1.56245  0.027578  0.220737  0.58201  0.026433  4.179186  0.022
C  C122  1  0.73184748  0.71998429  0.52936524  1  1.566897  0.001571  0.221512  0.583123  0.00059  4.17941  0.001
C  C123  1  0.76819416  0.47079484  0.28003270  1  1.566434  0.00175  0.221037  0.582314  0.000773  4.179739  0.001
C  C124  1  0.00604120  0.18069546  0.54175853  1  1.588987  -0.000919  0.224509  0.600154  0.001039  4.182855  -0.003
C  C125  1  0.49374826  0.45813609  0.81945914  1  1.591046  0.016059  0.223993  0.60025  0.01663  4.184845  0.014
C  C126  1  0.99373642  0.81952628  0.45820748  1  1.589606  -0.00093  0.22443  0.600571  0.001157  4.18211  -0.003
C  C127  1  0.50604313  0.54184487  0.18056294  1  1.58987  -0.001065  0.224865  0.600328  0.000989  4.181477  -0.003
C  C128  1  0.20562878  0.84820651  0.61269934  1  1.556143  0.036821  0.230878  0.590808  0.035776  4.177526  0.03
C  C129  1  0.29369529  0.38717863  0.15186166  1  1.558105  -0.017342  0.229922  0.588624  -0.015397  4.17461  -0.014
C  C130  1  0.79358244  0.15188437  0.38731410  1  1.547758  -0.017454  0.229298  0.587887  -0.01548  4.17517  -0.014
C  C131  1  0.70636580  0.61274832  0.84820836  1  1.554576  -0.01736  0.229405  0.588044  -0.015251  4.175903  -0.014
C  C132  1  0.72155358  0.87800715  0.64959329  1  1.356151  -0.005791  0.180597  0.300149  -0.005989  4.079729  -0.006
C  C133  1  0.77854859  0.35045705  0.12204178  1  1.356198  -0.006462  0.180664  0.300341  -0.006502  4.080262  -0.006
C  C134  1  0.27850907  0.12204049  0.35049252  1  1.354286  -0.006496  0.180868  0.300815  -0.006529  4.079344  -0.006
C  C135  1  0.22186474  0.64987565  0.87766589  1  1.352084  0.006029  0.179791  0.300318  0.006028  4.081525  0.006
C  C136  1  0.76451801  0.01038828  0.67712166  1  0.208435  -0.0003  -0.130604  -0.279674  -0.000308  3.86542  0.0
C  C137  1  0.73571505  0.32273370  0.98971365  1  0.209615  -0.000206  -0.130502  -0.279921  -0.000229  3.865626  0.0
C  C138  1  0.23571639  0.98967002  0.32280408  1  0.223554  -0.000314  -0.130457  -0.279773  -0.000307  3.863913  0.0
C  C139  1  0.26431497  0.67705699  0.01045957  1  0.224307  0.000335  -0.13073  -0.280518  0.000183  3.865368  0.0
C  C140  1  0.60586091  0.03220776  0.60326366  1  0.210878  -0.000672  -0.134576  -0.283165  -0.000793  3.87852  0.0
C  C141  1  0.89425282  0.39674637  0.96786201  1  0.212772  -0.000729  -0.133974  -0.282076  -0.000846  3.878046  0.0
C  C142  1  0.39410783  0.96779242  0.39703892  1  0.212275  -0.000528  -0.134728  -0.282775  -0.000628  3.878277  0.0
C  C143  1  0.10605399  0.60293173  0.03170208  1  0.21304  0.000658  -0.134017  -0.282384  0.000663  3.878174  0.0
N  N144  1  0.01142020  0.18879418  0.78345745  1  0.370728  0.000357  0.0618  0.525715  0.00023  4.194004  0.0
N  N145  1  0.48880203  0.21641798  0.81112882  1  0.376347  0.000391  0.062488  0.526364  0.00025  4.195256  0.0
N  N146  1  0.98826908  0.81144967  0.21634215  1  0.383955  0.000266  0.061806  0.526027  0.000144  4.193417  0.0
N  N147  1  0.51111001  0.78345716  0.18885648  1  0.374477  0.000294  0.0627  0.526221  0.000173  4.194927  0.0
N  N148  1  0.31859874  0.07348537  0.71651205  1  0.395224  0.000341  0.063172  0.52238  0.000285  4.184501  0.001
N  N149  1  0.18153004  0.28310839  0.92644280  1  0.397079  0.00029  0.062901  0.521972  0.000207  4.184538  0.0
N  N150  1  0.68119717  0.92638165  0.28353740  1  0.393082  0.000181  0.063118  0.522588  0.000134  4.184413  0.0
N  N151  1  0.81846188  0.71661353  0.07380485  1  0.39071  0.000248  0.063154  0.521997  0.000186  4.185868  0.0
N  N152  1  0.69894974  0.96945673  0.64308528  1  -1.203033  -0.009321  -0.272645  0.046686  -0.006991  3.721502  -0.007
N  N153  1  0.80119596  0.35688707  0.03061387  1  -1.203219  -0.009423  -0.272689  0.046242  -0.007042  3.721526  -0.007
N  N154  1  0.30113854  0.03058014  0.35701240  1  -1.202996  -0.00941  -0.272451  0.046012  -0.007002  3.721256  -0.007
N  N155  1  0.19907644  0.64304655  0.96920596  1  -1.203458  0.009425  -0.271977  0.047261  0.007122  3.719701  0.007
O  O156  1  0.05242891  0.10338096  0.80965366  1  -0.42241  0.001056  -0.112892  -0.303437  0.000816  1.90814  0.001
O  O157  1  0.44784977  0.19009957  0.89654894  1  -0.426585  0.000415  -0.113143  -0.303742  0.000303  1.909716  0.0
O  O158  1  0.94712543  0.89682888  0.19021858  1  -0.429166  0.000385  -0.112845  -0.303117  0.000285  1.907646  0.0
O  O159  1  0.55212277  0.80974200  0.10345104  1  -0.424333  0.000342  -0.113171  -0.303429  0.000251  1.909214  0.0
O  O160  1  0.92437372  0.22175975  0.82272499  1  -0.47783  0.000439  -0.142876  -0.363134  0.0002  1.90944  0.0
O  O161  1  0.57585107  0.17719794  0.77811918  1  -0.480397  0.000459  -0.143679  -0.363962  0.000221  1.909478  0.0
O  O162  1  0.07524706  0.77859073  0.17690005  1  -0.479513  0.000329  -0.142974  -0.363559  0.000128  1.909244  0.0
O  O163  1  0.42399994  0.82264390  0.22181630  1  -0.480106  0.000268  -0.143487  -0.363629  7.3e-05  1.9092  0.0
O  O164  1  0.96238474  0.54914295  0.65499024  1  -1.203586  -0.036931  -0.289226  -0.561987  -0.029022  2.353084  -0.013
O  O165  1  0.53775558  0.34507129  0.45083863  1  -1.204912  -0.037655  -0.289274  -0.561901  -0.02954  2.353428  -0.014
O  O166  1  0.03783237  0.45095175  0.34486455  1  -1.205322  -0.037578  -0.289361  -0.562188  -0.029498  2.35298  -0.014
O  O167  1  0.46229940  0.65547585  0.54905954  1  -1.204348  0.056313  -0.288928  -0.562341  0.041695  2.352783  0.028
O  O168  1  0.11758227  0.58177634  0.55538950  1  -1.197133  0.061393  -0.300594  -0.54645  0.042151  2.359752  0.022
O  O169  1  0.38253669  0.44466769  0.41822082  1  -1.197297  0.05978  -0.300711  -0.546239  0.041354  2.359175  0.022
O  O170  1  0.88262867  0.41832998  0.44444582  1  -1.195403  0.059784  -0.300408  -0.546098  0.04136  2.359679  0.022
O  O171  1  0.61731460  0.55562429  0.58189516  1  -1.196512  0.066154  -0.300628  -0.546413  0.045318  2.35914  0.027
O  O172  1  0.25218506  0.33397385  0.38369136  1  -1.223636  -0.002576  -0.320273  -0.642223  -0.002507  2.447971  -0.002
O  O173  1  0.24764379  0.61611299  0.66643862  1  -1.221547  0.090073  -0.319787  -0.641682  0.069773  2.444262  0.033
O  O174  1  0.74800447  0.66592945  0.61634951  1  -1.224256  -0.001693  -0.320255  -0.642446  -0.002023  2.449581  -0.001
O  O175  1  0.75208594  0.38377556  0.33401816  1  -1.225033  -0.002552  -0.320164  -0.642062  -0.002463  2.448333  -0.002
O  O176  1  0.34804341  0.21610192  0.48902113  1  -1.167815  0.000208  -0.295102  -0.511177  0.000467  2.132474  0.0
O  O177  1  0.15177967  0.51063282  0.78405484  1  -1.166897  0.025792  -0.295832  -0.511734  0.019043  2.132114  0.021
O  O178  1  0.65214094  0.78386583  0.51108178  1  -1.168226  0.001394  -0.294778  -0.510793  0.000596  2.134631  0.001
O  O179  1  0.84789353  0.48915463  0.21619559  1  -1.167626  7.3e-05  -0.294595  -0.510428  0.00037  2.133067  0.0
O  O180  1  0.03148406  0.24064840  0.45764383  1  -1.222912  -0.015174  -0.30032  -0.604955  -0.012783  2.443224  -0.001
O  O181  1  0.46770697  0.54202536  0.75952488  1  -1.224076  0.094621  -0.299651  -0.604568  0.073343  2.442817  0.044
O  O182  1  0.96820647  0.75929127  0.54211260  1  -1.22326  -0.015048  -0.299677  -0.604312  -0.0126  2.44217  -0.001
O  O183  1  0.53145433  0.45771253  0.24052209  1  -1.222347  -0.014935  -0.300214  -0.604633  -0.01257  2.442107  -0.001
O  O184  1  0.91035195  0.18110469  0.58278770  1  -1.163384  0.038901  -0.293577  -0.527294  0.026278  2.161807  0.016
O  O185  1  0.58965162  0.41756660  0.81902437  1  -1.16276  0.059238  -0.293905  -0.52835  0.041226  2.162803  0.032
O  O186  1  0.08952634  0.81934307  0.41741880  1  -1.162542  0.040052  -0.293765  -0.527973  0.027124  2.162354  0.017
O  O187  1  0.41034787  0.58286895  0.18093415  1  -1.164182  0.039173  -0.293894  -0.527486  0.026521  2.161086  0.016
O  O188  1  0.12484285  0.81647612  0.60920556  1  -1.194903  0.070291  -0.310142  -0.586088  0.048967  2.32404  0.031
O  O189  1  0.37417216  0.39102892  0.18380843  1  -1.195345  0.036815  -0.310165  -0.585206  0.024884  2.325828  0.005
O  O190  1  0.87409510  0.18383085  0.39107487  1  -1.195175  0.036755  -0.310159  -0.58538  0.024849  2.325613  0.005
O  O191  1  0.62584908  0.60904131  0.81622250  1  -1.19541  0.037487  -0.310009  -0.585375  0.024436  2.325649  0.005
O  O192  1  0.30104025  0.80570474  0.60350077  1  -1.201494  0.061106  -0.302318  -0.561404  0.042591  2.376743  0.02
O  O193  1  0.19813091  0.39614139  0.19413043  1  -1.200378  -0.042855  -0.302018  -0.559439  -0.029095  2.375685  -0.008
O  O194  1  0.69804853  0.19422513  0.39619779  1  -1.200624  -0.042908  -0.301728  -0.558752  -0.02914  2.375391  -0.008
O  O195  1  0.80191687  0.60383586  0.80591016  1  -1.200332  -0.042707  -0.301627  -0.559058  -0.029  2.375569  -0.008
O  O196  1  0.30605614  0.15427108  0.72154501  1  -0.452114  -7.1e-05  -0.109451  -0.309474  -6.5e-05  1.99606  0.0
O  O197  1  0.19426358  0.27793659  0.84569354  1  -0.452968  0.000652  -0.109302  -0.309018  0.000477  1.996426  0.0
O  O198  1  0.69377904  0.84553551  0.27862569  1  -0.449964  0.000603  -0.109837  -0.309614  0.000496  1.995524  0.0
O  O199  1  0.80572250  0.72174073  0.15457945  1  -0.449555  0.000832  -0.109674  -0.309306  0.000673  1.997078  0.001
O  O200  1  0.79895167  0.81925889  0.68577310  1  -1.194273  -0.057432  -0.304372  -0.483751  -0.041771  2.362936  -0.026
O  O201  1  0.70118616  0.31424366  0.18079337  1  -1.193879  -0.057616  -0.304368  -0.483915  -0.041861  2.363296  -0.026
O  O202  1  0.20117870  0.18078877  0.31418657  1  -1.193606  -0.057652  -0.304497  -0.484048  -0.041909  2.363022  -0.026
O  O203  1  0.29914612  0.68641178  0.81908165  1  -1.195188  0.058503  -0.304007  -0.484337  0.041521  2.364936  0.026
O  O204  1  0.00474248  0.67789111  0.75054593  1  -1.276507  -0.044237  -0.557631  -0.752912  -0.033327  2.093767  -0.02
O  O205  1  0.49539819  0.24950242  0.32185673  1  -1.279135  -0.044915  -0.557931  -0.753421  -0.033557  2.092708  -0.021
O  O206  1  0.99530819  0.32198405  0.24947872  1  -1.27716  -0.044823  -0.557835  -0.75338  -0.03352  2.092466  -0.021
O  O207  1  0.50500684  0.75068766  0.67788141  1  -1.278131  0.065193  -0.557773  -0.753941  0.048722  2.093553  0.031
O  O208  1  0.30170548  0.70226255  0.45403358  1  -1.293662  0.065615  -0.55889  -0.757995  0.046977  2.140241  0.028
O  O209  1  0.19849672  0.54592398  0.29752746  1  -1.293698  0.064971  -0.559042  -0.757297  0.047199  2.140635  0.028
O  O210  1  0.69845797  0.29766819  0.54589913  1  -1.295566  0.064973  -0.559029  -0.757667  0.047191  2.140465  0.028
O  O211  1  0.80183495  0.45400884  0.70231834  1  -1.293228  0.065192  -0.559213  -0.758415  0.047431  2.139498  0.028
O  O212  1  0.38942435  0.00650647  0.74952371  1  -0.457746  9e-06  -0.12676  -0.331949  1.3e-05  1.911922  0.0
O  O213  1  0.11057271  0.25021674  0.99332553  1  -0.461037  -4.8e-05  -0.126906  -0.332312  -6.3e-05  1.911561  0.0
O  O214  1  0.61040239  0.99334805  0.25042434  1  -0.46001  -0.000148  -0.126455  -0.331986  -0.000136  1.912285  0.0
O  O215  1  0.88942411  0.74952640  0.00694698  1  -0.45713  -0.000107  -0.126508  -0.33174  -0.000121  1.912301  0.0
