# generated using pymatgen
data_CdH4C5I2(NO)2
_symmetry_space_group_name_H-M   'P 1'
_cell_length_a   7.40934106
_cell_length_b   7.68581995
_cell_length_c   19.87195443
_cell_angle_alpha   90.00061943
_cell_angle_beta   90.00040232
_cell_angle_gamma   113.94005896
_symmetry_Int_Tables_number   1
_chemical_formula_structural   CdH4C5I2(NO)2
_chemical_formula_sum   'Cd4 H16 C20 I8 N8 O8'
_cell_volume   1034.29051102
_cell_formula_units_Z   4
loop_
 _symmetry_equiv_pos_site_id
 _symmetry_equiv_pos_as_xyz
  1  'x, y, z'
loop_
 _atom_site_type_symbol
 _atom_site_label
 _atom_site_symmetry_multiplicity
 _atom_site_fract_x
 _atom_site_fract_y
 _atom_site_fract_z
 _atom_site_occupancy
 _atom_site_hle17_bader_spin_density
 _atom_site_hle17_ddec_charge
 _atom_site_hle17_ddec_spin_density
 _atom_site_hle17_ddec_sum_bond_order
 _atom_site_hle17_magmom
 _atom_site_hse06_10hf_bader_spin_density
 _atom_site_hse06_10hf_ddec_charge
 _atom_site_hse06_10hf_ddec_spin_density
 _atom_site_hse06_10hf_ddec_sum_bond_order
 _atom_site_hse06_10hf_magmom
 _atom_site_hse06_bader_spin_density
 _atom_site_hse06_ddec_charge
 _atom_site_hse06_ddec_spin_density
 _atom_site_hse06_ddec_sum_bond_order
 _atom_site_hse06_magmom
 _atom_site_pbe_bader_spin_density
 _atom_site_pbe_cm5_charge
 _atom_site_pbe_ddec_charge
 _atom_site_pbe_ddec_spin_density
 _atom_site_pbe_ddec_sum_bond_order
 _atom_site_pbe_magmom
Cd  Cd0  1  0.84625660  0.81103832  0.54701906  1  0  0.731226  0  2.144918  0  0  0.597504  0  2.577604  0  0  0.645684  0  2.545591  0  0  0.43923  0.563951  0  2.599131  0
Cd  Cd1  1  0.15374281  0.18896038  0.04701997  1  0  0.731224  0  2.144893  0  0  0.597491  0  2.577599  0  0  0.645674  0  2.545581  0  0  0.439256  0.563936  0  2.599137  0
Cd  Cd2  1  0.31926468  0.75553866  0.47576214  1  0  0.735296  0  2.123484  0  0  0.601186  0  2.554002  0  0  0.649891  0  2.521743  0  0  0.442273  0.567397  0  2.575639  0
Cd  Cd3  1  0.68072883  0.24445876  0.97576074  1  0  0.735279  0  2.123512  0  0  0.601165  0  2.554037  0  0  0.649873  0  2.521778  0  0  0.442273  0.567376  0  2.575673  0
H  H4  1  0.05242231  0.10177493  0.80154315  1  0  0.094416  0  0.959776  0  0  0.096444  0  1.032442  0  0  0.100329  0  1.029849  0  0  0.103775  0.093565  0  1.034481  0
H  H5  1  0.94758687  0.89822514  0.30153791  1  0  0.094339  0  0.960089  0  0  0.096391  0  1.032719  0  0  0.10027  0  1.030133  0  0  0.103769  0.093515  0  1.034753  0
H  H6  1  0.45533427  0.42826361  0.65765130  1  0  0.10286  0  0.947807  0  0  0.105954  0  1.015888  0  0  0.109896  0  1.011898  0  0  0.113055  0.103022  0  1.018929  0
H  H7  1  0.54467176  0.57173549  0.15765182  1  0  0.10294  0  0.947679  0  0  0.105965  0  1.015833  0  0  0.109907  0  1.011843  0  0  0.113076  0.103031  0  1.018868  0
H  H8  1  0.25712489  0.20335186  0.56636522  1  0  0.088561  0  0.984458  0  0  0.089755  0  1.060153  0  0  0.093813  0  1.056384  0  0  0.093247  0.086729  0  1.06316  0
H  H9  1  0.74286956  0.79666006  0.06636905  1  0  0.088537  0  0.984685  0  0  0.089734  0  1.060347  0  0  0.093791  0  1.056576  0  0  0.09327  0.086707  0  1.063358  0
H  H10  1  0.59852503  0.71851964  0.77713956  1  0  0.424487  0  0.768295  0  0  0.404568  0  0.82849  0  0  0.414687  0  0.817229  0  0  0.349971  0.397228  0  0.836806  0
H  H11  1  0.40149072  0.28147425  0.27714207  1  0  0.424328  0  0.768541  0  0  0.404421  0  0.828699  0  0  0.414537  0  0.817447  0  0  0.349849  0.397083  0  0.837002  0
H  H12  1  0.01439043  0.49514806  0.22636949  1  0  0.09442  0  0.970851  0  0  0.09855  0  1.040825  0  0  0.102378  0  1.038258  0  0  0.10043  0.09573  0  1.04281  0
H  H13  1  0.98561896  0.50484789  0.72636702  1  0  0.094479  0  0.970845  0  0  0.098616  0  1.040814  0  0  0.102439  0  1.038245  0  0  0.100468  0.095796  0  1.042801  0
H  H14  1  0.67456739  0.14758651  0.37928761  1  0  0.098681  0  0.944142  0  0  0.101803  0  1.013065  0  0  0.105429  0  1.009572  0  0  0.11126  0.099072  0  1.01581  0
H  H15  1  0.32544063  0.85242488  0.87929401  1  0  0.098786  0  0.944115  0  0  0.101907  0  1.013002  0  0  0.105537  0  1.009503  0  0  0.111278  0.099174  0  1.015747  0
H  H16  1  0.91540581  0.35433754  0.46574027  1  0  0.085353  0  0.992517  0  0  0.086585  0  1.067799  0  0  0.090599  0  1.064045  0  0  0.090909  0.083614  0  1.070799  0
H  H17  1  0.08458606  0.64566259  0.96574583  1  0  0.085267  0  0.992424  0  0  0.086518  0  1.067718  0  0  0.090535  0  1.063963  0  0  0.090838  0.08354  0  1.070724  0
H  H18  1  0.45005957  0.89249635  0.23489527  1  0  0.419101  0  0.777824  0  0  0.397799  0  0.840168  0  0  0.40769  0  0.829637  0  0  0.345292  0.390648  0  0.847894  0
H  H19  1  0.54990790  0.10749292  0.73489493  1  0  0.419063  0  0.778009  0  0  0.397768  0  0.840334  0  0  0.407652  0  0.829817  0  0  0.345249  0.390628  0  0.848034  0
C  C20  1  0.98422217  0.00393317  0.69802990  1  0  0.03389  0  3.733474  0  0  0.039934  0  3.973339  0  0  0.035338  0  3.995049  0  0  0.107985  0.042441  0  3.959415  0
C  C21  1  0.01580053  0.99608504  0.19803378  1  0  0.033771  0  3.733412  0  0  0.039783  0  3.973291  0  0  0.035186  0  3.994998  0  0  0.107911  0.042296  0  3.959364  0
C  C22  1  0.09727281  0.12584885  0.74870453  1  0  0.088931  0  3.648489  0  0  0.05553  0  3.908557  0  0  0.058766  0  3.925102  0  0  0.055565  0.05339  0  3.897717  0
C  C23  1  0.90273109  0.87414323  0.24871002  1  0  0.089132  0  3.648163  0  0  0.055709  0  3.908254  0  0  0.058943  0  3.924813  0  0  0.055588  0.053573  0  3.897399  0
C  C24  1  0.32044923  0.30448954  0.66991816  1  0  0.098759  0  3.651284  0  0  0.071835  0  3.916859  0  0  0.077031  0  3.927186  0  0  0.058043  0.06831  0  3.910452  0
C  C25  1  0.67956432  0.69552684  0.16992257  1  0  0.098685  0  3.65196  0  0  0.071829  0  3.917469  0  0  0.077022  0  3.927801  0  0  0.058085  0.06831  0  3.911049  0
C  C26  1  0.21035949  0.18040138  0.61893964  1  0  0.09543  0  3.659764  0  0  0.065725  0  3.915446  0  0  0.069263  0  3.929546  0  0  0.049403  0.062703  0  3.907072  0
C  C27  1  0.78962766  0.81959864  0.11893778  1  0  0.09549  0  3.659446  0  0  0.065838  0  3.915081  0  0  0.069382  0  3.929171  0  0  0.04936  0.062816  0  3.90671  0
C  C28  1  0.79332478  0.83777704  0.71032558  1  0  0.629615  0  3.793836  0  0  0.574558  0  4.097544  0  0  0.608377  0  4.088816  0  0  0.23821  0.551603  0  4.103063  0
C  C29  1  0.20669300  0.16223570  0.21031796  1  0  0.629016  0  3.795302  0  0  0.574055  0  4.098832  0  0  0.607872  0  4.09011  0  0  0.237989  0.551094  0  4.104349  0
C  C30  1  0.12742982  0.57692380  0.32763582  1  0  0.027867  0  3.742339  0  0  0.036186  0  3.977572  0  0  0.031064  0  4.000032  0  0  0.106827  0.039084  0  3.963114  0
C  C31  1  0.87256586  0.42307253  0.82763236  1  0  0.027929  0  3.742237  0  0  0.036134  0  3.977672  0  0  0.031016  0  4.00013  0  0  0.106835  0.039016  0  3.963229  0
C  C32  1  0.99212117  0.46353172  0.28005750  1  0  0.087917  0  3.664258  0  0  0.053749  0  3.923674  0  0  0.056805  0  3.940811  0  0  0.050982  0.051826  0  3.912261  0
C  C33  1  0.00788044  0.53646376  0.78005648  1  0  0.087853  0  3.664724  0  0  0.053687  0  3.924213  0  0  0.056745  0  3.941355  0  0  0.050929  0.051767  0  3.912809  0
C  C34  1  0.80461557  0.27211846  0.36377446  1  0  0.108415  0  3.645373  0  0  0.081367  0  3.909768  0  0  0.086608  0  3.920047  0  0  0.061109  0.077843  0  3.903402  0
C  C35  1  0.19537422  0.72788853  0.86378051  1  0  0.108237  0  3.645147  0  0  0.081264  0  3.909497  0  0  0.086501  0  3.919785  0  0  0.061098  0.077745  0  3.903095  0
C  C36  1  0.93907455  0.38611955  0.41211359  1  0  0.100421  0  3.658744  0  0  0.072208  0  3.911237  0  0  0.076105  0  3.925171  0  0  0.050147  0.068926  0  3.903011  0
C  C37  1  0.06091607  0.61387253  0.91211431  1  0  0.100477  0  3.659047  0  0  0.072188  0  3.911602  0  0  0.076081  0  3.92554  0  0  0.050162  0.068929  0  3.903355  0
C  C38  1  0.31004975  0.74617569  0.30965916  1  0  0.631237  0  3.799943  0  0  0.576681  0  4.103823  0  0  0.610803  0  4.094284  0  0  0.236679  0.553405  0  4.110074  0
C  C39  1  0.68993608  0.25382327  0.80965835  1  0  0.631445  0  3.799904  0  0  0.576934  0  4.103772  0  0  0.611051  0  4.094242  0  0  0.236768  0.553658  0  4.110027  0
I  I40  1  0.61559648  0.05178026  0.55178253  1  0  -0.423015  0  1.286832  0  0  -0.370931  0  1.632019  0  0  -0.395681  0  1.613709  0  0  -0.206506  -0.353028  0  1.644959  0
I  I41  1  0.38441621  0.94822414  0.05178702  1  0  -0.42299  0  1.286776  0  0  -0.370898  0  1.63195  0  0  -0.395685  0  1.613699  0  0  -0.2065  -0.352988  0  1.64489  0
I  I42  1  0.54408351  0.51707247  0.47239521  1  0  -0.41085  0  1.299415  0  0  -0.357637  0  1.641838  0  0  -0.382559  0  1.623711  0  0  -0.202989  -0.339659  0  1.654703  0
I  I43  1  0.45592901  0.48293475  0.97239909  1  0  -0.410859  0  1.299417  0  0  -0.357632  0  1.641818  0  0  -0.382541  0  1.623674  0  0  -0.202972  -0.339655  0  1.654688  0
I  I44  1  0.10592564  0.00327418  0.43802206  1  0  -0.413079  0  1.271544  0  0  -0.36419  0  1.614021  0  0  -0.387899  0  1.595508  0  0  -0.198319  -0.346306  0  1.627342  0
I  I45  1  0.89408838  0.99673101  0.93801857  1  0  -0.413104  0  1.271534  0  0  -0.364206  0  1.614004  0  0  -0.387913  0  1.595485  0  0  -0.198337  -0.346322  0  1.627327  0
I  I46  1  0.06166659  0.57321253  0.58844546  1  0  -0.416141  0  1.24984  0  0  -0.367617  0  1.587053  0  0  -0.391176  0  1.56826  0  0  -0.201732  -0.349781  0  1.600213  0
I  I47  1  0.93832361  0.42678266  0.08844501  1  0  -0.416115  0  1.249825  0  0  -0.367586  0  1.587041  0  0  -0.391143  0  1.568249  0  0  -0.201728  -0.349751  0  1.600213  0
N  N48  1  0.04394934  0.03090130  0.63329120  1  0  -0.259588  0  3.272564  0  0  -0.196579  0  3.515636  0  0  -0.20977  0  3.537684  0  0  -0.303651  -0.187658  0  3.501431  0
N  N49  1  0.95607484  0.96911866  0.13329100  1  0  -0.259547  0  3.271805  0  0  -0.196651  0  3.515019  0  0  -0.209842  0  3.53706  0  0  -0.303677  -0.187737  0  3.500824  0
N  N50  1  0.26633964  0.27660209  0.73467354  1  0  -0.26575  0  3.013087  0  0  -0.239174  0  3.288983  0  0  -0.245632  0  3.30001  0  0  -0.309502  -0.234918  0  3.281756  0
N  N51  1  0.73364544  0.72338418  0.23467483  1  0  -0.265806  0  3.013305  0  0  -0.23925  0  3.289203  0  0  -0.245708  0  3.300227  0  0  -0.309515  -0.234996  0  3.281963  0
N  N52  1  0.09837506  0.53815121  0.39397636  1  0  -0.262029  0  3.275322  0  0  -0.197851  0  3.517059  0  0  -0.21155  0  3.539443  0  0  -0.305248  -0.188658  0  3.50271  0
N  N53  1  0.90162284  0.46183622  0.89397328  1  0  -0.262043  0  3.275383  0  0  -0.197815  0  3.517177  0  0  -0.211513  0  3.539569  0  0  -0.305245  -0.188617  0  3.502814  0
N  N54  1  0.82916984  0.31058365  0.29798695  1  0  -0.271567  0  3.009049  0  0  -0.248092  0  3.290002  0  0  -0.254166  0  3.299997  0  0  -0.311892  -0.2442  0  3.283593  0
N  N55  1  0.17080615  0.68940519  0.79798560  1  0  -0.271521  0  3.009035  0  0  -0.248024  0  3.289928  0  0  -0.254096  0  3.299922  0  0  -0.311832  -0.244129  0  3.283522  0
O  O56  1  0.70402570  0.72065559  0.66683809  1  0  -0.511296  0  2.048306  0  0  -0.460342  0  2.282161  0  0  -0.483068  0  2.273097  0  0  -0.266644  -0.444837  0  2.287958  0
O  O57  1  0.29596692  0.27933090  0.16684068  1  0  -0.510833  0  2.049684  0  0  -0.459855  0  2.28344  0  0  -0.482575  0  2.274378  0  0  -0.266435  -0.444356  0  2.28923  0
O  O58  1  0.72617175  0.82890310  0.77365538  1  0  -0.514266  0  2.079956  0  0  -0.467563  0  2.293812  0  0  -0.487782  0  2.279485  0  0  -0.313853  -0.453462  0  2.303529  0
O  O59  1  0.27384015  0.17108505  0.27365966  1  0  -0.513991  0  2.079779  0  0  -0.467305  0  2.29355  0  0  -0.487516  0  2.279223  0  0  -0.313686  -0.453196  0  2.303256  0
O  O60  1  0.43279648  0.84361750  0.35094958  1  0  -0.507542  0  2.026193  0  0  -0.459743  0  2.260359  0  0  -0.482088  0  2.250895  0  0  -0.267734  -0.444469  0  2.266502  0
O  O61  1  0.56718784  0.15638645  0.85094612  1  0  -0.507626  0  2.02617  0  0  -0.459835  0  2.260358  0  0  -0.482177  0  2.250895  0  0  -0.267756  -0.444561  0  2.266497  0
O  O62  1  0.32598030  0.78141643  0.24315100  1  0  -0.521758  0  2.091451  0  0  -0.478214  0  2.312012  0  0  -0.499189  0  2.298695  0  0  -0.31633  -0.463539  0  2.321036  0
O  O63  1  0.67399404  0.21857293  0.74314889  1  0  -0.521843  0  2.091592  0  0  -0.478328  0  2.312194  0  0  -0.499303  0  2.298878  0  0  -0.31636  -0.463654  0  2.32122  0
