# generated using pymatgen
data_CuH18C18N2(ClO2)2
_symmetry_space_group_name_H-M   'P 1'
_cell_length_a   4.90759943
_cell_length_b   10.68714149
_cell_length_c   16.74176643
_cell_angle_alpha   89.99970590
_cell_angle_beta   90.00018896
_cell_angle_gamma   94.80997838
_symmetry_Int_Tables_number   1
_chemical_formula_structural   CuH18C18N2(ClO2)2
_chemical_formula_sum   'Cu2 H36 C36 N4 Cl4 O8'
_cell_volume   874.98332923
_cell_formula_units_Z   2
loop_
 _symmetry_equiv_pos_site_id
 _symmetry_equiv_pos_as_xyz
  1  'x, y, z'
loop_
 _atom_site_type_symbol
 _atom_site_label
 _atom_site_symmetry_multiplicity
 _atom_site_fract_x
 _atom_site_fract_y
 _atom_site_fract_z
 _atom_site_occupancy
 _atom_site_hle17_ddec_charge
 _atom_site_hle17_ddec_spin_density
 _atom_site_hle17_ddec_sum_bond_order
 _atom_site_hle17_magmom
 _atom_site_hse06_10hf_ddec_charge
 _atom_site_hse06_10hf_ddec_spin_density
 _atom_site_hse06_10hf_ddec_sum_bond_order
 _atom_site_hse06_10hf_magmom
 _atom_site_hse06_ddec_charge
 _atom_site_hse06_ddec_spin_density
 _atom_site_hse06_ddec_sum_bond_order
 _atom_site_hse06_magmom
 _atom_site_pbe_cm5_charge
 _atom_site_pbe_ddec_charge
 _atom_site_pbe_ddec_spin_density
 _atom_site_pbe_ddec_sum_bond_order
 _atom_site_pbe_magmom
Cu  Cu0  1  0.49999747  0.50000230  0.50000042  1  0.836438  0.689631  1.832947  0.486  0.811537  0.769944  2.215796  0.606  0.900882  0.842072  2.15053  0.696  0.744275  0.75962  0.718667  2.259509  0.548
Cu  Cu1  1  0.00000438  0.99999884  0.00000134  1  0.836472  0.689634  1.832912  0.486  0.81158  0.76995  2.215732  0.606  0.900904  0.842082  2.150478  0.696  0.744312  0.759663  0.718668  2.259438  0.548
H  H2  1  0.02003458  0.66685240  0.51480600  1  0.367882  -9e-06  0.933846  0.0  0.345556  0.000126  1.004093  0.0  0.356685  1.1e-05  0.992236  0.0  0.28869  0.33791  0.000271  1.012214  0.0
H  H3  1  0.47996537  0.83314863  0.01480674  1  0.367894  -9e-06  0.93384  0.0  0.345551  0.000126  1.004126  0.0  0.356683  1.1e-05  0.992259  0.0  0.2887  0.337904  0.000271  1.012252  0.0
H  H4  1  0.97996156  0.33314751  0.48519484  1  0.367837  -9e-06  0.933877  0.0  0.345509  0.000126  1.004145  0.0  0.35664  1.1e-05  0.992285  0.0  0.288656  0.337865  0.000271  1.012258  0.0
H  H5  1  0.52003892  0.16685129  0.98519470  1  0.367836  -9e-06  0.933871  0.0  0.345504  0.000126  1.004148  0.0  0.356633  1.1e-05  0.992287  0.0  0.28867  0.33786  0.000271  1.012272  0.0
H  H6  1  0.89473747  0.88751627  0.48389953  1  0.11479  -0.000867  0.939199  -0.001  0.128357  -0.000143  0.993693  0.0  0.131653  -0.00012  0.992806  0.0  0.104912  0.125986  -0.000143  0.994511  0.0
H  H7  1  0.60524784  0.61248606  0.98390084  1  0.114747  -0.000867  0.939181  -0.001  0.128329  -0.000142  0.993666  0.0  0.131581  -0.00012  0.992833  0.0  0.104909  0.125955  -0.000143  0.994486  0.0
H  H8  1  0.10525714  0.11248646  0.51609953  1  0.114801  -0.000867  0.939167  -0.001  0.128382  -0.000142  0.993642  0.0  0.131628  -0.00012  0.992818  0.0  0.104931  0.12601  -0.000143  0.99446  0.0
H  H9  1  0.39475596  0.38751104  0.01609821  1  0.114727  -0.000867  0.939205  -0.001  0.128328  -0.000143  0.993666  0.0  0.131572  -0.00012  0.992842  0.0  0.10488  0.125955  -0.000143  0.994486  0.0
H  H10  1  0.68682707  0.06576948  0.41812934  1  0.110821  0.000543  0.949137  0.001  0.119027  0.000158  1.013486  0.0  0.12233  9.6e-05  1.01056  0.0  0.102901  0.117054  0.000213  1.014738  0.0
H  H11  1  0.81315509  0.43423357  0.91813099  1  0.110869  0.000543  0.949185  0.001  0.119077  0.000158  1.013512  0.0  0.122381  9.6e-05  1.010584  0.0  0.102925  0.117102  0.000213  1.014767  0.0
H  H12  1  0.31316754  0.93423324  0.58186971  1  0.11088  0.000543  0.949127  0.001  0.119086  0.000158  1.013479  0.0  0.122387  9.5e-05  1.010557  0.0  0.102936  0.11711  0.000213  1.014731  0.0
H  H13  1  0.18684463  0.56576352  0.08186687  1  0.110871  0.000543  0.949155  0.001  0.119071  0.000158  1.013491  0.0  0.122375  9.6e-05  1.010565  0.0  0.102913  0.117094  0.000213  1.014749  0.0
H  H14  1  0.12041020  0.80412543  0.29415647  1  0.10339  0.000479  0.957497  0.001  0.111746  0.000192  1.025206  0.0  0.114612  0.000126  1.023222  0.0  0.101858  0.109856  0.000269  1.026284  0.0
H  H15  1  0.37957891  0.69587721  0.79415956  1  0.103522  0.000479  0.957501  0.001  0.111816  0.000192  1.025253  0.0  0.114685  0.000126  1.023269  0.0  0.101887  0.109927  0.000269  1.026334  0.0
H  H16  1  0.87958424  0.19587636  0.70584378  1  0.103395  0.000479  0.957524  0.001  0.111745  0.000192  1.025239  0.0  0.114625  0.000126  1.023241  0.0  0.101872  0.109853  0.000269  1.026321  0.0
H  H17  1  0.62042522  0.30412177  0.20584068  1  0.103546  0.000479  0.957494  0.001  0.111817  0.000192  1.025274  0.0  0.114696  0.000126  1.023277  0.0  0.101898  0.109928  0.000269  1.026351  0.0
H  H18  1  0.16311722  0.58797099  0.29947050  1  0.05347  0.006788  0.960366  0.008  0.062  0.004284  1.036619  0.005  0.063398  0.003096  1.031968  0.004  0.103163  0.060852  0.005121  1.039921  0.006
H  H19  1  0.33687552  0.91202879  0.79947225  1  0.053505  0.006788  0.960319  0.008  0.062013  0.004285  1.036575  0.005  0.063431  0.003096  1.031908  0.004  0.103174  0.06087  0.005121  1.039886  0.006
H  H20  1  0.83687893  0.41202892  0.70052915  1  0.053468  0.006789  0.960388  0.008  0.061971  0.004285  1.036646  0.005  0.063389  0.003096  1.03198  0.004  0.103163  0.060827  0.005121  1.039958  0.006
H  H21  1  0.66312878  0.08797113  0.20052860  1  0.053449  0.006789  0.960406  0.008  0.061981  0.004285  1.036635  0.005  0.063388  0.003096  1.031976  0.004  0.10316  0.060834  0.005121  1.039944  0.006
H  H22  1  0.31809940  0.30045381  0.38765111  1  0.082154  0.001029  0.952817  0.002  0.094551  0.000881  1.019031  0.002  0.095267  0.000615  1.018775  0.001  0.103868  0.093065  0.001068  1.02091  0.002
H  H23  1  0.18190036  0.19954835  0.88764922  1  0.082117  0.001029  0.952834  0.002  0.094508  0.000881  1.019059  0.002  0.095225  0.000615  1.018802  0.001  0.103836  0.093024  0.001068  1.020936  0.002
H  H24  1  0.68190116  0.69954799  0.61235093  1  0.082123  0.001029  0.952814  0.002  0.094523  0.000881  1.019034  0.002  0.095238  0.000615  1.018778  0.001  0.103847  0.093043  0.001068  1.020913  0.002
H  H25  1  0.81810173  0.80045063  0.11235222  1  0.082103  0.00103  0.952834  0.002  0.094508  0.000881  1.019053  0.002  0.095222  0.000615  1.0188  0.001  0.103844  0.093022  0.001068  1.020936  0.002
H  H26  1  0.25811945  0.37474983  0.29487938  1  0.061823  0.00103  0.934837  0.001  0.081114  0.000851  0.998898  0.001  0.080483  0.000726  1.000153  0.001  0.098553  0.081577  0.000938  0.998083  0.001
H  H27  1  0.24188092  0.12525022  0.79487900  1  0.061843  0.00103  0.934844  0.001  0.081127  0.000851  0.998894  0.001  0.080495  0.000726  1.000151  0.001  0.098551  0.081594  0.000937  0.998075  0.001
H  H28  1  0.74188077  0.62525008  0.70512206  1  0.061838  0.00103  0.934813  0.001  0.081117  0.000851  0.998886  0.001  0.080491  0.000726  1.000128  0.001  0.098551  0.081584  0.000937  0.998073  0.001
H  H29  1  0.75812321  0.87474876  0.20512304  1  0.061876  0.00103  0.934784  0.001  0.081109  0.000851  0.998917  0.001  0.080484  0.000726  1.000157  0.001  0.098546  0.081578  0.000938  0.998102  0.001
H  H30  1  0.19649389  0.57109383  0.65675064  1  0.035405  -0.000209  0.958284  0.0  0.045281  -8.2e-05  1.035548  0.0  0.045172  -0.00013  1.036152  0.0  0.085506  0.045326  -1.4e-05  1.034862  0.0
H  H31  1  0.30350917  0.92890423  0.15675149  1  0.035342  -0.000208  0.958366  0.0  0.045238  -8.3e-05  1.035604  0.0  0.045124  -0.000131  1.03622  0.0  0.085476  0.045282  -1.4e-05  1.034912  0.0
H  H32  1  0.80350379  0.42890326  0.34324901  1  0.035333  -0.000208  0.958354  0.0  0.045234  -8.3e-05  1.035585  0.0  0.045116  -0.000131  1.036204  0.0  0.085479  0.04528  -1.4e-05  1.034889  0.0
H  H33  1  0.69649529  0.07109663  0.84324995  1  0.035363  -0.000209  0.958389  0.0  0.045244  -8.2e-05  1.035622  0.0  0.045129  -0.00013  1.03624  0.0  0.085493  0.04529  -1.4e-05  1.034929  0.0
H  H34  1  0.15901192  0.73484855  0.66600207  1  0.025662  0.000775  0.945584  0.001  0.039971  0.000468  1.018353  0.001  0.039899  0.00028  1.018035  0.0  0.081196  0.039808  0.000625  1.018752  0.001
H  H35  1  0.34099326  0.76514944  0.16600349  1  0.025662  0.000775  0.945625  0.001  0.039981  0.000468  1.01837  0.001  0.039909  0.00028  1.018053  0.0  0.081194  0.039816  0.000625  1.018763  0.001
H  H36  1  0.84099187  0.26514855  0.33399818  1  0.025625  0.000775  0.94559  0.001  0.039938  0.000468  1.018354  0.001  0.039865  0.00028  1.018035  0.0  0.081198  0.039774  0.000625  1.018752  0.001
H  H37  1  0.65900899  0.23485047  0.83399735  1  0.025655  0.000775  0.945583  0.001  0.039954  0.000468  1.018342  0.001  0.039882  0.00028  1.018022  0.0  0.081168  0.03979  0.000625  1.018732  0.001
C  C38  1  0.62429983  0.74338194  0.42858528  1  0.35216  -0.017288  3.820794  -0.015  0.337225  -0.004175  4.081146  -0.004  0.358339  -0.005393  4.096261  -0.004  0.095034  0.323744  -0.002009  4.069904  -0.003
C  C39  1  0.87568917  0.75662176  0.92858638  1  0.351971  -0.017291  3.821161  -0.015  0.337045  -0.004178  4.081459  -0.004  0.358155  -0.005394  4.09656  -0.004  0.094973  0.323574  -0.00201  4.070195  -0.003
C  C40  1  0.37569681  0.25662079  0.57141437  1  0.352148  -0.017293  3.820853  -0.015  0.337095  -0.004174  4.08137  -0.004  0.358211  -0.005394  4.096469  -0.004  0.094981  0.32362  -0.002009  4.070105  -0.003
C  C41  1  0.12431683  0.24337629  0.07141327  1  0.351797  -0.01729  3.821383  -0.015  0.336902  -0.004171  4.081633  -0.004  0.358014  -0.005392  4.096732  -0.004  0.094922  0.323431  -0.002009  4.070377  -0.003
C  C42  1  0.72599811  0.86985951  0.44196841  1  -0.179604  0.020813  3.707193  0.021  -0.200038  0.006338  3.96455  0.007  -0.210103  0.004788  3.98469  0.006  -0.105564  -0.193398  0.008067  3.950358  0.009
C  C43  1  0.77398695  0.63014407  0.94196983  1  -0.179404  0.020817  3.707159  0.021  -0.19987  0.006339  3.964511  0.007  -0.209898  0.004788  3.984664  0.006  -0.105527  -0.193228  0.008067  3.950302  0.009
C  C44  1  0.27399666  0.13014415  0.55803004  1  -0.179586  0.020817  3.70716  0.021  -0.199985  0.006337  3.964537  0.007  -0.21001  0.004788  3.98469  0.006  -0.105552  -0.193348  0.008067  3.950333  0.009
C  C45  1  0.22601685  0.36985303  0.05802922  1  -0.17946  0.020815  3.707197  0.021  -0.199945  0.006338  3.964519  0.007  -0.209968  0.004789  3.984674  0.006  -0.105532  -0.193301  0.008067  3.950312  0.009
C  C46  1  0.61167252  0.96906638  0.40491058  1  -0.102603  -0.019209  3.788142  -0.013  -0.128259  -0.003611  4.049512  -0.002  -0.124663  -0.00435  4.06882  -0.002  -0.094784  -0.130039  -0.002728  4.03545  -0.001
C  C47  1  0.88830742  0.53093373  0.90491303  1  -0.102821  -0.019216  3.788175  -0.013  -0.128483  -0.003612  4.049591  -0.002  -0.124881  -0.00435  4.068879  -0.002  -0.094864  -0.130259  -0.002728  4.035524  -0.001
C  C48  1  0.38831971  0.03093447  0.59508728  1  -0.102725  -0.019217  3.78813  -0.013  -0.128388  -0.00361  4.049535  -0.002  -0.124788  -0.004351  4.068823  -0.002  -0.09484  -0.130168  -0.002728  4.035471  -0.001
C  C49  1  0.11169654  0.46906431  0.09508483  1  -0.102668  -0.019216  3.788092  -0.013  -0.128307  -0.003612  4.049504  -0.002  -0.124703  -0.004352  4.068788  -0.002  -0.094762  -0.130087  -0.002729  4.035438  -0.001
C  C50  1  0.39322429  0.94460145  0.35142452  1  0.093594  0.016119  3.827808  0.016  0.100852  0.003106  4.102449  0.003  0.098009  0.002414  4.126554  0.003  -0.010801  0.10205  0.003371  4.086941  0.003
C  C51  1  0.10676539  0.55540074  0.85142602  1  0.093683  0.016122  3.82772  0.016  0.100929  0.003107  4.102373  0.003  0.098085  0.002415  4.126482  0.003  -0.010801  0.102119  0.003372  4.08687  0.003
C  C52  1  0.60677219  0.05540034  0.64857513  1  0.093664  0.016123  3.827702  0.016  0.100889  0.003107  4.102408  0.003  0.098047  0.002415  4.126516  0.003  -0.010784  0.102084  0.003372  4.086893  0.003
C  C53  1  0.89323671  0.44459823  0.14857184  1  0.093599  0.016123  3.82784  0.016  0.100787  0.003106  4.102555  0.003  0.097943  0.002416  4.126667  0.003  -0.010882  0.101984  0.003372  4.087042  0.003
C  C54  1  0.29083742  0.82262125  0.33540306  1  -0.142478  -0.018496  3.779629  -0.013  -0.171603  -0.003137  4.032246  -0.002  -0.168422  -0.003979  4.053449  -0.003  -0.093701  -0.173811  -0.00258  4.018541  -0.002
C  C55  1  0.20915023  0.67738200  0.83540546  1  -0.142674  -0.018498  3.779767  -0.013  -0.17176  -0.003139  4.032345  -0.002  -0.168586  -0.003979  4.053554  -0.003  -0.093716  -0.173964  -0.00258  4.018638  -0.002
C  C56  1  0.70915702  0.17738054  0.66459659  1  -0.142548  -0.018498  3.779632  -0.013  -0.171665  -0.003138  4.032254  -0.002  -0.168492  -0.003981  4.053447  -0.003  -0.093726  -0.173865  -0.00258  4.018534  -0.002
C  C57  1  0.79084983  0.32261697  0.16459300  1  -0.142692  -0.018499  3.779827  -0.013  -0.171755  -0.003135  4.032422  -0.002  -0.16858  -0.003981  4.053613  -0.003  -0.093723  -0.173953  -0.00258  4.018703  -0.002
C  C58  1  0.40131309  0.72100725  0.37375109  1  -0.086781  0.018834  3.791028  0.02  -0.07412  0.005861  4.035475  0.007  -0.089205  0.0043  4.062171  0.006  -0.035445  -0.064539  0.006734  4.017935  0.008
C  C59  1  0.09867527  0.77899760  0.87375245  1  -0.086683  0.018836  3.791039  0.02  -0.073946  0.005864  4.035326  0.007  -0.089027  0.004301  4.062024  0.006  -0.035408  -0.064367  0.006735  4.017782  0.008
C  C60  1  0.59867982  0.27899736  0.62624916  1  -0.086723  0.018837  3.791  0.02  -0.073999  0.005862  4.03541  0.007  -0.089085  0.004301  4.062114  0.006  -0.035396  -0.064423  0.006735  4.017864  0.008
C  C61  1  0.90132665  0.22100044  0.12624720  1  -0.086644  0.018837  3.791226  0.02  -0.073916  0.005861  4.035507  0.007  -0.089002  0.0043  4.062209  0.006  -0.035421  -0.064347  0.006735  4.017974  0.008
C  C62  1  0.28879326  0.59630597  0.35398271  1  0.164758  -0.031802  3.687873  -0.023  0.124122  -0.009243  3.950515  -0.006  0.146016  -0.01172  3.959226  -0.008  0.072321  0.109506  -0.007099  3.945323  -0.005
C  C63  1  0.21120051  0.90369621  0.85398317  1  0.164725  -0.031798  3.687952  -0.023  0.124095  -0.009243  3.95058  -0.006  0.145974  -0.011719  3.95928  -0.008  0.072337  0.109473  -0.007098  3.945407  -0.005
C  C64  1  0.71120118  0.40369582  0.64601813  1  0.164709  -0.0318  3.688004  -0.023  0.124148  -0.009243  3.950594  -0.006  0.146026  -0.011719  3.959299  -0.008  0.072356  0.109529  -0.007098  3.945422  -0.005
C  C65  1  0.78880566  0.09630277  0.14601707  1  0.164637  -0.031799  3.688094  -0.023  0.124  -0.009243  3.950717  -0.006  0.14589  -0.01172  3.959424  -0.008  0.072311  0.109386  -0.007098  3.945543  -0.005
C  C66  1  0.21310527  0.37544445  0.35942273  1  -0.047348  0.001549  3.710497  0.0  -0.10221  0.002107  3.973622  0.002  -0.098186  0.001016  3.987322  0.0  -0.082662  -0.1047  0.00297  3.965788  0.002
C  C67  1  0.28688980  0.12455604  0.85942299  1  -0.047282  0.001548  3.710574  0.0  -0.102121  0.002105  3.973641  0.002  -0.098096  0.001014  3.987341  0.0  -0.082584  -0.104617  0.002969  3.965813  0.002
C  C68  1  0.78689088  0.62455546  0.64057752  1  -0.047315  0.001548  3.710516  0.0  -0.102127  0.002105  3.973604  0.002  -0.098104  0.001012  3.987316  0.0  -0.082609  -0.104624  0.002969  3.965784  0.002
C  C69  1  0.71311025  0.87544294  0.14057905  1  -0.047308  0.001548  3.710552  0.0  -0.102135  0.002105  3.973665  0.002  -0.098109  0.001013  3.987377  0.0  -0.082602  -0.104631  0.00297  3.965838  0.002
C  C70  1  0.90458879  0.35000609  0.36928527  1  0.135525  0.003166  3.677047  0.003  0.080614  0.001409  3.951276  0.002  0.08728  0.000993  3.957861  0.001  -0.083987  0.07607  0.001729  3.946561  0.002
C  C71  1  0.59541259  0.14999360  0.86928466  1  0.135377  0.003167  3.677114  0.003  0.080497  0.00141  3.95129  0.002  0.087159  0.000993  3.957873  0.001  -0.084011  0.07596  0.001729  3.946571  0.002
C  C72  1  0.09541313  0.64999195  0.63071558  1  0.135395  0.003168  3.677103  0.003  0.080447  0.00141  3.951394  0.002  0.087105  0.000994  3.95799  0.001  -0.084017  0.075909  0.001729  3.946678  0.002
C  C73  1  0.40459154  0.85000538  0.13071619  1  0.135417  0.003165  3.677316  0.003  0.080493  0.00141  3.951558  0.002  0.087149  0.000994  3.958151  0.001  -0.083981  0.075964  0.001729  3.946829  0.002
N  N74  1  0.32512609  0.49521530  0.39386220  1  -0.305169  0.09026  3.229874  0.11  -0.255183  0.054497  3.535558  0.072  -0.287597  0.045827  3.552225  0.065  -0.372445  -0.236482  0.058588  3.526695  0.074
N  N75  1  0.17487152  0.00478587  0.89386155  1  -0.305206  0.09026  3.230026  0.11  -0.255266  0.054498  3.535736  0.072  -0.287671  0.045826  3.552392  0.065  -0.372495  -0.236564  0.058589  3.526878  0.074
N  N76  1  0.67487039  0.50478649  0.60614043  1  -0.305173  0.090262  3.229947  0.11  -0.255276  0.054499  3.535697  0.072  -0.28769  0.045828  3.552362  0.065  -0.372547  -0.236584  0.058587  3.526858  0.074
N  N77  1  0.82513448  0.99521217  0.10613930  1  -0.305039  0.090262  3.229857  0.11  -0.255094  0.054499  3.535566  0.072  -0.287498  0.045828  3.552208  0.065  -0.372451  -0.236399  0.058588  3.526717  0.074
Cl  Cl78  1  0.24540364  0.06879966  0.30571924  1  -0.098965  0.001818  1.387807  0.001  -0.073485  0.001172  1.635718  0.001  -0.078879  0.000679  1.631993  0.001  0.01791  -0.06945  0.001563  1.638905  0.001
Cl  Cl79  1  0.25458324  0.43120405  0.80572264  1  -0.09893  0.001818  1.387797  0.001  -0.073463  0.001172  1.635742  0.001  -0.078858  0.000679  1.632019  0.001  0.017909  -0.069428  0.001563  1.638935  0.001
Cl  Cl80  1  0.75459080  0.93120213  0.69427922  1  -0.098965  0.001818  1.387771  0.001  -0.073475  0.001172  1.635704  0.001  -0.078869  0.000679  1.63198  0.001  0.017902  -0.069445  0.001563  1.638894  0.001
Cl  Cl81  1  0.74542105  0.56879587  0.19427343  1  -0.098928  0.001819  1.3878  0.001  -0.073429  0.001172  1.635748  0.001  -0.078823  0.00068  1.63202  0.001  0.017927  -0.069398  0.001563  1.638935  0.001
O  O82  1  0.18464781  0.66813734  0.55050960  1  -0.579415  0.00091  2.097165  0.003  -0.536912  5.9e-05  2.345657  0.002  -0.555274  -0.000783  2.332422  0.001  -0.421281  -0.524061  0.000914  2.35404  0.003
O  O83  1  0.31535216  0.83186154  0.05050958  1  -0.579396  0.000911  2.097127  0.003  -0.536935  5.9e-05  2.345659  0.002  -0.555296  -0.000784  2.332425  0.001  -0.421306  -0.524084  0.000914  2.354042  0.003
O  O84  1  0.81534580  0.33185976  0.44949125  1  -0.579375  0.000911  2.097011  0.003  -0.536918  6e-05  2.345535  0.002  -0.555278  -0.000784  2.33229  0.001  -0.421251  -0.524074  0.000914  2.353926  0.003
O  O85  1  0.68465467  0.16814120  0.94949186  1  -0.579334  0.000911  2.097056  0.003  -0.536865  5.8e-05  2.345504  0.002  -0.555233  -0.000784  2.332284  0.001  -0.421254  -0.524015  0.000914  2.35389  0.003
O  O86  1  0.73599766  0.65094166  0.46433261  1  -0.577197  0.07895  2.165671  0.105  -0.534236  0.053907  2.434737  0.08  -0.577108  0.040474  2.433427  0.065  -0.32735  -0.505997  0.062797  2.434993  0.088
O  O87  1  0.76399186  0.84906270  0.96433270  1  -0.57715  0.078947  2.165838  0.105  -0.534166  0.053906  2.43484  0.08  -0.57704  0.040473  2.433554  0.065  -0.327311  -0.505931  0.062798  2.435092  0.088
O  O88  1  0.26399524  0.34906294  0.53566884  1  -0.577136  0.078952  2.165638  0.105  -0.534169  0.053907  2.434763  0.08  -0.577052  0.040474  2.433472  0.065  -0.327323  -0.505919  0.062801  2.434999  0.088
O  O89  1  0.23600990  0.15093440  0.03566815  1  -0.57697  0.078946  2.165929  0.105  -0.534018  0.053904  2.434921  0.08  -0.576891  0.040471  2.433639  0.065  -0.327282  -0.505787  0.062794  2.43518  0.088
