# generated using pymatgen
data_H5PbC8NO5
_symmetry_space_group_name_H-M   'P 1'
_cell_length_a   4.56919093
_cell_length_b   9.85170977
_cell_length_c   9.96497384
_cell_angle_alpha   84.05918484
_cell_angle_beta   83.43966848
_cell_angle_gamma   77.12835581
_symmetry_Int_Tables_number   1
_chemical_formula_structural   H5PbC8NO5
_chemical_formula_sum   'H10 Pb2 C16 N2 O10'
_cell_volume   433.01856175
_cell_formula_units_Z   2
loop_
 _symmetry_equiv_pos_site_id
 _symmetry_equiv_pos_as_xyz
  1  'x, y, z'
loop_
 _atom_site_type_symbol
 _atom_site_label
 _atom_site_symmetry_multiplicity
 _atom_site_fract_x
 _atom_site_fract_y
 _atom_site_fract_z
 _atom_site_occupancy
 _atom_site_hle17_bader_spin_density
 _atom_site_hle17_ddec_charge
 _atom_site_hle17_ddec_spin_density
 _atom_site_hle17_ddec_sum_bond_order
 _atom_site_hle17_magmom
 _atom_site_hse06_10hf_bader_spin_density
 _atom_site_hse06_10hf_ddec_charge
 _atom_site_hse06_10hf_ddec_spin_density
 _atom_site_hse06_10hf_ddec_sum_bond_order
 _atom_site_hse06_10hf_magmom
 _atom_site_hse06_bader_spin_density
 _atom_site_hse06_ddec_charge
 _atom_site_hse06_ddec_spin_density
 _atom_site_hse06_ddec_sum_bond_order
 _atom_site_hse06_magmom
 _atom_site_pbe_bader_spin_density
 _atom_site_pbe_cm5_charge
 _atom_site_pbe_ddec_charge
 _atom_site_pbe_ddec_spin_density
 _atom_site_pbe_ddec_sum_bond_order
 _atom_site_pbe_magmom
H  H0  1  0.05259154  0.07757523  0.86941297  1  0  0.143404  0  0.910303  0  0  0.152067  0  0.97216  0  0  0.155653  0  0.969264  0  0  0.12784  0.149464  0  0.974324  0
H  H1  1  0.94740665  0.92247385  0.13056657  1  0  0.143338  0  0.910144  0  0  0.152066  0  0.971999  0  0  0.155656  0  0.969103  0  0  0.127881  0.14946  0  0.974163  0
H  H2  1  0.25326058  0.01930610  0.71535572  1  0  0.12636  0  0.950937  0  0  0.13709  0  1.015468  0  0  0.140014  0  1.013633  0  0  0.120235  0.134914  0  1.016936  0
H  H3  1  0.74675273  0.98076167  0.28461350  1  0  0.12624  0  0.951116  0  0  0.136937  0  1.015725  0  0  0.139857  0  1.013897  0  0  0.120185  0.134759  0  1.017182  0
H  H4  1  0.08768644  0.10860854  0.51223983  1  0  0.095671  0  0.948511  0  0  0.103197  0  1.0159  0  0  0.106137  0  1.013196  0  0  0.123124  0.10069  0  1.018146  0
H  H5  1  0.91219973  0.89132656  0.48776204  1  0  0.09583  0  0.948454  0  0  0.103367  0  1.015783  0  0  0.106335  0  1.013048  0  0  0.123205  0.100816  0  1.018081  0
H  H6  1  0.72669239  0.27775105  0.37400553  1  0  0.108249  0  0.962817  0  0  0.11736  0  1.024378  0  0  0.120138  0  1.025226  0  0  0.109083  0.115563  0  1.023627  0
H  H7  1  0.27324966  0.72220484  0.62598113  1  0  0.108414  0  0.962833  0  0  0.117432  0  1.024415  0  0  0.120202  0  1.025287  0  0  0.109122  0.115637  0  1.023658  0
H  H8  1  0.26922260  0.42476753  0.49429657  1  0  0.118195  0  0.963275  0  0  0.126382  0  1.027257  0  0  0.130341  0  1.023146  0  0  0.111589  0.123783  0  1.029584  0
H  H9  1  0.73073301  0.57521260  0.50569727  1  0  0.118464  0  0.96319  0  0  0.126517  0  1.027323  0  0  0.130464  0  1.023234  0  0  0.111644  0.123943  0  1.029573  0
Pb  Pb10  1  0.64103110  0.66626632  0.90267436  1  0  1.382951  0  1.367126  0  0  1.204994  0  1.755161  0  0  1.269264  0  1.709357  0  0  0.662068  1.159735  0  1.785918  0
Pb  Pb11  1  0.35919820  0.33375349  0.09740040  1  0  1.383173  0  1.366947  0  0  1.205183  0  1.754938  0  0  1.269441  0  1.709132  0  0  0.662186  1.159929  0  1.785697  0
C  C12  1  0.90871304  0.90822632  0.79504356  1  0  0.688302  0  3.851094  0  0  0.639733  0  4.150746  0  0  0.673843  0  4.144559  0  0  0.217965  0.616409  0  4.154145  0
C  C13  1  0.09138979  0.09180205  0.20493686  1  0  0.688532  0  3.851239  0  0  0.639671  0  4.151342  0  0  0.673783  0  4.145155  0  0  0.21795  0.616342  0  4.154743  0
C  C14  1  0.02863048  0.04253636  0.77118439  1  0  -0.173441  0  3.605479  0  0  -0.236243  0  3.857452  0  0  -0.236926  0  3.862185  0  0  -0.05993  -0.235601  0  3.85431  0
C  C15  1  0.97139098  0.95750545  0.22879557  1  0  -0.173353  0  3.604992  0  0  -0.236263  0  3.857528  0  0  -0.236951  0  3.862277  0  0  -0.060008  -0.235601  0  3.854368  0
C  C16  1  0.88090254  0.17154020  0.55816726  1  0  0.101355  0  3.662106  0  0  0.054715  0  3.925918  0  0  0.066365  0  3.941529  0  0  0.051674  0.047778  0  3.915293  0
C  C17  1  0.11900219  0.82841978  0.44181828  1  0  0.100578  0  3.662244  0  0  0.054009  0  3.926001  0  0  0.06564  0  3.941601  0  0  0.051347  0.047024  0  3.915559  0
C  C18  1  0.68116041  0.26557228  0.48343820  1  0  -0.140783  0  3.7519  0  0  -0.157956  0  4.022743  0  0  -0.169338  0  4.043853  0  0  -0.098528  -0.151015  0  4.008356  0
C  C19  1  0.31874768  0.73438038  0.51654703  1  0  -0.14059  0  3.751792  0  0  -0.157622  0  4.022547  0  0  -0.168999  0  4.043637  0  0  -0.098421  -0.150667  0  4.008135  0
C  C20  1  0.42898110  0.34827370  0.55170601  1  0  0.024766  0  3.689503  0  0  -0.009525  0  3.946541  0  0  0.002622  0  3.957775  0  0  -0.057907  -0.016847  0  3.938255  0
C  C21  1  0.57095065  0.65169593  0.44828865  1  0  0.024413  0  3.689866  0  0  -0.009858  0  3.946916  0  0  0.00229  0  3.958147  0  0  -0.057895  -0.017147  0  3.938595  0
C  C22  1  0.38505751  0.33739482  0.69183045  1  0  -0.226488  0  3.698778  0  0  -0.207284  0  3.950343  0  0  -0.224747  0  3.968383  0  0  -0.027277  -0.196668  0  3.938971  0
C  C23  1  0.61488567  0.66258845  0.30816479  1  0  -0.226255  0  3.698999  0  0  -0.206949  0  3.950304  0  0  -0.22442  0  3.968367  0  0  -0.02731  -0.196329  0  3.938909  0
C  C24  1  0.57879547  0.22999137  0.76904928  1  0  0.495014  0  3.800334  0  0  0.445324  0  4.08064  0  0  0.474195  0  4.084297  0  0  0.228946  0.425911  0  4.078023  0
C  C25  1  0.42120148  0.77002986  0.23095487  1  0  0.494834  0  3.800725  0  0  0.445233  0  4.080943  0  0  0.474093  0  4.084633  0  0  0.228935  0.425834  0  4.078301  0
C  C26  1  0.14436341  0.44331008  0.76031758  1  0  0.68443  0  3.902856  0  0  0.629382  0  4.197114  0  0  0.666683  0  4.189516  0  0  0.211897  0.604133  0  4.201614  0
C  C27  1  0.85558899  0.55666108  0.23970267  1  0  0.683839  0  3.903213  0  0  0.62882  0  4.197384  0  0  0.666126  0  4.18981  0  0  0.211628  0.603568  0  4.201871  0
N  N28  1  0.83030982  0.15323915  0.69525842  1  0  -0.114556  0  3.491986  0  0  -0.023796  0  3.709576  0  0  -0.042849  0  3.733267  0  0  -0.230836  -0.011562  0  3.693532  0
N  N29  1  0.16964194  0.84676814  0.30473230  1  0  -0.113751  0  3.491517  0  0  -0.02315  0  3.709236  0  0  -0.042208  0  3.732958  0  0  -0.230564  -0.010905  0  3.693152  0
O  O30  1  0.03546261  0.81414582  0.88162747  1  0  -0.685408  0  1.970188  0  0  -0.6111  0  2.212458  0  0  -0.644431  0  2.205146  0  0  -0.296477  -0.587986  0  2.216743  0
O  O31  1  0.96471304  0.18589616  0.11834457  1  0  -0.685587  0  1.970521  0  0  -0.611059  0  2.212762  0  0  -0.644421  0  2.205513  0  0  -0.296472  -0.587944  0  2.217046  0
O  O32  1  0.69769660  0.89346637  0.73005733  1  0  -0.640457  0  1.936007  0  0  -0.578691  0  2.161619  0  0  -0.607474  0  2.156182  0  0  -0.302562  -0.558364  0  2.164412  0
O  O33  1  0.30238310  0.10654766  0.26994442  1  0  -0.640513  0  1.93626  0  0  -0.578561  0  2.161977  0  0  -0.607317  0  2.156476  0  0  -0.302442  -0.558234  0  2.164784  0
O  O34  1  0.53891804  0.19469719  0.89406071  1  0  -0.593733  0  2.016103  0  0  -0.536949  0  2.259814  0  0  -0.56325  0  2.252827  0  0  -0.292225  -0.519064  0  2.264318  0
O  O35  1  0.46117359  0.80537477  0.10595920  1  0  -0.593893  0  2.016315  0  0  -0.537087  0  2.259955  0  0  -0.563392  0  2.252977  0  0  -0.292193  -0.519205  0  2.264455  0
O  O36  1  0.19004062  0.48190503  0.87541702  1  0  -0.765424  0  2.061122  0  0  -0.677999  0  2.299805  0  0  -0.714864  0  2.294253  0  0  -0.30375  -0.652246  0  2.302673  0
O  O37  1  0.80997504  0.51807129  0.12459151  1  0  -0.765299  0  2.061542  0  0  -0.677878  0  2.300176  0  0  -0.714756  0  2.294639  0  0  -0.303731  -0.652109  0  2.303018  0
O  O38  1  0.91185331  0.49864947  0.70130151  1  0  -0.628548  0  1.95023  0  0  -0.570899  0  2.183541  0  0  -0.601572  0  2.179783  0  0  -0.295134  -0.549224  0  2.184782  0
O  O39  1  0.08803468  0.50129281  0.29875156  1  0  -0.628274  0  1.950589  0  0  -0.57061  0  2.183787  0  0  -0.601226  0  2.179895  0  0  -0.294842  -0.548972  0  2.185129  0
