# generated using pymatgen
data_NaMnH12C18(NO3)3
_symmetry_space_group_name_H-M   'P 1'
_cell_length_a   10.11655228
_cell_length_b   10.11655800
_cell_length_c   13.73982078
_cell_angle_alpha   68.40347885
_cell_angle_beta   68.40349293
_cell_angle_gamma   60.00510472
_symmetry_Int_Tables_number   1
_chemical_formula_structural   NaMnH12C18(NO3)3
_chemical_formula_sum   'Na2 Mn2 H24 C36 N6 O18'
_cell_volume   1102.39279173
_cell_formula_units_Z   2
loop_
 _symmetry_equiv_pos_site_id
 _symmetry_equiv_pos_as_xyz
  1  'x, y, z'
loop_
 _atom_site_type_symbol
 _atom_site_label
 _atom_site_symmetry_multiplicity
 _atom_site_fract_x
 _atom_site_fract_y
 _atom_site_fract_z
 _atom_site_occupancy
 _atom_site_pbe_bader_charge
 _atom_site_pbe_bader_spin_density
 _atom_site_pbe_cm5_charge
 _atom_site_pbe_ddec_charge
 _atom_site_pbe_ddec_spin_density
 _atom_site_pbe_ddec_sum_bond_order
 _atom_site_pbe_magmom
Na  Na0  1  0.08457375  0.08457178  0.74628312  1  0.892665  0.000449  0.720291  0.87552  -0.000789  0.566248  0.0
Na  Na1  1  0.58457176  0.58457318  0.24628360  1  0.892662  0.000449  0.720301  0.875545  -0.000789  0.5662  0.0
Mn  Mn2  1  0.99625750  0.99622712  0.01131637  1  1.542067  4.509029  0.588836  1.031476  4.636206  2.451695  4.452
Mn  Mn3  1  0.49623369  0.49625253  0.51131852  1  1.542119  4.509009  0.588807  1.031435  4.6362  2.451742  4.452
H  H4  1  0.19321314  0.56625997  0.73773084  1  0.163602  0.000292  0.127693  0.104176  -0.000386  1.025299  0.0
H  H5  1  0.50280897  0.19326149  0.73770182  1  0.185918  0.000285  0.12809  0.105552  -0.000389  1.023969  0.0
H  H6  1  0.56620237  0.50280068  0.73769112  1  0.186496  0.000287  0.128299  0.104663  -0.000385  1.024335  0.0
H  H7  1  0.69326091  0.00280953  0.23770255  1  0.185927  0.000285  0.128096  0.105559  -0.000389  1.023989  0.0
H  H8  1  0.00280198  0.06620218  0.23769188  1  0.186496  0.000287  0.128299  0.104661  -0.000385  1.024341  0.0
H  H9  1  0.06626043  0.69321233  0.23773089  1  0.163605  0.000292  0.127688  0.104148  -0.000386  1.025336  0.0
H  H10  1  0.03153013  0.70479917  0.89191106  1  0.102102  0.000115  0.112073  0.13003  -0.000207  1.015357  0.0
H  H11  1  0.37174471  0.03157422  0.89188691  1  0.099006  0.000116  0.111971  0.130706  -0.000208  1.014936  0.0
H  H12  1  0.70473047  0.37178638  0.89188609  1  0.111707  0.000111  0.112343  0.131134  -0.000209  1.014678  0.0
H  H13  1  0.53157379  0.87174490  0.39188651  1  0.099018  0.000116  0.111976  0.130718  -0.000208  1.01493  0.0
H  H14  1  0.87178744  0.20473000  0.39188665  1  0.111715  0.000111  0.112339  0.13115  -0.000209  1.014695  0.0
H  H15  1  0.20479896  0.53153108  0.39191158  1  0.102106  0.000115  0.112103  0.130084  -0.000207  1.015345  0.0
H  H16  1  0.87747305  0.57548109  0.05345123  1  0.125587  0.000148  0.11313  0.109332  5.3e-05  1.027804  0.0
H  H17  1  0.49359730  0.87749326  0.05339441  1  0.129336  0.00015  0.112752  0.108705  5.3e-05  1.02924  0.0
H  H18  1  0.57547916  0.49362149  0.05339441  1  0.149648  0.000142  0.113123  0.109191  5.2e-05  1.028149  0.0
H  H19  1  0.37749182  0.99359888  0.55339438  1  0.129609  0.00015  0.112732  0.108663  5.3e-05  1.029268  0.0
H  H20  1  0.99362107  0.07547951  0.55339525  1  0.149626  0.000142  0.113154  0.10922  5.2e-05  1.028122  0.0
H  H21  1  0.07548103  0.37747559  0.55345092  1  0.12559  0.000148  0.113153  0.10938  5.3e-05  1.02781  0.0
H  H22  1  0.19055828  0.32887793  0.75169839  1  0.533974  0.000226  0.314041  0.278368  -0.000223  0.979885  0.0
H  H23  1  0.72887874  0.19055631  0.75169293  1  0.526524  0.00023  0.313895  0.278637  -0.000225  0.979532  0.0
H  H24  1  0.32884558  0.72886627  0.75168108  1  0.523927  0.000239  0.313891  0.277906  -0.000217  0.980221  0.0
H  H25  1  0.69055658  0.22887960  0.25169331  1  0.526494  0.00023  0.313901  0.278645  -0.000225  0.979509  0.0
H  H26  1  0.22886677  0.82884612  0.25168148  1  0.523928  0.000239  0.313899  0.277897  -0.000217  0.980245  0.0
H  H27  1  0.82887932  0.69055864  0.25169898  1  0.533986  0.000226  0.314037  0.278375  -0.000223  0.979929  0.0
C  C28  1  0.04808177  0.30440893  0.90239115  1  1.223011  0.00732  0.234797  0.483147  0.006954  4.093369  0.007
C  C29  1  0.74515612  0.04805161  0.90236894  1  1.22552  0.007323  0.235626  0.485063  0.006938  4.089245  0.007
C  C30  1  0.30441860  0.74515467  0.90235871  1  1.26055  0.00729  0.235753  0.482743  0.006957  4.091877  0.007
C  C31  1  0.54805133  0.24515450  0.40237012  1  1.225444  0.007325  0.235607  0.485033  0.006939  4.089309  0.007
C  C32  1  0.24515268  0.80441956  0.40235967  1  1.260537  0.007289  0.235737  0.482759  0.006957  4.091786  0.007
C  C33  1  0.80441041  0.54808308  0.40239076  1  1.222992  0.00732  0.234827  0.483139  0.006954  4.093342  0.007
C  C34  1  0.12220599  0.52141570  0.81078824  1  0.345332  0.001768  0.061937  0.117324  0.001492  3.906581  0.001
C  C35  1  0.54560353  0.12222712  0.81076860  1  0.325294  0.001766  0.06053  0.114251  0.001486  3.905468  0.001
C  C36  1  0.52137799  0.54560676  0.81075302  1  0.378249  0.00173  0.061314  0.117436  0.001478  3.906344  0.001
C  C37  1  0.62222701  0.04560299  0.31076876  1  0.325311  0.001766  0.060524  0.114266  0.001486  3.905359  0.001
C  C38  1  0.04560820  0.02137813  0.31075295  1  0.37822  0.001731  0.061295  0.117439  0.001479  3.906352  0.001
C  C39  1  0.02141480  0.62220694  0.31078818  1  0.344946  0.00177  0.061936  0.117352  0.001493  3.906529  0.001
C  C40  1  0.03419797  0.59421151  0.89551825  1  0.08194  0.003203  -0.105996  -0.187381  0.002525  4.007351  0.002
C  C41  1  0.47609021  0.03421554  0.89548801  1  0.030932  0.003198  -0.105576  -0.187583  0.002523  4.007372  0.002
C  C42  1  0.59416382  0.47611438  0.89548336  1  0.003352  0.003225  -0.106382  -0.190006  0.002521  4.01037  0.002
C  C43  1  0.53421442  0.97609046  0.39548850  1  0.030925  0.003199  -0.105558  -0.187579  0.002524  4.007367  0.002
C  C44  1  0.97611524  0.09416317  0.39548333  1  0.003383  0.003224  -0.10642  -0.190107  0.002521  4.010384  0.002
C  C45  1  0.09421157  0.53419995  0.39551768  1  0.081928  0.003203  -0.106032  -0.18743  0.002525  4.007375  0.002
C  C46  1  0.94998061  0.52110725  0.98520278  1  -0.051162  0.003011  -0.054585  -0.001178  0.002371  3.941228  0.002
C  C47  1  0.54373420  0.94997233  0.98516957  1  -0.047954  0.003028  -0.053958  0.000676  0.002363  3.941458  0.002
C  C48  1  0.52109939  0.54376184  0.98515917  1  -0.063018  0.003001  -0.055292  -0.000908  0.002355  3.943956  0.002
C  C49  1  0.44997279  0.04373487  0.48516968  1  -0.048223  0.003028  -0.053965  0.000663  0.002363  3.941507  0.002
C  C50  1  0.04376228  0.02109884  0.48515955  1  -0.062977  0.003002  -0.055263  -0.000846  0.002355  3.943902  0.002
C  C51  1  0.02110786  0.44998188  0.48520254  1  -0.051152  0.003012  -0.054582  -0.001235  0.002372  3.941305  0.002
C  C52  1  0.95448305  0.37866291  0.99133794  1  -0.006739  0.001454  -0.028776  -0.223065  0.000431  3.925954  0.001
C  C53  1  0.67556724  0.95443799  0.99130113  1  0.052963  0.001413  -0.028511  -0.225757  0.000429  3.926745  0.001
C  C54  1  0.37868095  0.67557484  0.99129455  1  -0.044467  0.001437  -0.028592  -0.224278  0.000421  3.929548  0.001
C  C55  1  0.45443884  0.17556719  0.49130130  1  0.052949  0.001413  -0.028498  -0.225689  0.000429  3.926782  0.001
C  C56  1  0.17557532  0.87868033  0.49129453  1  -0.044517  0.001436  -0.028619  -0.224366  0.00042  3.92966  0.001
C  C57  1  0.87866353  0.45448262  0.49133712  1  -0.006732  0.001454  -0.028752  -0.222965  0.000431  3.925904  0.001
C  C58  1  0.86114308  0.30767561  0.08947471  1  1.567867  0.009442  0.212816  0.611343  0.008701  4.212658  0.008
C  C59  1  0.74172962  0.86114739  0.08946318  1  1.558138  0.009447  0.213421  0.612592  0.008719  4.210688  0.008
C  C60  1  0.30768416  0.74172463  0.08944930  1  1.585592  0.009357  0.213146  0.611379  0.008715  4.213197  0.008
C  C61  1  0.36114593  0.24172869  0.58946425  1  1.557852  0.009447  0.21342  0.612579  0.008719  4.210544  0.008
C  C62  1  0.24172364  0.80768309  0.58944988  1  1.585645  0.009356  0.213187  0.611432  0.008715  4.213215  0.008
C  C63  1  0.80767660  0.36114485  0.58947398  1  1.567861  0.009445  0.212835  0.611325  0.008704  4.212696  0.008
N  N64  1  0.12567634  0.38399609  0.81573842  1  -1.278429  0.006599  -0.360961  -0.258777  0.004465  3.601795  0.004
N  N65  1  0.67463518  0.12565459  0.81571689  1  -1.280889  0.006599  -0.359942  -0.257449  0.004457  3.595483  0.004
N  N66  1  0.38397980  0.67461956  0.81570150  1  -1.259841  0.006576  -0.360611  -0.256591  0.004466  3.596535  0.004
N  N67  1  0.62565593  0.17463469  0.31571808  1  -1.280846  0.006599  -0.359934  -0.257457  0.004457  3.595362  0.004
N  N68  1  0.17462011  0.88397900  0.31570077  1  -1.25985  0.006576  -0.36061  -0.256558  0.004466  3.596538  0.004
N  N69  1  0.88399432  0.62567682  0.31573913  1  -1.278084  0.006599  -0.360966  -0.258786  0.004465  3.601839  0.004
O  O70  1  0.06746640  0.17498216  0.89407712  1  -1.202287  0.053931  -0.346403  -0.581844  0.040107  2.404642  0.025
O  O71  1  0.86351537  0.06743095  0.89406318  1  -1.199913  0.054047  -0.347692  -0.583877  0.040092  2.405196  0.025
O  O72  1  0.17498439  0.86349163  0.89405280  1  -1.210997  0.054057  -0.346661  -0.581371  0.040054  2.40466  0.025
O  O73  1  0.56743125  0.36351643  0.39406346  1  -1.19986  0.054046  -0.347696  -0.583897  0.040095  2.405168  0.025
O  O74  1  0.36349271  0.67498192  0.39405391  1  -1.210977  0.054052  -0.346637  -0.581366  0.04005  2.404504  0.025
O  O75  1  0.67498138  0.56746687  0.39407608  1  -1.202321  0.053944  -0.346439  -0.581884  0.040108  2.404577  0.025
O  O76  1  0.87451102  0.16996801  0.10063785  1  -1.206561  0.063841  -0.32405  -0.588516  0.046708  2.308006  0.027
O  O77  1  0.85484017  0.87461441  0.10064210  1  -1.2097  0.063911  -0.324302  -0.587867  0.046622  2.306565  0.027
O  O78  1  0.16997201  0.85488591  0.10062283  1  -1.221702  0.063868  -0.323911  -0.587438  0.046681  2.306544  0.027
O  O79  1  0.37461364  0.35484080  0.60064328  1  -1.209691  0.06391  -0.324295  -0.58787  0.046623  2.306499  0.027
O  O80  1  0.35488520  0.66997142  0.60062470  1  -1.2217  0.063864  -0.323928  -0.587437  0.046676  2.306574  0.027
O  O81  1  0.66996959  0.37451007  0.60063768  1  -1.206548  0.063849  -0.324046  -0.588482  0.046707  2.308136  0.027
O  O82  1  0.77007441  0.38603525  0.16018262  1  -1.209636  0.012117  -0.392319  -0.629133  0.00862  2.18334  0.009
O  O83  1  0.68378699  0.77002837  0.16016414  1  -1.20759  0.012116  -0.39243  -0.628869  0.008608  2.181838  0.009
O  O84  1  0.38601323  0.68371546  0.16018355  1  -1.210419  0.012106  -0.392829  -0.629473  0.008613  2.183732  0.009
O  O85  1  0.27002692  0.18378781  0.66016473  1  -1.207311  0.012116  -0.392445  -0.628873  0.008607  2.181811  0.009
O  O86  1  0.18371434  0.88601275  0.66018471  1  -1.210447  0.012105  -0.392826  -0.629468  0.008613  2.183747  0.009
O  O87  1  0.88603710  0.27007465  0.66018138  1  -1.209635  0.012119  -0.392333  -0.629159  0.008622  2.183329  0.009
