# generated using pymatgen
data_AgH12C12N3O2
_symmetry_space_group_name_H-M   'P 1'
_cell_length_a   8.01271660
_cell_length_b   8.77083408
_cell_length_c   17.15000000
_cell_angle_alpha   90.00000000
_cell_angle_beta   90.00000000
_cell_angle_gamma   98.16931993
_symmetry_Int_Tables_number   1
_chemical_formula_structural   AgH12C12N3O2
_chemical_formula_sum   'Ag4 H48 C48 N12 O8'
_cell_volume   1193.04072814
_cell_formula_units_Z   4
loop_
 _symmetry_equiv_pos_site_id
 _symmetry_equiv_pos_as_xyz
  1  'x, y, z'
loop_
 _atom_site_type_symbol
 _atom_site_label
 _atom_site_symmetry_multiplicity
 _atom_site_fract_x
 _atom_site_fract_y
 _atom_site_fract_z
 _atom_site_occupancy
 _atom_site_hle17_bader_spin_density
 _atom_site_hle17_ddec_charge
 _atom_site_hle17_ddec_spin_density
 _atom_site_hle17_ddec_sum_bond_order
 _atom_site_hle17_magmom
 _atom_site_hse06_10hf_bader_spin_density
 _atom_site_hse06_10hf_ddec_charge
 _atom_site_hse06_10hf_ddec_spin_density
 _atom_site_hse06_10hf_ddec_sum_bond_order
 _atom_site_hse06_10hf_magmom
 _atom_site_hse06_bader_spin_density
 _atom_site_hse06_ddec_charge
 _atom_site_hse06_ddec_spin_density
 _atom_site_hse06_ddec_sum_bond_order
 _atom_site_hse06_magmom
 _atom_site_pbe_bader_charge
 _atom_site_pbe_bader_spin_density
 _atom_site_pbe_cm5_charge
 _atom_site_pbe_ddec_charge
 _atom_site_pbe_ddec_spin_density
 _atom_site_pbe_ddec_sum_bond_order
 _atom_site_pbe_magmom
Ag  Ag0  1  0.65379924  0.87269141  0.54103673  1  0  0.564681  0  1.395912  0  0  0.430177  0  1.832439  0  0  0.461013  0  1.787201  0  0.599875  0  0.457129  0.408756  0  1.863671  0
Ag  Ag1  1  0.34620290  0.62731232  0.04103907  1  0  0.56476  0  1.39584  0  0  0.430253  0  1.832421  0  0  0.461116  0  1.787127  0  0.599784  0  0.457158  0.408832  0  1.863657  0
Ag  Ag2  1  0.34620315  0.12730839  0.45896152  1  0  0.564728  0  1.395851  0  0  0.430223  0  1.832398  0  0  0.461073  0  1.787134  0  0.599901  0  0.457134  0.408803  0  1.863632  0
Ag  Ag3  1  0.65379505  0.37269094  0.95896443  1  0  0.564721  0  1.395882  0  0  0.430233  0  1.832421  0  0  0.461073  0  1.787175  0  0.599951  0  0.457129  0.408813  0  1.863655  0
H  H4  1  0.06669023  0.90833366  0.54950962  1  0  0.07498  0  0.953673  0  0  0.080953  0  1.02839  0  0  0.08412  0  1.024509  0  0.096097  0  0.111902  0.079082  0  1.030296  0
H  H5  1  0.93330655  0.59165971  0.04951137  1  0  0.075036  0  0.953723  0  0  0.080979  0  1.028464  0  0  0.084145  0  1.024583  0  0.096131  0  0.111922  0.079105  0  1.030374  0
H  H6  1  0.93330432  0.09166384  0.45048630  1  0  0.075012  0  0.953726  0  0  0.080946  0  1.02849  0  0  0.084114  0  1.024606  0  0.096178  0  0.111895  0.079073  0  1.030399  0
H  H7  1  0.06669085  0.40833203  0.95048571  1  0  0.075037  0  0.95372  0  0  0.080977  0  1.028467  0  0  0.084143  0  1.024587  0  0.096224  0  0.111901  0.079103  0  1.030377  0
H  H8  1  0.23979487  0.08382102  0.77423149  1  0  0.099552  0  0.955761  0  0  0.110843  0  1.016804  0  0  0.114078  0  1.014255  0  0.110533  0  0.109883  0.108446  0  1.018684  0
H  H9  1  0.76020475  0.41617139  0.27423440  1  0  0.099514  0  0.955818  0  0  0.110851  0  1.016819  0  0  0.114088  0  1.014265  0  0.110593  0  0.109896  0.108456  0  1.0187  0
H  H10  1  0.76020360  0.91616957  0.22576618  1  0  0.099468  0  0.955962  0  0  0.110805  0  1.016962  0  0  0.114054  0  1.014393  0  0.110539  0  0.109868  0.108413  0  1.018838  0
H  H11  1  0.23978909  0.58382956  0.72576560  1  0  0.099498  0  0.95599  0  0  0.110827  0  1.016989  0  0  0.114046  0  1.014455  0  0.110602  0  0.109883  0.108433  0  1.018868  0
H  H12  1  0.94300331  0.13327833  0.80167289  1  0  0.107539  0  0.943548  0  0  0.118239  0  0.999165  0  0  0.120962  0  0.999702  0  0.092187  0  0.107648  0.11626  0  0.999151  0
H  H13  1  0.05699864  0.36672906  0.30167580  1  0  0.107546  0  0.943618  0  0  0.118334  0  0.999133  0  0  0.121061  0  0.999672  0  0.092038  0  0.107662  0.116352  0  0.999123  0
H  H14  1  0.05699213  0.86671687  0.19832595  1  0  0.107606  0  0.943613  0  0  0.11838  0  0.999142  0  0  0.121109  0  0.999685  0  0.092002  0  0.107683  0.116396  0  0.999137  0
H  H15  1  0.94299787  0.63327304  0.69832536  1  0  0.107585  0  0.943631  0  0  0.118338  0  0.999181  0  0  0.121069  0  0.999723  0  0.091951  0  0.107654  0.116356  0  0.999172  0
H  H16  1  0.72139936  0.05819394  0.70093120  1  0  0.079413  0  0.977015  0  0  0.083884  0  1.048193  0  0  0.087085  0  1.045158  0  0.142161  0  0.11151  0.081599  0  1.050334  0
H  H17  1  0.27860081  0.44180999  0.20093411  1  0  0.079364  0  0.977073  0  0  0.083842  0  1.048233  0  0  0.08704  0  1.045198  0  0.142089  0  0.111497  0.081557  0  1.050375  0
H  H18  1  0.27859697  0.94179895  0.29906647  1  0  0.079427  0  0.97691  0  0  0.083842  0  1.048144  0  0  0.087037  0  1.045102  0  0.142171  0  0.111499  0.081555  0  1.050288  0
H  H19  1  0.72139125  0.55818751  0.79906589  1  0  0.079378  0  0.976896  0  0  0.083783  0  1.048155  0  0  0.086977  0  1.045114  0  0.142081  0  0.111485  0.0815  0  1.050291  0
H  H20  1  0.82389664  0.33667780  0.45040816  1  0  0.099486  0  0.961586  0  0  0.112976  0  1.018922  0  0  0.115421  0  1.019715  0  0.068173  0  0.095751  0.111191  0  1.018768  0
H  H21  1  0.17610156  0.16332153  0.95040641  1  0  0.099488  0  0.961539  0  0  0.11296  0  1.018906  0  0  0.11542  0  1.01968  0  0.068131  0  0.095757  0.111172  0  1.018755  0
H  H22  1  0.17610111  0.66331624  0.54959475  1  0  0.099565  0  0.961627  0  0  0.113027  0  1.018994  0  0  0.115488  0  1.019766  0  0.0681  0  0.095768  0.111241  0  1.018842  0
H  H23  1  0.82389870  0.83668058  0.04959359  1  0  0.099484  0  0.961632  0  0  0.112975  0  1.018967  0  0  0.11543  0  1.019748  0  0.068159  0  0.095764  0.111188  0  1.018816  0
H  H24  1  0.70489378  0.18558872  0.56671895  1  0  0.079571  0  0.984426  0  0  0.085678  0  1.06  0  0  0.089127  0  1.055067  0  0.108268  0  0.093481  0.083251  0  1.062846  0
H  H25  1  0.29510407  0.31441637  0.06671603  1  0  0.079496  0  0.984451  0  0  0.08561  0  1.060025  0  0  0.08906  0  1.055091  0  0.108279  0  0.093483  0.083183  0  1.06287  0
H  H26  1  0.29510559  0.81441569  0.43328688  1  0  0.079502  0  0.984401  0  0  0.085612  0  1.059992  0  0  0.089067  0  1.055055  0  0.108276  0  0.093475  0.083186  0  1.062835  0
H  H27  1  0.70489244  0.68558574  0.93328397  1  0  0.079547  0  0.984343  0  0  0.085653  0  1.059936  0  0  0.089116  0  1.05499  0  0.108279  0  0.093486  0.083227  0  1.062779  0
H  H28  1  0.57569104  0.32212212  0.67466647  1  0  0.119505  0  0.949149  0  0  0.133783  0  1.000472  0  0  0.136987  0  1.000522  0  0.062885  0  0.104529  0.131463  0  1.001038  0
H  H29  1  0.42430877  0.17788758  0.17466531  1  0  0.119518  0  0.949062  0  0  0.13377  0  1.000423  0  0  0.137002  0  1.000441  0  0.062883  0  0.104518  0.131445  0  1.000992  0
H  H30  1  0.42431011  0.67788575  0.32533878  1  0  0.119592  0  0.949042  0  0  0.133838  0  1.000401  0  0  0.137068  0  1.000421  0  0.062867  0  0.104542  0.131514  0  1.00097  0
H  H31  1  0.57569239  0.82212029  0.82533586  1  0  0.119526  0  0.949174  0  0  0.133795  0  1.000504  0  0  0.137  0  1.000554  0  0.06289  0  0.104529  0.131473  0  1.001069  0
H  H32  1  0.71699780  0.67987842  0.39173586  1  0  0.115126  0  0.959187  0  0  0.134398  0  1.026021  0  0  0.13573  0  1.026249  0  0.06179  0  0.090301  0.133231  0  1.026383  0
H  H33  1  0.28300344  0.82011956  0.89173703  1  0  0.115101  0  0.959254  0  0  0.13438  0  1.026072  0  0  0.135717  0  1.026296  0  0.061743  0  0.090292  0.133216  0  1.026431  0
H  H34  1  0.28300138  0.32011678  0.60826472  1  0  0.115108  0  0.959164  0  0  0.134374  0  1.026009  0  0  0.135707  0  1.026236  0  0.061764  0  0.090283  0.133209  0  1.026368  0
H  H35  1  0.71700199  0.17988370  0.10826531  1  0  0.115078  0  0.959149  0  0  0.134325  0  1.026021  0  0  0.135666  0  1.026241  0  0.06182  0  0.090297  0.13316  0  1.026381  0
H  H36  1  0.89782633  0.58245428  0.38744840  1  0  0.115454  0  0.954869  0  0  0.138052  0  1.012445  0  0  0.139124  0  1.0133  0  0.049735  0  0.090429  0.137097  0  1.012246  0
H  H37  1  0.10217491  0.91754370  0.88745015  1  0  0.115426  0  0.954953  0  0  0.138029  0  1.012521  0  0  0.139101  0  1.013377  0  0.049768  0  0.090417  0.137088  0  1.012308  0
H  H38  1  0.10217143  0.41753977  0.61255160  1  0  0.115397  0  0.954914  0  0  0.138016  0  1.01248  0  0  0.139087  0  1.013335  0  0.04975  0  0.090405  0.13706  0  1.012281  0
H  H39  1  0.89783159  0.08245841  0.11254927  1  0  0.115456  0  0.954932  0  0  0.138081  0  1.012469  0  0  0.139152  0  1.013325  0  0.049764  0  0.090457  0.137141  0  1.012255  0
H  H40  1  0.90009505  0.75042689  0.44564665  1  0  0.102879  0  0.97663  0  0  0.121729  0  1.047555  0  0  0.122765  0  1.04752  0  0.044596  0  0.085548  0.121131  0  1.04714  0
H  H41  1  0.09990530  0.74957339  0.94564898  1  0  0.102912  0  0.97659  0  0  0.121751  0  1.047534  0  0  0.122787  0  1.047501  0  0.044604  0  0.085557  0.12115  0  1.047124  0
H  H42  1  0.09990288  0.24956830  0.55435277  1  0  0.102902  0  0.976547  0  0  0.121754  0  1.047478  0  0  0.12279  0  1.047443  0  0.044552  0  0.085578  0.121152  0  1.047065  0
H  H43  1  0.90009995  0.25042872  0.05435160  1  0  0.102891  0  0.976592  0  0  0.121742  0  1.047529  0  0  0.122776  0  1.047495  0  0.044565  0  0.085576  0.121143  0  1.047117  0
H  H44  1  0.53446580  0.73217038  0.66787522  1  0  0.321621  0  0.939809  0  0  0.29828  0  1.019627  0  0  0.30696  0  1.010885  0  0.476576  0  0.284226  0.291891  0  1.026232  0
H  H45  1  0.46553081  0.76783797  0.16787755  1  0  0.321683  0  0.93979  0  0  0.298335  0  1.019608  0  0  0.307014  0  1.010866  0  0.476644  0  0.284273  0.291944  0  1.026217  0
H  H46  1  0.46553268  0.26783634  0.33212420  1  0  0.321674  0  0.939818  0  0  0.298321  0  1.019649  0  0  0.307  0  1.010907  0  0.476611  0  0.284266  0.291932  0  1.026252  0
H  H47  1  0.53446892  0.23216875  0.83212362  1  0  0.321637  0  0.939775  0  0  0.298284  0  1.019615  0  0  0.306964  0  1.010873  0  0.476614  0  0.284229  0.291891  0  1.026229  0
H  H48  1  0.49827872  0.55648856  0.72008338  1  0  0.327607  0  0.947733  0  0  0.309407  0  1.011749  0  0  0.316968  0  1.005777  0  0.508686  0  0.290294  0.304151  0  1.01563  0
H  H49  1  0.50171950  0.94352209  0.22008630  1  0  0.327581  0  0.947724  0  0  0.309414  0  1.011687  0  0  0.316974  0  1.005718  0  0.508744  0  0.290254  0.304156  0  1.015574  0
H  H50  1  0.50171976  0.44351816  0.27991720  1  0  0.327625  0  0.947744  0  0  0.309439  0  1.011727  0  0  0.316998  0  1.005757  0  0.508639  0  0.290287  0.304183  0  1.015606  0
H  H51  1  0.49828308  0.05648693  0.77991603  1  0  0.327623  0  0.947698  0  0  0.309439  0  1.01169  0  0  0.316999  0  1.005719  0  0.508691  0  0.290286  0.304182  0  1.015573  0
C  C52  1  0.04301832  0.95746500  0.60626589  1  0  0.094545  0  3.727026  0  0  0.058311  0  3.980008  0  0  0.065903  0  3.997038  0  0.463249  0  0.043231  0.05298  0  3.968555  0
C  C53  1  0.95697544  0.54253298  0.10626647  1  0  0.094579  0  3.726772  0  0  0.058365  0  3.979717  0  0  0.065955  0  3.996749  0  0.463244  0  0.043245  0.053053  0  3.968231  0
C  C54  1  0.95697855  0.04253135  0.39373236  1  0  0.094556  0  3.726873  0  0  0.058322  0  3.979823  0  0  0.065915  0  3.996851  0  0.463152  0  0.043233  0.052999  0  3.968355  0
C  C55  1  0.04302143  0.45746337  0.89373061  1  0  0.09461  0  3.726771  0  0  0.058378  0  3.97972  0  0  0.06597  0  3.996751  0  0.463142  0  0.043297  0.053064  0  3.968239  0
C  C56  1  0.17562065  0.99266840  0.65925773  1  0  -0.111742  0  3.755911  0  0  -0.084444  0  3.986749  0  0  -0.096211  0  4.010375  0  -0.019484  0  -0.014532  -0.076862  0  3.971014  0
C  C57  1  0.82437987  0.50731691  0.15926122  1  0  -0.111718  0  3.756015  0  0  -0.084413  0  3.986834  0  0  -0.096178  0  4.010459  0  -0.018707  0  -0.014547  -0.076835  0  3.971106  0
C  C58  1  0.82437514  0.00731297  0.34074052  1  0  -0.11166  0  3.755821  0  0  -0.084301  0  3.986606  0  0  -0.096069  0  4.010235  0  -0.018511  0  -0.014524  -0.076719  0  3.970874  0
C  C59  1  0.17561860  0.49268175  0.84073994  1  0  -0.111636  0  3.75602  0  0  -0.084269  0  3.986772  0  0  -0.096035  0  4.010397  0  -0.018735  0  -0.014535  -0.07669  0  3.971041  0
C  C60  1  0.13989840  0.05568065  0.73133003  1  0  -0.013848  0  3.690577  0  0  -0.040859  0  3.930569  0  0  -0.035625  0  3.947324  0  -0.063592  0  -0.062091  -0.044123  0  3.9197  0
C  C61  1  0.86010675  0.44431522  0.23133294  1  0  -0.013847  0  3.690583  0  0  -0.040919  0  3.930626  0  0  -0.035688  0  3.947383  0  -0.063637  0  -0.062131  -0.044187  0  3.919756  0
C  C62  1  0.86009525  0.94431109  0.26866589  1  0  -0.01394  0  3.690358  0  0  -0.041033  0  3.930389  0  0  -0.035807  0  3.947137  0  -0.06369  0  -0.062173  -0.044299  0  3.919517  0
C  C63  1  0.13990064  0.55568458  0.76866531  1  0  -0.014002  0  3.690228  0  0  -0.041083  0  3.930244  0  0  -0.035835  0  3.947006  0  -0.063676  0  -0.062193  -0.044353  0  3.919381  0
C  C64  1  0.97612825  0.08276249  0.74674985  1  0  -0.114977  0  3.728703  0  0  -0.122233  0  3.973812  0  0  -0.129787  0  3.99546  0  -0.028921  0  -0.081957  -0.117668  0  3.960465  0
C  C65  1  0.02387869  0.41723684  0.24675627  1  0  -0.114957  0  3.728503  0  0  -0.12229  0  3.973615  0  0  -0.129853  0  3.995269  0  -0.028737  0  -0.081944  -0.117722  0  3.96027  0
C  C66  1  0.02388537  0.91722925  0.25324606  1  0  -0.114918  0  3.728609  0  0  -0.122234  0  3.973671  0  0  -0.129804  0  3.995334  0  -0.028714  0  -0.081875  -0.117666  0  3.960324  0
C  C67  1  0.97610463  0.58276066  0.75324431  1  0  -0.114812  0  3.728423  0  0  -0.122099  0  3.973496  0  0  -0.129668  0  3.995149  0  -0.028581  0  -0.081813  -0.117532  0  3.960149  0
C  C68  1  0.85198095  0.04271910  0.69061983  1  0  0.130755  0  3.696234  0  0  0.101309  0  3.946198  0  0  0.108733  0  3.963305  0  0.479021  0  0.045928  0.096211  0  3.93524  0
C  C69  1  0.14802242  0.45728138  0.19062157  1  0  0.130814  0  3.696143  0  0  0.101366  0  3.946109  0  0  0.108794  0  3.963214  0  0.478835  0  0.045907  0.096266  0  3.935155  0
C  C70  1  0.14800753  0.95727149  0.30937609  1  0  0.130656  0  3.696515  0  0  0.101267  0  3.946461  0  0  0.1087  0  3.963563  0  0.478736  0  0.045795  0.096171  0  3.935501  0
C  C71  1  0.85198693  0.54271497  0.80937609  1  0  0.130701  0  3.696601  0  0  0.101286  0  3.946595  0  0  0.108719  0  3.963698  0  0.478765  0  0.045863  0.096188  0  3.935637  0
C  C72  1  0.35007858  0.96096081  0.63876910  1  0  0.638616  0  3.942021  0  0  0.587467  0  4.228882  0  0  0.621787  0  4.223644  0  1.581053  0  0.202285  0.563746  0  4.232836  0
C  C73  1  0.64992569  0.53903256  0.13876560  1  0  0.638755  0  3.941832  0  0  0.58761  0  4.22866  0  0  0.621931  0  4.223426  0  1.579924  0  0.202367  0.563886  0  4.232616  0
C  C74  1  0.64992434  0.03903439  0.36123207  1  0  0.638672  0  3.942016  0  0  0.587489  0  4.228887  0  0  0.621811  0  4.22365  0  1.579899  0  0.202301  0.563767  0  4.232842  0
C  C75  1  0.35007582  0.46096954  0.86122799  1  0  0.638649  0  3.94228  0  0  0.587468  0  4.229142  0  0  0.62179  0  4.223909  0  1.579946  0  0.202259  0.563744  0  4.233099  0
C  C76  1  0.75434225  0.54874134  0.49392828  1  0  0.324846  0  3.7711  0  0  0.331097  0  4.011177  0  0  0.342738  0  4.031648  0  0.502246  0  0.109231  0.323594  0  3.996409  0
C  C77  1  0.24565775  0.95126470  0.99393003  1  0  0.324868  0  3.770872  0  0  0.331176  0  4.010874  0  0  0.342813  0  4.031352  0  0.502037  0  0.109234  0.323676  0  3.996107  0
C  C78  1  0.24565480  0.45125616  0.50607347  1  0  0.324986  0  3.770831  0  0  0.331307  0  4.010817  0  0  0.342946  0  4.031294  0  0.502264  0  0.109322  0.323805  0  3.996049  0
C  C79  1  0.75434483  0.04874432  0.00607289  1  0  0.324991  0  3.770887  0  0  0.33129  0  4.010899  0  0  0.342931  0  4.031374  0  0.502255  0  0.109306  0.323786  0  3.996136  0
C  C80  1  0.76564041  0.39239300  0.49783149  1  0  -0.221085  0  3.745919  0  0  -0.240281  0  3.997127  0  0  -0.25177  0  4.019635  0  -0.014688  0  -0.118197  -0.233093  0  3.981673  0
C  C81  1  0.23435851  0.10761093  0.99783090  1  0  -0.221144  0  3.745754  0  0  -0.240358  0  3.99699  0  0  -0.251857  0  4.019491  0  -0.014944  0  -0.118213  -0.23317  0  3.981538  0
C  C82  1  0.23435593  0.60760795  0.50217143  1  0  -0.221305  0  3.745876  0  0  -0.240508  0  3.997074  0  0  -0.252007  0  4.019575  0  -0.014748  0  -0.118252  -0.23332  0  3.981624  0
C  C83  1  0.76563819  0.89239233  0.00216910  1  0  -0.221282  0  3.745868  0  0  -0.240499  0  3.997123  0  0  -0.251997  0  4.019632  0  -0.014697  0  -0.11832  -0.23331  0  3.981671  0
C  C84  1  0.69926309  0.30880119  0.56310087  1  0  0.014263  0  3.810336  0  0  -0.007747  0  4.073426  0  0  0.001356  0  4.087872  0  -0.096196  0  -0.083808  -0.013163  0  4.063066  0
C  C85  1  0.30073957  0.19120274  0.06310204  1  0  0.014452  0  3.810223  0  0  -0.007554  0  4.073312  0  0  0.001543  0  4.087765  0  -0.096117  0  -0.083777  -0.012969  0  4.062951  0
C  C86  1  0.30074002  0.69119515  0.43690262  1  0  0.014415  0  3.810439  0  0  -0.007586  0  4.073517  0  0  0.001507  0  4.087972  0  -0.096158  0  -0.083798  -0.013  0  4.063155  0
C  C87  1  0.69926016  0.80880398  0.93690146  1  0  0.014448  0  3.810271  0  0  -0.007574  0  4.073374  0  0  0.001514  0  4.087821  0  -0.096219  0  -0.083771  -0.012989  0  4.063011  0
C  C88  1  0.62651762  0.38272338  0.62249388  1  0  -0.260554  0  3.713111  0  0  -0.27283  0  3.962834  0  0  -0.285473  0  3.982888  0  -0.047958  0  -0.110981  -0.26482  0  3.949546  0
C  C89  1  0.37347631  0.11728055  0.12249388  1  0  -0.260617  0  3.713247  0  0  -0.27288  0  3.962972  0  0  -0.285547  0  3.98302  0  -0.047769  0  -0.110971  -0.264866  0  3.949681  0
C  C90  1  0.37348086  0.61728333  0.37750845  1  0  -0.260698  0  3.713242  0  0  -0.272952  0  3.963004  0  0  -0.285613  0  3.983054  0  -0.047916  0  -0.111016  -0.26494  0  3.949717  0
C  C91  1  0.62651878  0.88272040  0.87750496  1  0  -0.260698  0  3.713014  0  0  -0.272947  0  3.962763  0  0  -0.285592  0  3.982823  0  -0.047908  0  -0.110998  -0.264936  0  3.949475  0
C  C92  1  0.61682482  0.54221162  0.61498076  1  0  0.493207  0  3.855382  0  0  0.465155  0  4.111533  0  0  0.48546  0  4.126277  0  1.024588  0  0.220259  0.451741  0  4.100397  0
C  C93  1  0.38317536  0.95779558  0.11497901  1  0  0.493233  0  3.855364  0  0  0.46521  0  4.111466  0  0  0.485512  0  4.126215  0  1.02432  0  0.220234  0.451797  0  4.100328  0
C  C94  1  0.38317687  0.45779164  0.38502391  1  0  0.493334  0  3.855162  0  0  0.465253  0  4.111361  0  0  0.485555  0  4.126109  0  1.024644  0  0.220271  0.45184  0  4.100225  0
C  C95  1  0.61682526  0.04221690  0.88502099  1  0  0.493366  0  3.855319  0  0  0.465286  0  4.111503  0  0  0.485592  0  4.126242  0  1.024712  0  0.220274  0.451871  0  4.100368  0
C  C96  1  0.82148380  0.64470036  0.42574752  1  0  -0.379449  0  3.737933  0  0  -0.463705  0  3.976303  0  0  -0.466999  0  3.98433  0  -0.095776  0  -0.248094  -0.461137  0  3.970598  0
C  C97  1  0.17851602  0.85529647  0.92574810  1  0  -0.379458  0  3.737945  0  0  -0.463724  0  3.976292  0  0  -0.467027  0  3.984318  0  -0.09573  0  -0.248102  -0.46117  0  3.970578  0
C  C98  1  0.17851557  0.35529599  0.57425306  1  0  -0.379431  0  3.737843  0  0  -0.463726  0  3.976205  0  0  -0.467025  0  3.984235  0  -0.095738  0  -0.248108  -0.461155  0  3.970501  0
C  C99  1  0.82149119  0.14470218  0.07425190  1  0  -0.379434  0  3.737888  0  0  -0.463702  0  3.976248  0  0  -0.467003  0  3.984271  0  -0.095841  0  -0.248163  -0.461152  0  3.970533  0
N  N100  1  0.67983231  0.62203118  0.55115160  1  0  -0.49219  0  3.19591  0  0  -0.410633  0  3.466346  0  0  -0.435901  0  3.480023  0  -1.222018  0  -0.357681  -0.393823  0  3.45654  0
N  N101  1  0.32016572  0.87797025  0.05115335  1  0  -0.492206  0  3.195853  0  0  -0.410694  0  3.466296  0  0  -0.435964  0  3.479973  0  -1.221627  0  -0.357681  -0.393886  0  3.45649  0
N  N102  1  0.32016634  0.37796863  0.44884665  1  0  -0.49225  0  3.196039  0  0  -0.410722  0  3.466495  0  0  -0.435991  0  3.480173  0  -1.222085  0  -0.357685  -0.393914  0  3.45669  0
N  N103  1  0.67983472  0.12203300  0.94884723  1  0  -0.492265  0  3.196018  0  0  -0.410751  0  3.466502  0  0  -0.436023  0  3.48018  0  -1.222067  0  -0.357656  -0.393941  0  3.456695  0
N  N104  1  0.54485581  0.61757129  0.67194810  1  0  -0.705058  0  3.137502  0  0  -0.665412  0  3.376481  0  0  -0.687479  0  3.372671  0  -1.328558  0  -0.593448  -0.649574  0  3.378721  0
N  N105  1  0.45514258  0.88243245  0.17195044  1  0  -0.705134  0  3.137308  0  0  -0.665517  0  3.376271  0  0  -0.687588  0  3.372467  0  -1.328614  0  -0.593458  -0.649677  0  3.378516  0
N  N106  1  0.45514801  0.38242967  0.32804898  1  0  -0.70518  0  3.137169  0  0  -0.665555  0  3.376224  0  0  -0.687625  0  3.372418  0  -1.328501  0  -0.593495  -0.649716  0  3.378467  0
N  N107  1  0.54485981  0.11756736  0.82805073  1  0  -0.705144  0  3.137506  0  0  -0.665493  0  3.376511  0  0  -0.687562  0  3.372704  0  -1.328645  0  -0.593431  -0.649652  0  3.378755  0
N  N108  1  0.88394696  0.98031847  0.62140466  1  0  -0.327105  0  3.273534  0  0  -0.256948  0  3.559121  0  0  -0.27414  0  3.573287  0  -1.21499  0  -0.332981  -0.244836  0  3.549074  0
N  N109  1  0.11606391  0.51967720  0.12140816  1  0  -0.327235  0  3.273336  0  0  -0.25707  0  3.558911  0  0  -0.274264  0  3.573074  0  -1.214886  0  -0.332983  -0.244963  0  3.548874  0
N  N110  1  0.11605954  0.01967557  0.37859184  1  0  -0.327099  0  3.273382  0  0  -0.256928  0  3.558907  0  0  -0.27412  0  3.573068  0  -1.214848  0  -0.332885  -0.244819  0  3.548865  0
N  N111  1  0.88393278  0.48031799  0.87859067  1  0  -0.327221  0  3.273385  0  0  -0.257037  0  3.558936  0  0  -0.274228  0  3.573096  0  -1.214873  0  -0.332988  -0.24493  0  3.548897  0
O  O112  1  0.38901677  0.96107369  0.56655277  1  0  -0.636913  0  2.155578  0  0  -0.55412  0  2.44052  0  0  -0.585741  0  2.427821  0  -1.145012  0  -0.328127  -0.531894  0  2.44927  0
O  O113  1  0.61098625  0.53892775  0.06655452  1  0  -0.636866  0  2.155777  0  0  -0.554091  0  2.440741  0  0  -0.585707  0  2.428033  0  -1.145022  0  -0.328083  -0.53187  0  2.449494  0
O  O114  1  0.61098919  0.03893303  0.43344490  1  0  -0.63686  0  2.155793  0  0  -0.554065  0  2.440768  0  0  -0.585682  0  2.428059  0  -1.145032  0  -0.328043  -0.531841  0  2.449517  0
O  O115  1  0.38901259  0.46108127  0.93344606  1  0  -0.636915  0  2.155617  0  0  -0.554143  0  2.440612  0  0  -0.58576  0  2.427894  0  -1.144899  0  -0.328088  -0.531917  0  2.449363  0
O  O116  1  0.44656528  0.93254975  0.69387289  1  0  -0.640715  0  1.970692  0  0  -0.582502  0  2.195578  0  0  -0.607171  0  2.186049  0  -1.194496  0  -0.321671  -0.564805  0  2.201643  0
O  O117  1  0.55343097  0.56744823  0.19387638  1  0  -0.640961  0  1.970299  0  0  -0.58271  0  2.195138  0  0  -0.607386  0  2.185615  0  -1.194095  0  -0.321794  -0.565008  0  2.2012  0
O  O118  1  0.55342820  0.06744890  0.30612653  1  0  -0.640847  0  1.97053  0  0  -0.582621  0  2.195427  0  0  -0.607292  0  2.185898  0  -1.194119  0  -0.321747  -0.564922  0  2.201492  0
O  O119  1  0.44656840  0.43255618  0.80612653  1  0  -0.64084  0  1.970863  0  0  -0.582583  0  2.195728  0  0  -0.60725  0  2.18619  0  -1.194204  0  -0.321714  -0.564886  0  2.201795  0
