# generated using pymatgen
data_CoH12(C2O)6
_symmetry_space_group_name_H-M   'P 1'
_cell_length_a   5.38883417
_cell_length_b   8.97630837
_cell_length_c   12.25140024
_cell_angle_alpha   90.99890655
_cell_angle_beta   89.99558012
_cell_angle_gamma   89.99431120
_symmetry_Int_Tables_number   1
_chemical_formula_structural   CoH12(C2O)6
_chemical_formula_sum   'Co2 H24 C24 O12'
_cell_volume   592.53267144
_cell_formula_units_Z   2
loop_
 _symmetry_equiv_pos_site_id
 _symmetry_equiv_pos_as_xyz
  1  'x, y, z'
loop_
 _atom_site_type_symbol
 _atom_site_label
 _atom_site_symmetry_multiplicity
 _atom_site_fract_x
 _atom_site_fract_y
 _atom_site_fract_z
 _atom_site_occupancy
 _atom_site_pbe_cm5_charge
 _atom_site_pbe_ddec_charge
 _atom_site_pbe_ddec_spin_density
 _atom_site_pbe_ddec_sum_bond_order
 _atom_site_pbe_magmom
Co  Co0  1  0.99999248  0.49999793  0.50000198  1  0.655664  1.078772  -2.8302  2.258359  -2.631
Co  Co1  1  0.50000186  0.99999936  0.50000109  1  0.655683  1.078937  -2.830225  2.257685  -2.631
H  H2  1  0.89031242  0.39727529  0.26751485  1  0.105046  0.115828  -1e-06  1.035552  0.0
H  H3  1  0.39024669  0.10271697  0.73247830  1  0.105101  0.115898  -1e-06  1.035166  0.0
H  H4  1  0.10969740  0.60272989  0.73249082  1  0.105079  0.11594  -1e-06  1.035446  0.0
H  H5  1  0.60976128  0.89728484  0.26752327  1  0.105081  0.115863  -1e-06  1.035165  0.0
H  H6  1  0.68540345  0.55085297  0.14402339  1  0.103118  0.10833  6e-06  1.000469  0.0
H  H7  1  0.18545162  0.94920125  0.85597679  1  0.10324  0.108448  6e-06  1.000386  0.0
H  H8  1  0.31459709  0.44915332  0.85598066  1  0.103159  0.108364  6e-06  1.000436  0.0
H  H9  1  0.81455077  0.05079045  0.14401489  1  0.103249  0.108465  6e-06  1.000264  0.0
H  H10  1  0.38014317  0.24609113  0.19618587  1  0.101357  0.121124  7e-05  1.023464  0.0
H  H11  1  0.88021119  0.25388878  0.80379634  1  0.101416  0.121149  7e-05  1.023091  0.0
H  H12  1  0.61983324  0.75389507  0.80381311  1  0.101385  0.121136  7e-05  1.023446  0.0
H  H13  1  0.11979491  0.74611082  0.19620765  1  0.101424  0.121138  7e-05  1.023275  0.0
H  H14  1  0.35600004  0.33065653  0.03429299  1  0.099169  0.098345  1.9e-05  1.036742  0.0
H  H15  1  0.85595607  0.16923899  0.96569890  1  0.099137  0.098287  1.9e-05  1.036828  0.0
H  H16  1  0.64400050  0.66934977  0.96571351  1  0.0992  0.098355  1.9e-05  1.036793  0.0
H  H17  1  0.14404817  0.83076168  0.03429857  1  0.099168  0.098364  1.9e-05  1.036803  0.0
H  H18  1  0.51824272  0.49191046  0.40909491  1  0.311238  0.388426  -0.000229  0.925732  -0.001
H  H19  1  0.01826672  0.00804120  0.59092139  1  0.311294  0.388615  -0.000228  0.925618  -0.001
H  H20  1  0.48174853  0.50808356  0.59090740  1  0.311244  0.388469  -0.000229  0.925754  -0.001
H  H21  1  0.98173567  0.99194946  0.40907926  1  0.311334  0.38863  -0.000228  0.925502  -0.001
H  H22  1  0.63183076  0.34199827  0.45782836  1  0.294243  0.378127  0.000294  0.973486  0.0
H  H23  1  0.13180205  0.15802053  0.54218347  1  0.294287  0.37819  0.000294  0.973373  0.0
H  H24  1  0.36817720  0.65799794  0.54216907  1  0.294269  0.378174  0.000294  0.973398  0.0
H  H25  1  0.86819848  0.84197234  0.45781557  1  0.294252  0.378083  0.000294  0.973516  0.0
C  C26  1  0.23855056  0.22370923  0.35968884  1  0.208488  0.629042  0.004672  4.153501  0.001
C  C27  1  0.73862196  0.27631448  0.64033471  1  0.208291  0.629012  0.004669  4.154312  0.001
C  C28  1  0.76144441  0.77629036  0.64031352  1  0.208305  0.628809  0.004672  4.154093  0.001
C  C29  1  0.26138414  0.72368617  0.35966031  1  0.208235  0.628972  0.004664  4.15451  0.001
C  C30  1  0.04131310  0.36897421  0.21161693  1  -0.07226  -0.052406  0.001809  3.951335  0.0
C  C31  1  0.54136034  0.13104407  0.78834960  1  -0.072337  -0.05254  0.001809  3.951415  0.0
C  C32  1  0.95867630  0.63101871  0.78838700  1  -0.072225  -0.052441  0.00181  3.951184  0.0
C  C33  1  0.45864392  0.86898002  0.21165133  1  -0.072412  -0.05248  0.001813  3.951153  0.0
C  C34  1  0.82344143  0.52825732  0.08061026  1  -0.083024  -0.123257  0.000258  3.960977  0.0
C  C35  1  0.32345481  0.97178700  0.91939886  1  -0.083244  -0.123452  0.000258  3.961673  0.0
C  C36  1  0.17657025  0.47176349  0.91939799  1  -0.083011  -0.123269  0.000259  3.960827  0.0
C  C37  1  0.67654573  0.02821141  0.08059532  1  -0.083303  -0.123489  0.00026  3.961563  0.0
C  C38  1  0.02348450  0.43178715  0.10329262  1  -0.009374  0.096067  0.000171  4.020799  0.0
C  C39  1  0.52349476  0.06820256  0.89668288  1  -0.009181  0.096126  0.000171  4.020256  0.0
C  C40  1  0.97651232  0.56820909  0.89670889  1  -0.009421  0.096058  0.00017  4.020827  0.0
C  C41  1  0.47650393  0.93180483  0.10331873  1  -0.00912  0.096024  0.000169  4.020056  0.0
C  C42  1  0.22742736  0.28265081  0.24858144  1  -0.107363  -0.251596  -0.001921  3.917195  -0.003
C  C43  1  0.72745275  0.21732948  0.75140322  1  -0.107359  -0.251523  -0.001921  3.918326  -0.003
C  C44  1  0.77256019  0.71734877  0.75142011  1  -0.107349  -0.251563  -0.001921  3.917233  -0.003
C  C45  1  0.27254593  0.78266560  0.24859257  1  -0.107329  -0.251515  -0.001924  3.918123  -0.003
C  C46  1  0.19957634  0.40478782  0.02009016  1  -0.085152  -0.120351  0.000338  3.961447  0.0
C  C47  1  0.69955886  0.09514270  0.97990306  1  -0.085165  -0.120263  0.000338  3.961683  0.0
C  C48  1  0.80042420  0.59522071  0.97991554  1  -0.085185  -0.120426  0.000339  3.961627  0.0
C  C49  1  0.30044539  0.90485233  0.02008620  1  -0.085176  -0.120326  0.00034  3.961569  0.0
O  O50  1  0.12516283  0.28369843  0.44191331  1  -0.313856  -0.592524  -0.022004  2.356868  -0.038
O  O51  1  0.62516469  0.21631282  0.55813395  1  -0.313867  -0.592632  -0.022002  2.356465  -0.038
O  O52  1  0.87483214  0.71629896  0.55809311  1  -0.313762  -0.592401  -0.022003  2.357017  -0.038
O  O53  1  0.37484698  0.78369225  0.44185703  1  -0.313857  -0.592692  -0.022004  2.356397  -0.038
O  O54  1  0.36872192  0.10499957  0.36938352  1  -0.318975  -0.58012  -0.039297  2.385705  -0.064
O  O55  1  0.86875180  0.39501659  0.63061762  1  -0.318822  -0.580086  -0.039307  2.38613  -0.064
O  O56  1  0.63127119  0.89499779  0.63061882  1  -0.318922  -0.580014  -0.039295  2.385791  -0.064
O  O57  1  0.13123575  0.60499189  0.36938155  1  -0.318809  -0.580022  -0.039304  2.386172  -0.064
O  O58  1  0.67099713  0.43405020  0.41485353  1  -0.56051  -0.754371  -0.029077  2.194595  -0.046
O  O59  1  0.17095503  0.06594110  0.58514923  1  -0.560615  -0.754696  -0.029075  2.194582  -0.046
O  O60  1  0.32900155  0.56594489  0.58514307  1  -0.560548  -0.754502  -0.029073  2.194535  -0.046
O  O61  1  0.82904551  0.93405065  0.41484898  1  -0.560622  -0.754609  -0.029073  2.194526  -0.046
