# generated using pymatgen
data_LiH6C5(NO)3
_symmetry_space_group_name_H-M   'P 1'
_cell_length_a   3.52546472
_cell_length_b   13.12721838
_cell_length_c   14.24804951
_cell_angle_alpha   106.23275608
_cell_angle_beta   90.00036184
_cell_angle_gamma   89.99951839
_symmetry_Int_Tables_number   1
_chemical_formula_structural   LiH6C5(NO)3
_chemical_formula_sum   'Li4 H24 C20 N12 O12'
_cell_volume   633.10590038
_cell_formula_units_Z   4
loop_
 _symmetry_equiv_pos_site_id
 _symmetry_equiv_pos_as_xyz
  1  'x, y, z'
loop_
 _atom_site_type_symbol
 _atom_site_label
 _atom_site_symmetry_multiplicity
 _atom_site_fract_x
 _atom_site_fract_y
 _atom_site_fract_z
 _atom_site_occupancy
 _atom_site_hle17_bader_spin_density
 _atom_site_hle17_ddec_charge
 _atom_site_hle17_ddec_spin_density
 _atom_site_hle17_ddec_sum_bond_order
 _atom_site_hle17_magmom
 _atom_site_hse06_10hf_bader_spin_density
 _atom_site_hse06_10hf_ddec_charge
 _atom_site_hse06_10hf_ddec_spin_density
 _atom_site_hse06_10hf_ddec_sum_bond_order
 _atom_site_hse06_10hf_magmom
 _atom_site_hse06_bader_spin_density
 _atom_site_hse06_ddec_charge
 _atom_site_hse06_ddec_spin_density
 _atom_site_hse06_ddec_sum_bond_order
 _atom_site_hse06_magmom
 _atom_site_pbe_bader_spin_density
 _atom_site_pbe_cm5_charge
 _atom_site_pbe_ddec_charge
 _atom_site_pbe_ddec_spin_density
 _atom_site_pbe_ddec_sum_bond_order
 _atom_site_pbe_magmom
Li  Li0  1  0.60390557  0.55979836  0.43198650  1  0  0.851436  0  0.391703  0  0  0.804887  0  0.504433  0  0  0.81516  0  0.487209  0  0  0.501608  0.797446  0  0.516833  0
Li  Li1  1  0.10390204  0.94020346  0.56801508  1  0  0.851453  0  0.391674  0  0  0.804871  0  0.50447  0  0  0.815138  0  0.487255  0  0  0.501609  0.797427  0  0.516877  0
Li  Li2  1  0.39609240  0.44020180  0.56801354  1  0  0.851443  0  0.391693  0  0  0.804892  0  0.504423  0  0  0.81516  0  0.48721  0  0  0.501607  0.797447  0  0.516827  0
Li  Li3  1  0.89609877  0.05979670  0.43198495  1  0  0.851446  0  0.391689  0  0  0.804877  0  0.504456  0  0  0.81515  0  0.487231  0  0  0.501606  0.797434  0  0.516858  0
H  H4  1  0.20137239  0.20222561  0.05086396  1  0  0.319634  0  0.939066  0  0  0.292554  0  1.019259  0  0  0.301961  0  1.010927  0  0  0.288859  0.285873  0  1.025126  0
H  H5  1  0.70137509  0.29777643  0.94913862  1  0  0.319612  0  0.939088  0  0  0.292536  0  1.019275  0  0  0.301945  0  1.010945  0  0  0.288851  0.285855  0  1.025138  0
H  H6  1  0.79862275  0.79777376  0.94913656  1  0  0.319658  0  0.939069  0  0  0.292585  0  1.019234  0  0  0.301991  0  1.010902  0  0  0.288878  0.285906  0  1.0251  0
H  H7  1  0.29862572  0.70222373  0.05086211  1  0  0.319609  0  0.939111  0  0  0.29254  0  1.01928  0  0  0.301946  0  1.010953  0  0  0.288855  0.285861  0  1.02514  0
H  H8  1  0.18075237  0.20937534  0.17807682  1  0  0.320295  0  0.936442  0  0  0.299126  0  1.00728  0  0  0.306608  0  1.001912  0  0  0.296925  0.293822  0  1.011045  0
H  H9  1  0.68075799  0.29063071  0.82192748  1  0  0.320234  0  0.936357  0  0  0.299097  0  1.007162  0  0  0.306578  0  1.001797  0  0  0.296923  0.293794  0  1.010921  0
H  H10  1  0.81924277  0.79062402  0.82192441  1  0  0.320276  0  0.936406  0  0  0.299107  0  1.007247  0  0  0.306588  0  1.001878  0  0  0.296913  0.293806  0  1.011008  0
H  H11  1  0.31924849  0.70937104  0.17807297  1  0  0.320267  0  0.936342  0  0  0.299099  0  1.007191  0  0  0.306579  0  1.001827  0  0  0.296928  0.293797  0  1.010957  0
H  H12  1  0.82831247  0.61615888  0.22901781  1  0  0.094234  0  0.963476  0  0  0.098799  0  1.032147  0  0  0.102839  0  1.030379  0  0  0.116842  0.095901  0  1.033636  0
H  H13  1  0.32830406  0.88384172  0.77098033  1  0  0.09427  0  0.963544  0  0  0.098866  0  1.032181  0  0  0.102895  0  1.030424  0  0  0.116859  0.095966  0  1.033671  0
H  H14  1  0.17169118  0.38383970  0.77098111  1  0  0.094197  0  0.963574  0  0  0.098764  0  1.032235  0  0  0.102802  0  1.030471  0  0  0.116839  0.095862  0  1.033721  0
H  H15  1  0.67169959  0.11615844  0.22901970  1  0  0.094229  0  0.963579  0  0  0.098787  0  1.032248  0  0  0.102827  0  1.030484  0  0  0.116848  0.095887  0  1.033733  0
H  H16  1  0.77661948  0.51332711  0.05114418  1  0  0.071209  0  0.958683  0  0  0.079199  0  1.026754  0  0  0.082063  0  1.023886  0  0  0.110361  0.077131  0  1.028771  0
H  H17  1  0.27661493  0.98667042  0.94885377  1  0  0.071207  0  0.95867  0  0  0.079195  0  1.026732  0  0  0.082058  0  1.023873  0  0  0.110371  0.07713  0  1.028747  0
H  H18  1  0.22338417  0.48666988  0.94885503  1  0  0.071175  0  0.958698  0  0  0.079171  0  1.026758  0  0  0.082032  0  1.0239  0  0  0.110351  0.077103  0  1.028776  0
H  H19  1  0.72338304  0.01332975  0.05114556  1  0  0.071215  0  0.958706  0  0  0.079203  0  1.026771  0  0  0.082065  0  1.023912  0  0  0.110376  0.077137  0  1.028786  0
H  H20  1  0.12398200  0.68419807  0.50664054  1  0  0.423065  0  0.853465  0  0  0.396621  0  0.925777  0  0  0.405946  0  0.912254  0  0  0.323929  0.38989  0  0.93431  0
H  H21  1  0.62398201  0.81580213  0.49336065  1  0  0.423084  0  0.85339  0  0  0.396543  0  0.925817  0  0  0.405877  0  0.912342  0  0  0.323893  0.389812  0  0.934352  0
H  H22  1  0.87601597  0.31580130  0.49335929  1  0  0.42309  0  0.8534  0  0  0.39658  0  0.925806  0  0  0.405903  0  0.912311  0  0  0.323896  0.389847  0  0.93434  0
H  H23  1  0.37601880  0.18419804  0.50663938  1  0  0.42307  0  0.853404  0  0  0.396527  0  0.925837  0  0  0.405863  0  0.912362  0  0  0.323887  0.389796  0  0.934369  0
H  H24  1  0.15841859  0.69355055  0.39656038  1  0  0.428188  0  0.881251  0  0  0.393948  0  0.950709  0  0  0.4056  0  0.933604  0  0  0.298671  0.385737  0  0.962758  0
H  H25  1  0.65841578  0.80644958  0.60344086  1  0  0.428206  0  0.881229  0  0  0.393966  0  0.950685  0  0  0.405616  0  0.933587  0  0  0.29868  0.385756  0  0.962732  0
H  H26  1  0.84158222  0.30645041  0.60343986  1  0  0.428186  0  0.881255  0  0  0.393945  0  0.950715  0  0  0.405596  0  0.933612  0  0  0.298678  0.385731  0  0.962768  0
H  H27  1  0.34158219  0.19355137  0.39656008  1  0  0.428195  0  0.881244  0  0  0.393952  0  0.950703  0  0  0.405605  0  0.933599  0  0  0.298675  0.385743  0  0.962748  0
C  C28  1  0.47228079  0.39298545  0.25133639  1  0  -0.068919  0  3.689273  0  0  -0.056729  0  3.935275  0  0  -0.065595  0  3.953653  0  0  0.111157  -0.051293  0  3.92313  0
C  C29  1  0.97228178  0.10701845  0.74866433  1  0  -0.068566  0  3.689081  0  0  -0.056514  0  3.935243  0  0  -0.065377  0  3.953627  0  0  0.111288  -0.051076  0  3.923097  0
C  C30  1  0.52771718  0.60701471  0.74866294  1  0  -0.068885  0  3.689325  0  0  -0.056609  0  3.935223  0  0  -0.065473  0  3.953601  0  0  0.111214  -0.051174  0  3.923076  0
C  C31  1  0.02771619  0.89298171  0.25133570  1  0  -0.06857  0  3.689217  0  0  -0.056486  0  3.935364  0  0  -0.065348  0  3.95375  0  0  0.11128  -0.051054  0  3.923224  0
C  C32  1  0.37223322  0.34993224  0.33578645  1  0  0.665763  0  3.899391  0  0  0.606554  0  4.207963  0  0  0.640694  0  4.19922  0  0  0.225422  0.583523  0  4.213199  0
C  C33  1  0.87223659  0.15007424  0.66421478  1  0  0.665455  0  3.89976  0  0  0.606344  0  4.208263  0  0  0.640478  0  4.199533  0  0  0.225336  0.583314  0  4.213499  0
C  C34  1  0.62776192  0.65006792  0.66421358  1  0  0.665777  0  3.899416  0  0  0.606542  0  4.207993  0  0  0.640681  0  4.199253  0  0  0.225454  0.583512  0  4.213233  0
C  C35  1  0.12776422  0.84992751  0.33578567  1  0  0.665508  0  3.899703  0  0  0.606356  0  4.208252  0  0  0.640486  0  4.199526  0  0  0.225345  0.583327  0  4.213491  0
C  C36  1  0.42987474  0.33478462  0.15010543  1  0  0.435687  0  3.809016  0  0  0.402182  0  4.074322  0  0  0.420932  0  4.088266  0  0  0.236628  0.389575  0  4.064703  0
C  C37  1  0.92987632  0.16521857  0.84989644  1  0  0.43558  0  3.808853  0  0  0.402097  0  4.07421  0  0  0.420847  0  4.088159  0  0  0.23654  0.38949  0  4.064588  0
C  C38  1  0.57012040  0.66521475  0.84989440  1  0  0.435733  0  3.808964  0  0  0.402212  0  4.074255  0  0  0.420963  0  4.088195  0  0  0.23663  0.389605  0  4.064635  0
C  C39  1  0.07012732  0.83478159  0.15010429  1  0  0.435541  0  3.808926  0  0  0.402023  0  4.074311  0  0  0.420773  0  4.088259  0  0  0.236503  0.389417  0  4.064691  0
C  C40  1  0.71534392  0.53575058  0.20625828  1  0  0.023428  0  3.738954  0  0  -0.007322  0  4.015976  0  0  -0.011254  0  4.035218  0  0  0.024505  -0.00503  0  4.003132  0
C  C41  1  0.21534778  0.96424945  0.79374021  1  0  0.023283  0  3.739002  0  0  -0.007479  0  4.015973  0  0  -0.011401  0  4.035215  0  0  0.024464  -0.005183  0  4.003124  0
C  C42  1  0.28465972  0.46424720  0.79374043  1  0  0.023461  0  3.739104  0  0  -0.007286  0  4.016134  0  0  -0.011218  0  4.035377  0  0  0.024509  -0.004989  0  4.003275  0
C  C43  1  0.78465870  0.03575072  0.20625912  1  0  0.023394  0  3.739016  0  0  -0.007345  0  4.016019  0  0  -0.011278  0  4.035258  0  0  0.024497  -0.005046  0  4.003159  0
C  C44  1  0.68514338  0.47808187  0.10840429  1  0  0.090432  0  3.762622  0  0  0.060005  0  4.028315  0  0  0.06736  0  4.043959  0  0  0.043064  0.055318  0  4.017632  0
C  C45  1  0.18514313  0.02191943  0.89159526  1  0  0.090493  0  3.762562  0  0  0.060077  0  4.02826  0  0  0.067432  0  4.043896  0  0  0.043058  0.05539  0  4.017573  0
C  C46  1  0.31486026  0.52191671  0.89159533  1  0  0.090421  0  3.762658  0  0  0.059984  0  4.028349  0  0  0.067338  0  4.043992  0  0  0.043027  0.055295  0  4.017658  0
C  C47  1  0.81486052  0.97808074  0.10840407  1  0  0.090455  0  3.762606  0  0  0.060032  0  4.02829  0  0  0.067385  0  4.04393  0  0  0.043066  0.055345  0  4.017598  0
N  N48  1  0.61069255  0.49151870  0.27635580  1  0  -0.30021  0  3.230811  0  0  -0.265526  0  3.494896  0  0  -0.267501  0  3.511236  0  0  -0.344036  -0.263568  0  3.48381  0
N  N49  1  0.11069445  0.00848513  0.72364429  1  0  -0.300365  0  3.231048  0  0  -0.265636  0  3.495195  0  0  -0.267612  0  3.511535  0  0  -0.344135  -0.263679  0  3.48411  0
N  N50  1  0.38930826  0.50848068  0.72364332  1  0  -0.300239  0  3.230977  0  0  -0.265595  0  3.495065  0  0  -0.267574  0  3.51141  0  0  -0.344069  -0.263637  0  3.483972  0
N  N51  1  0.88930920  0.99151583  0.27635595  1  0  -0.300385  0  3.231084  0  0  -0.265665  0  3.495219  0  0  -0.267642  0  3.51156  0  0  -0.34413  -0.263706  0  3.484129  0
N  N52  1  0.54616996  0.37953409  0.07964231  1  0  -0.390483  0  3.05581  0  0  -0.340182  0  3.317257  0  0  -0.354526  0  3.328316  0  0  -0.31555  -0.330486  0  3.309729  0
N  N53  1  0.04617305  0.12046669  0.92035687  1  0  -0.390523  0  3.055885  0  0  -0.340237  0  3.317343  0  0  -0.354579  0  3.3284  0  0  -0.315551  -0.330553  0  3.309847  0
N  N54  1  0.45383085  0.62046529  0.92035751  1  0  -0.390507  0  3.055722  0  0  -0.340204  0  3.317175  0  0  -0.354544  0  3.328232  0  0  -0.315543  -0.330521  0  3.30968  0
N  N55  1  0.95383059  0.87953189  0.07964345  1  0  -0.390477  0  3.05589  0  0  -0.340161  0  3.31733  0  0  -0.354502  0  3.328387  0  0  -0.315517  -0.330477  0  3.309835  0
N  N56  1  0.28099341  0.23683629  0.12244569  1  0  -0.654055  0  3.14841  0  0  -0.616111  0  3.394209  0  0  -0.640244  0  3.393522  0  0  -0.57403  -0.599222  0  3.394361  0
N  N57  1  0.78100116  0.26316799  0.87755691  1  0  -0.653937  0  3.148286  0  0  -0.616012  0  3.394055  0  0  -0.640136  0  3.393344  0  0  -0.573946  -0.59912  0  3.394202  0
N  N58  1  0.71900173  0.76316308  0.87755484  1  0  -0.654074  0  3.148407  0  0  -0.616151  0  3.394242  0  0  -0.640287  0  3.393564  0  0  -0.574039  -0.599263  0  3.394396  0
N  N59  1  0.21900248  0.73683297  0.12244262  1  0  -0.65397  0  3.148315  0  0  -0.616024  0  3.394131  0  0  -0.640145  0  3.393419  0  0  -0.573969  -0.599133  0  3.394282  0
O  O60  1  0.23179053  0.25666595  0.31754748  1  0  -0.634946  0  1.970758  0  0  -0.568001  0  2.19181  0  0  -0.593076  0  2.182112  0  0  -0.301762  -0.550545  0  2.19806  0
O  O61  1  0.73178865  0.24333922  0.68245456  1  0  -0.634735  0  1.971044  0  0  -0.567848  0  2.192075  0  0  -0.592913  0  2.182372  0  0  -0.301669  -0.550388  0  2.198326  0
O  O62  1  0.76820461  0.74333421  0.68245395  1  0  -0.634953  0  1.970804  0  0  -0.568018  0  2.191884  0  0  -0.593086  0  2.18218  0  0  -0.301777  -0.550563  0  2.198139  0
O  O63  1  0.26820932  0.75666173  0.31754778  1  0  -0.634811  0  1.970961  0  0  -0.567899  0  2.192005  0  0  -0.592961  0  2.1823  0  0  -0.301693  -0.550439  0  2.198259  0
O  O64  1  0.43863021  0.41009853  0.42075860  1  0  -0.744904  0  2.01705  0  0  -0.693167  0  2.266768  0  0  -0.715219  0  2.25401  0  0  -0.399322  -0.677817  0  2.275155  0
O  O65  1  0.93863627  0.08990783  0.57924201  1  0  -0.744838  0  2.01708  0  0  -0.693119  0  2.266775  0  0  -0.715167  0  2.25403  0  0  -0.39932  -0.677769  0  2.275164  0
O  O66  1  0.56136776  0.58990164  0.57924144  1  0  -0.744887  0  2.017029  0  0  -0.693153  0  2.266774  0  0  -0.715206  0  2.254019  0  0  -0.399325  -0.677799  0  2.275161  0
O  O67  1  0.06136738  0.91009472  0.42075865  1  0  -0.744853  0  2.017132  0  0  -0.693122  0  2.266862  0  0  -0.715173  0  2.25412  0  0  -0.399301  -0.677768  0  2.275251  0
O  O68  1  0.09211083  0.64477596  0.43808967  1  0  -0.929872  0  1.846097  0  0  -0.886854  0  2.046835  0  0  -0.901766  0  2.01254  0  0  -0.643284  -0.876271  0  2.069833  0
O  O69  1  0.59211408  0.85522509  0.56191309  1  0  -0.929881  0  1.84587  0  0  -0.886707  0  2.0468  0  0  -0.901635  0  2.012523  0  0  -0.643244  -0.876119  0  2.069802  0
O  O70  1  0.90788998  0.35522420  0.56191036  1  0  -0.929906  0  1.845994  0  0  -0.886807  0  2.046842  0  0  -0.901711  0  2.012582  0  0  -0.643254  -0.876223  0  2.069843  0
O  O71  1  0.40788673  0.14477587  0.43808715  1  0  -0.929845  0  1.845882  0  0  -0.886676  0  2.046818  0  0  -0.901612  0  2.012529  0  0  -0.643242  -0.876095  0  2.069813  0
