# generated using pymatgen
data_KH4C6SIO5
_symmetry_space_group_name_H-M   'P 1'
_cell_length_a   7.02658609
_cell_length_b   10.06429001
_cell_length_c   13.02955034
_cell_angle_alpha   90.00009607
_cell_angle_beta   90.00041703
_cell_angle_gamma   97.25968981
_symmetry_Int_Tables_number   1
_chemical_formula_structural   KH4C6SIO5
_chemical_formula_sum   'K4 H16 C24 S4 I4 O20'
_cell_volume   914.03206596
_cell_formula_units_Z   4
loop_
 _symmetry_equiv_pos_site_id
 _symmetry_equiv_pos_as_xyz
  1  'x, y, z'
loop_
 _atom_site_type_symbol
 _atom_site_label
 _atom_site_symmetry_multiplicity
 _atom_site_fract_x
 _atom_site_fract_y
 _atom_site_fract_z
 _atom_site_occupancy
 _atom_site_pbe_bader_charge
 _atom_site_pbe_bader_spin_density
 _atom_site_pbe_cm5_charge
 _atom_site_pbe_ddec_charge
 _atom_site_pbe_ddec_spin_density
 _atom_site_pbe_ddec_sum_bond_order
 _atom_site_pbe_magmom
K  K0  1  0.15375992  0.96827112  0.39263086  1  0.883397  0  0.7678  0.886622  0  0.697134  0
K  K1  1  0.34623983  0.03172773  0.89262909  1  0.88337  0  0.7678  0.886612  0  0.697133  0
K  K2  1  0.84623803  0.03172319  0.60736767  1  0.883371  0  0.767806  0.886613  0  0.697111  0
K  K3  1  0.65375652  0.96826558  0.10736943  1  0.88337  0  0.767818  0.886633  0  0.697108  0
H  H4  1  0.18804649  0.58459333  0.49173365  1  0.109417  0  0.109926  0.120197  0  1.000219  0
H  H5  1  0.31196113  0.41540755  0.99173421  1  0.109435  0  0.109921  0.120196  0  1.00013  0
H  H6  1  0.81196145  0.41540900  0.50826564  1  0.109355  0  0.109926  0.120175  0  1.000184  0
H  H7  1  0.68803185  0.58459077  0.00826892  1  0.109833  0  0.109919  0.120218  0  1.000192  0
H  H8  1  0.23839744  0.34222329  0.47670228  1  0.157493  0  0.115561  0.134922  0  0.994192  0
H  H9  1  0.26161618  0.65777958  0.97670392  1  0.158123  0  0.115559  0.134867  0  0.994219  0
H  H10  1  0.76161477  0.65777903  0.52329394  1  0.15814  0  0.115572  0.134859  0  0.994237  0
H  H11  1  0.73838589  0.34222174  0.02329768  1  0.158126  0  0.115568  0.134913  0  0.994192  0
H  H12  1  0.46180975  0.35311745  0.78554410  1  0.109637  0  0.113474  0.116203  0  1.010949  0
H  H13  1  0.03817696  0.64688238  0.28554116  1  0.109482  0  0.113476  0.116196  0  1.01092  0
H  H14  1  0.53818981  0.64687786  0.21445443  1  0.109653  0  0.113495  0.116223  0  1.010872  0
H  H15  1  0.96181463  0.35312396  0.71445890  1  0.109737  0  0.113468  0.116195  0  1.010944  0
H  H16  1  0.40324525  0.59355664  0.80225700  1  0.110828  0  0.103784  0.113558  0  1.020764  0
H  H17  1  0.09674010  0.40644319  0.30225074  1  0.110925  0  0.103848  0.113618  0  1.020705  0
H  H18  1  0.59675413  0.40643767  0.19774690  1  0.110833  0  0.103801  0.113592  0  1.020779  0
H  H19  1  0.90325130  0.59356214  0.69775239  1  0.110922  0  0.103804  0.113608  0  1.020699  0
C  C20  1  0.29795399  0.59983265  0.64664115  1  -0.336136  0  -0.066571  -0.107425  0  3.880859  0
C  C21  1  0.20204801  0.40016815  0.14663789  1  -0.336091  0  -0.066566  -0.107471  0  3.881088  0
C  C22  1  0.70205714  0.40016367  0.35335737  1  -0.336265  0  -0.066645  -0.107522  0  3.880895  0
C  C23  1  0.79794588  0.59983518  0.85336601  1  -0.336285  0  -0.066544  -0.107315  0  3.880851  0
C  C24  1  0.24775513  0.53253503  0.55514656  1  -0.013775  0  -0.083997  -0.072975  0  3.982011  0
C  C25  1  0.25225148  0.46746174  0.05515072  1  -0.013987  0  -0.083995  -0.072933  0  3.982166  0
C  C26  1  0.75225956  0.46746529  0.44485273  1  -0.013923  0  -0.083938  -0.072779  0  3.981709  0
C  C27  1  0.74774508  0.53254059  0.94485317  1  -0.014506  0  -0.084016  -0.072972  0  3.982181  0
C  C28  1  0.27698664  0.39841086  0.54681849  1  -0.068517  0  -0.071747  -0.073124  0  3.911431  0
C  C29  1  0.22301888  0.60158791  0.04681897  1  -0.069066  0  -0.07177  -0.073159  0  3.911314  0
C  C30  1  0.72302627  0.60158746  0.45318004  1  -0.069157  0  -0.07185  -0.073276  0  3.911566  0
C  C31  1  0.77697892  0.39841342  0.95318339  1  -0.069136  0  -0.071833  -0.073309  0  3.911499  0
C  C32  1  0.35714262  0.33694307  0.62998348  1  -0.159638  0  -0.004556  -0.064563  0  3.926676  0
C  C33  1  0.14285504  0.66305772  0.12998513  1  -0.159698  0  -0.004567  -0.064539  0  3.926676  0
C  C34  1  0.64286602  0.66305525  0.37001504  1  -0.159481  0  -0.004546  -0.064614  0  3.926674  0
C  C35  1  0.85713600  0.33694561  0.87001724  1  -0.159511  0  -0.00447  -0.064449  0  3.926548  0
C  C36  1  0.40124358  0.40454966  0.72220102  1  -0.006179  0  -0.075632  -0.08018  0  3.945806  0
C  C37  1  0.09875303  0.59545116  0.22219528  1  -0.006034  0  -0.075606  -0.080156  0  3.945799  0
C  C38  1  0.59876328  0.59544666  0.27779673  1  -0.006257  0  -0.075564  -0.080006  0  3.945521  0
C  C39  1  0.90124283  0.40455518  0.77780324  1  -0.006196  0  -0.075637  -0.0801  0  3.945892  0
C  C40  1  0.37070292  0.53850945  0.73106940  1  0.02487  0  -0.087447  -0.072891  0  3.995702  0
C  C41  1  0.12928945  0.46149137  0.23107042  1  0.024886  0  -0.087519  -0.072908  0  3.995331  0
C  C42  1  0.62930233  0.46148587  0.26892836  1  0.024943  0  -0.087454  -0.072913  0  3.995688  0
C  C43  1  0.87070586  0.53851196  0.76893425  1  0.024934  0  -0.087476  -0.073007  0  3.995519  0
S  S44  1  0.41501593  0.17098572  0.61390078  1  3.180101  0  0.493974  1.197454  0  6.210524  0
S  S45  1  0.08498594  0.82901507  0.11389711  1  3.180032  0  0.493935  1.197346  0  6.210599  0
S  S46  1  0.58498683  0.82901160  0.38609621  1  3.179948  0  0.493806  1.197276  0  6.210634  0
S  S47  1  0.91501025  0.17098526  0.88610142  1  3.179821  0  0.493888  1.197269  0  6.210343  0
I  I48  1  0.26620854  0.80893631  0.65375592  1  2.075606  0  0.949706  1.301751  0  4.462983  0
I  I49  1  0.23378798  0.19106550  0.15375155  1  2.076276  0  0.949667  1.301738  0  4.46295  0
I  I50  1  0.73379904  0.19106402  0.34624567  1  2.075708  0  0.949733  1.301729  0  4.463158  0
I  I51  1  0.76620022  0.80893783  0.84624544  1  2.075708  0  0.949739  1.301664  0  4.463234  0
O  O52  1  0.05642670  0.79809144  0.57114759  1  -1.003486  0  -0.498401  -0.689467  0  1.861497  0
O  O53  1  0.44357643  0.20190934  0.07115080  1  -1.00383  0  -0.498385  -0.689461  0  1.861504  0
O  O54  1  0.94357731  0.20190488  0.42885247  1  -1.003421  0  -0.498411  -0.68945  0  1.861647  0
O  O55  1  0.55641943  0.79809699  0.92885310  1  -1.003458  0  -0.498459  -0.689458  0  1.861591  0
O  O56  1  0.15979368  0.81404836  0.78178301  1  -1.025918  0  -0.492768  -0.704071  0  1.899456  0
O  O57  1  0.34019852  0.18595047  0.28178548  1  -1.026184  0  -0.492734  -0.704062  0  1.899323  0
O  O58  1  0.84021211  0.18594996  0.21821782  1  -1.025927  0  -0.492761  -0.70404  0  1.899393  0
O  O59  1  0.65978895  0.81404885  0.71821995  1  -1.025879  0  -0.492722  -0.703966  0  1.899549  0
O  O60  1  0.23762823  0.08756588  0.58200335  1  -1.350189  0  -0.450008  -0.674708  0  2.317128  0
O  O61  1  0.26237013  0.91243190  0.08199878  1  -1.350197  0  -0.449985  -0.67466  0  2.317247  0
O  O62  1  0.76237045  0.91243244  0.41799518  1  -1.350189  0  -0.449952  -0.674627  0  2.317215  0
O  O63  1  0.73762658  0.08756342  0.91799820  1  -1.350103  0  -0.450011  -0.674695  0  2.317217  0
O  O64  1  0.49084244  0.12933472  0.71195732  1  -1.349727  0  -0.429006  -0.669181  0  2.254804  0
O  O65  1  0.00915912  0.87067010  0.21195862  1  -1.349669  0  -0.429022  -0.669172  0  2.254628  0
O  O66  1  0.50915534  0.87065859  0.28803890  1  -1.349757  0  -0.428933  -0.669091  0  2.254924  0
O  O67  1  0.99083780  0.12933423  0.78803837  1  -1.349659  0  -0.428926  -0.669058  0  2.254538  0
O  O68  1  0.56267881  0.18182115  0.53271584  1  -1.337769  0  -0.394094  -0.662136  0  2.330764  0
O  O69  1  0.93731477  0.81817963  0.03271757  1  -1.337768  0  -0.394074  -0.662085  0  2.330858  0
O  O70  1  0.43731878  0.81817116  0.46728115  1  -1.337611  0  -0.394079  -0.662135  0  2.330679  0
O  O71  1  0.06267930  0.18182470  0.96728556  1  -1.337706  0  -0.394096  -0.662137  0  2.330794  0
