# generated using pymatgen
data_CdH16C24(NO2)2
_symmetry_space_group_name_H-M   'P 1'
_cell_length_a   10.36883168
_cell_length_b   15.05304719
_cell_length_c   15.54896130
_cell_angle_alpha   89.99992294
_cell_angle_beta   89.99998582
_cell_angle_gamma   102.00502116
_symmetry_Int_Tables_number   1
_chemical_formula_structural   CdH16C24(NO2)2
_chemical_formula_sum   'Cd4 H64 C96 N8 O16'
_cell_volume   2373.84267222
_cell_formula_units_Z   4
loop_
 _symmetry_equiv_pos_site_id
 _symmetry_equiv_pos_as_xyz
  1  'x, y, z'
loop_
 _atom_site_type_symbol
 _atom_site_label
 _atom_site_symmetry_multiplicity
 _atom_site_fract_x
 _atom_site_fract_y
 _atom_site_fract_z
 _atom_site_occupancy
 _atom_site_pbe_bader_charge
 _atom_site_pbe_bader_spin_density
 _atom_site_pbe_cm5_charge
 _atom_site_pbe_ddec_charge
 _atom_site_pbe_ddec_spin_density
 _atom_site_pbe_ddec_sum_bond_order
 _atom_site_pbe_magmom
Cd  Cd0  1  0.12962211  0.46945330  0.42180599  1  1.279644  0  0.778412  0.876376  0  2.215222  0
Cd  Cd1  1  0.87037950  0.03054765  0.92180682  1  1.279621  0  0.778395  0.876355  0  2.215253  0
Cd  Cd2  1  0.87037898  0.53054814  0.57819448  1  1.279714  0  0.778388  0.876358  0  2.215183  0
Cd  Cd3  1  0.12961984  0.96945107  0.07819236  1  1.279768  0  0.778387  0.876373  0  2.215225  0
H  H4  1  0.07181592  0.73804371  0.61316652  1  0.118582  0  0.106813  0.118373  0  1.038113  0
H  H5  1  0.92818345  0.76195410  0.11316583  1  0.118619  0  0.106818  0.1184  0  1.038047  0
H  H6  1  0.92818556  0.26195910  0.38683331  1  0.11853  0  0.106837  0.118404  0  1.038176  0
H  H7  1  0.07181336  0.23804257  0.88683528  1  0.118576  0  0.106812  0.118388  0  1.038108  0
H  H8  1  0.37924557  0.98123744  0.62533499  1  0.056747  0  0.09766  0.090027  0  1.046355  0
H  H9  1  0.62075225  0.51876169  0.12533596  1  0.056793  0  0.09766  0.090019  0  1.046321  0
H  H10  1  0.62075919  0.01876335  0.37466676  1  0.056497  0  0.097674  0.090075  0  1.046335  0
H  H11  1  0.37924323  0.48123700  0.87466708  1  0.056346  0  0.097682  0.090066  0  1.046319  0
H  H12  1  0.51083360  0.91430536  0.52221367  1  0.038721  0  0.100191  0.097688  0  1.001499  0
H  H13  1  0.48916507  0.58569326  0.02221328  1  0.038686  0  0.100213  0.097754  0  1.001422  0
H  H14  1  0.48916845  0.08569609  0.47778616  1  0.038756  0  0.10021  0.097745  0  1.001473  0
H  H15  1  0.51083310  0.41430477  0.97778719  1  0.038732  0  0.100205  0.09774  0  1.001466  0
H  H16  1  0.42282373  0.75785464  0.46322913  1  0.113733  0  0.101824  0.105709  0  1.034677  0
H  H17  1  0.57717517  0.74214535  0.96322973  1  0.113715  0  0.101824  0.105712  0  1.034678  0
H  H18  1  0.57717582  0.24214815  0.53676813  1  0.113707  0  0.101804  0.105652  0  1.034713  0
H  H19  1  0.42282474  0.25785202  0.03676946  1  0.11369  0  0.101816  0.105687  0  1.034654  0
H  H20  1  0.84023532  0.87215168  0.79426850  1  0.135301  0  0.115266  0.087706  0  1.024854  0
H  H21  1  0.15976352  0.62784788  0.29426811  1  0.135312  0  0.115267  0.087707  0  1.024873  0
H  H22  1  0.15976616  0.12785112  0.20572940  1  0.135438  0  0.115237  0.087688  0  1.024863  0
H  H23  1  0.84023736  0.37214949  0.70573043  1  0.135295  0  0.115246  0.087682  0  1.024902  0
H  H24  1  0.95518422  0.80169089  0.68293312  1  0.152395  0  0.105498  0.128317  0  1.061619  0
H  H25  1  0.04481568  0.69830885  0.18293202  1  0.152419  0  0.105505  0.128337  0  1.061555  0
H  H26  1  0.04481919  0.19831192  0.31706671  1  0.152342  0  0.105514  0.12834  0  1.06157  0
H  H27  1  0.95518307  0.30168783  0.81706588  1  0.152351  0  0.105514  0.128309  0  1.061624  0
H  H28  1  0.29614270  0.01877837  0.72924610  1  0.072748  0  0.100046  0.09991  0  1.067441  0
H  H29  1  0.70385500  0.48122216  0.22924774  1  0.07275  0  0.10004  0.099868  0  1.067452  0
H  H30  1  0.70386032  0.98122309  0.27075630  1  0.072799  0  0.100045  0.0999  0  1.067469  0
H  H31  1  0.29614298  0.51877519  0.77075530  1  0.072796  0  0.10006  0.099916  0  1.06748  0
H  H32  1  0.16217758  0.08177885  0.83400484  1  0.103555  0  0.114766  0.087251  0  1.007489  0
H  H33  1  0.83782254  0.41822018  0.33400589  1  0.103531  0  0.114776  0.087284  0  1.007466  0
H  H34  1  0.83782331  0.91822191  0.16599563  1  0.10359  0  0.114753  0.087179  0  1.007579  0
H  H35  1  0.16217950  0.58177788  0.66599522  1  0.103533  0  0.114789  0.087255  0  1.007476  0
H  H36  1  0.47233186  0.43632512  0.21986324  1  0.044257  0  0.099401  0.096852  0  1.032357  0
H  H37  1  0.52766816  0.06367341  0.71986343  1  0.044224  0  0.099441  0.096955  0  1.032293  0
H  H38  1  0.52766575  0.56367427  0.78013530  1  0.044276  0  0.099443  0.096887  0  1.032336  0
H  H39  1  0.47233253  0.93632667  0.28013704  1  0.044221  0  0.099474  0.097003  0  1.032271  0
H  H40  1  0.62524907  0.35437344  0.14293595  1  0.047654  0  0.09756  0.090169  0  1.028971  0
H  H41  1  0.37475238  0.14562657  0.64293478  1  0.04764  0  0.097568  0.090204  0  1.028904  0
H  H42  1  0.37474893  0.64562730  0.85706259  1  0.047645  0  0.097548  0.090158  0  1.028998  0
H  H43  1  0.62524948  0.85437420  0.35706312  1  0.047667  0  0.097551  0.090161  0  1.028994  0
H  H44  1  0.42564336  0.10346778  0.25935870  1  0.049971  0  0.10512  0.110411  0  1.011335  0
H  H45  1  0.57435392  0.39653135  0.75935846  1  0.049978  0  0.105098  0.110399  0  1.011368  0
H  H46  1  0.57435424  0.89653160  0.74064113  1  0.049966  0  0.105105  0.110397  0  1.011341  0
H  H47  1  0.42564408  0.60346940  0.24064008  1  0.049822  0  0.105107  0.110407  0  1.011371  0
H  H48  1  0.27902533  0.18725794  0.33784686  1  0.10854  0  0.105571  0.105944  0  1.004591  0
H  H49  1  0.72097324  0.31274243  0.83784670  1  0.108561  0  0.105547  0.105862  0  1.004657  0
H  H50  1  0.72097459  0.81274281  0.66215425  1  0.108551  0  0.105558  0.105912  0  1.004618  0
H  H51  1  0.27902418  0.68725966  0.16215313  1  0.108544  0  0.105556  0.10587  0  1.004651  0
H  H52  1  0.92336596  0.19916820  0.05070672  1  0.12495  0  0.117602  0.092733  0  0.989965  0
H  H53  1  0.07663325  0.30083397  0.55070668  1  0.124951  0  0.117588  0.09273  0  0.990017  0
H  H54  1  0.07663436  0.80083392  0.94929311  1  0.124961  0  0.11758  0.092738  0  0.990011  0
H  H55  1  0.92336668  0.69916679  0.44929057  1  0.124977  0  0.117595  0.092748  0  0.989973  0
H  H56  1  0.79745762  0.28209159  0.14809775  1  0.06739  0  0.107436  0.115366  0  0.998264  0
H  H57  1  0.20253995  0.21790839  0.64809651  1  0.067385  0  0.107446  0.115365  0  0.998255  0
H  H58  1  0.20254038  0.71790916  0.85190144  1  0.067395  0  0.107446  0.115397  0  0.998247  0
H  H59  1  0.79745862  0.78209100  0.35189882  1  0.06738  0  0.107422  0.115323  0  0.998323  0
H  H60  1  0.47077622  0.05059270  0.13004784  1  0.174168  0  0.109333  0.134817  0  1.049531  0
H  H61  1  0.52922484  0.44940597  0.63004561  1  0.174172  0  0.109338  0.134817  0  1.049539  0
H  H62  1  0.52922679  0.94940537  0.86995327  1  0.174141  0  0.10933  0.134797  0  1.049553  0
H  H63  1  0.47077296  0.55059409  0.36995358  1  0.174137  0  0.109324  0.134799  0  1.049561  0
H  H64  1  0.61311067  0.97731808  0.03596763  1  0.138486  0  0.115944  0.088767  0  1.009273  0
H  H65  1  0.38689032  0.52268189  0.53596726  1  0.13847  0  0.115952  0.088791  0  1.009324  0
H  H66  1  0.38689293  0.02268202  0.96403284  1  0.138353  0  0.115929  0.088744  0  1.009371  0
H  H67  1  0.61310864  0.47731886  0.46403256  1  0.13847  0  0.115949  0.088774  0  1.009353  0
C  C68  1  0.19085559  0.64780717  0.49733439  1  1.571967  0  0.198127  0.56244  0  4.230233  0
C  C69  1  0.80914522  0.85219278  0.99733610  1  1.572063  0  0.198169  0.562578  0  4.230122  0
C  C70  1  0.80914589  0.35219563  0.50266479  1  1.572009  0  0.198077  0.562385  0  4.230195  0
C  C71  1  0.19085663  0.14780460  0.00266566  1  1.572117  0  0.198106  0.56242  0  4.230209  0
C  C72  1  0.24236959  0.74032396  0.53486417  1  -0.088407  0  -0.020066  -0.032361  0  3.983022  0
C  C73  1  0.75762851  0.75967599  0.03486479  1  -0.088389  0  -0.020053  -0.032334  0  3.982899  0
C  C74  1  0.75763073  0.25967815  0.46513566  1  -0.088455  0  -0.020007  -0.03232  0  3.98304  0
C  C75  1  0.24236987  0.24032272  0.96513568  1  -0.088456  0  -0.019963  -0.032184  0  3.98291  0
C  C76  1  0.16792360  0.77793261  0.59445848  1  -0.00461  0  -0.078021  -0.133317  0  3.893415  0
C  C77  1  0.83207522  0.72206658  0.09445850  1  -0.004622  0  -0.07801  -0.13332  0  3.893254  0
C  C78  1  0.83207905  0.22207088  0.40554199  1  -0.004636  0  -0.078052  -0.133347  0  3.893361  0
C  C79  1  0.16792083  0.27793076  0.90554390  1  -0.004669  0  -0.078071  -0.133422  0  3.893365  0
C  C80  1  0.21590470  0.86478574  0.62919901  1  -0.065015  0  -0.010454  0.054609  0  3.985659  0
C  C81  1  0.78409408  0.63521340  0.12919979  1  -0.065028  0  -0.010462  0.054548  0  3.985665  0
C  C82  1  0.78409755  0.13521639  0.37080146  1  -0.064954  0  -0.010471  0.054601  0  3.985686  0
C  C83  1  0.21590506  0.36478464  0.87080325  1  -0.064999  0  -0.010481  0.054569  0  3.985761  0
C  C84  1  0.33990066  0.91308682  0.60114757  1  -0.014136  0  -0.085009  -0.11871  0  3.966881  0
C  C85  1  0.66009911  0.58691236  0.10114844  1  -0.014216  0  -0.085029  -0.118709  0  3.966895  0
C  C86  1  0.66010352  0.08691532  0.39885290  1  -0.013604  0  -0.084996  -0.118743  0  3.966932  0
C  C87  1  0.33989694  0.41308498  0.89885460  1  -0.013444  0  -0.084996  -0.11869  0  3.967014  0
C  C88  1  0.41458250  0.87559022  0.54219124  1  -0.033349  0  -0.092353  -0.084771  0  4.035033  0
C  C89  1  0.58541539  0.62440904  0.04219272  1  -0.033348  0  -0.092372  -0.084825  0  4.035034  0
C  C90  1  0.58541782  0.12441190  0.45780666  1  -0.033551  0  -0.09243  -0.084934  0  4.035095  0
C  C91  1  0.41458182  0.37558899  0.95780775  1  -0.033547  0  -0.092402  -0.084924  0  4.035059  0
C  C92  1  0.36668870  0.78896271  0.50929650  1  -0.012727  0  -0.078161  -0.076301  0  3.943021  0
C  C93  1  0.63330922  0.71103660  0.00929786  1  -0.012685  0  -0.078165  -0.076327  0  3.943066  0
C  C94  1  0.63331182  0.21104008  0.49070076  1  -0.01268  0  -0.078163  -0.07622  0  3.942991  0
C  C95  1  0.36668857  0.28896008  0.99070326  1  -0.012711  0  -0.078183  -0.076298  0  3.942891  0
C  C96  1  0.94106590  0.90322577  0.77604410  1  0.413965  0  0.044595  0.096877  0  3.948841  0
C  C97  1  0.05893509  0.59677452  0.27604248  1  0.413937  0  0.044594  0.096903  0  3.94878  0
C  C98  1  0.05893674  0.09677772  0.22395573  1  0.413745  0  0.04466  0.097011  0  3.948819  0
C  C99  1  0.94106560  0.40322218  0.72395541  1  0.413887  0  0.044656  0.097024  0  3.948725  0
C  C100  1  0.00764146  0.86387978  0.71395067  1  0.050186  0  -0.086844  -0.181417  0  3.911288  0
C  C101  1  0.99235725  0.63611923  0.21395077  1  0.050183  0  -0.086895  -0.181492  0  3.911202  0
C  C102  1  0.99236156  0.13612168  0.28604980  1  0.05013  0  -0.086824  -0.181429  0  3.911171  0
C  C103  1  0.00764073  0.36387812  0.78605034  1  0.050129  0  -0.08688  -0.181492  0  3.911234  0
C  C104  1  0.13892934  0.90437398  0.69353061  1  -0.042699  0  0.013127  0.117863  0  3.967385  0
C  C105  1  0.86107132  0.59562507  0.19353080  1  -0.042677  0  0.013121  0.117874  0  3.967242  0
C  C106  1  0.86107561  0.09562749  0.30647114  1  -0.04267  0  0.013115  0.117825  0  3.967319  0
C  C107  1  0.13892492  0.40437295  0.80647096  1  -0.042674  0  0.013181  0.11799  0  3.967246  0
C  C108  1  0.19418676  0.98432844  0.73847375  1  -0.082757  0  -0.091163  -0.189938  0  3.967187  0
C  C109  1  0.80581271  0.51566986  0.23847469  1  -0.082777  0  -0.091109  -0.189793  0  3.96712  0
C  C110  1  0.80581704  0.01567234  0.26152736  1  -0.082755  0  -0.091137  -0.189909  0  3.967241  0
C  C111  1  0.19418508  0.48432682  0.76152642  1  -0.082932  0  -0.091215  -0.190037  0  3.967377  0
C  C112  1  0.12017139  0.02011603  0.79851312  1  0.501425  0  0.04245  0.097637  0  3.975298  0
C  C113  1  0.87982779  0.47988305  0.29851345  1  0.501387  0  0.042461  0.097592  0  3.975366  0
C  C114  1  0.87983144  0.97988474  0.20148863  1  0.501443  0  0.04248  0.097792  0  3.975426  0
C  C115  1  0.12017135  0.52011499  0.70148831  1  0.501615  0  0.042454  0.097706  0  3.975343  0
C  C116  1  0.27198716  0.36647842  0.32530314  1  1.556601  0  0.188203  0.552975  0  4.24102  0
C  C117  1  0.72801549  0.13352268  0.82530386  1  1.555431  0  0.18818  0.552823  0  4.241315  0
C  C118  1  0.72801354  0.63352166  0.67469797  1  1.556702  0  0.188161  0.552831  0  4.241219  0
C  C119  1  0.27198250  0.86647806  0.17469790  1  1.556087  0  0.188122  0.552849  0  4.241296  0
C  C120  1  0.36569043  0.31663945  0.28241220  1  -0.019949  0  -0.015374  -0.017797  0  3.953369  0
C  C121  1  0.63430993  0.18336035  0.78241222  1  -0.019934  0  -0.015361  -0.017697  0  3.953301  0
C  C122  1  0.63430814  0.68335995  0.71758827  1  -0.019941  0  -0.015386  -0.017728  0  3.953329  0
C  C123  1  0.36568903  0.81664040  0.21758889  1  -0.019954  0  -0.015389  -0.017739  0  3.953369  0
C  C124  1  0.46541904  0.36358628  0.22869474  1  -0.044272  0  -0.087949  -0.097071  0  3.996212  0
C  C125  1  0.53458077  0.13641155  0.72869484  1  -0.044249  0  -0.08798  -0.097215  0  3.996165  0
C  C126  1  0.53457972  0.63641379  0.77130508  1  -0.044284  0  -0.087983  -0.09717  0  3.996261  0
C  C127  1  0.46541876  0.86358784  0.27130498  1  -0.044278  0  -0.087999  -0.09728  0  3.996201  0
C  C128  1  0.55043438  0.31774361  0.18671769  1  -0.043039  0  -0.092383  -0.139931  0  4.003752  0
C  C129  1  0.44956566  0.18225497  0.68671710  1  -0.043023  0  -0.092441  -0.140026  0  4.00372  0
C  C130  1  0.44956438  0.68225647  0.81328150  1  -0.04303  0  -0.09243  -0.139969  0  4.003789  0
C  C131  1  0.55043464  0.81774375  0.31328144  1  -0.042987  0  -0.092425  -0.139986  0  4.003882  0
C  C132  1  0.53710461  0.22334180  0.19640135  1  -0.009327  0  -0.003156  0.067169  0  3.980531  0
C  C133  1  0.46289447  0.27665676  0.69640064  1  -0.009522  0  -0.003148  0.067209  0  3.980513  0
C  C134  1  0.46289532  0.77665896  0.80359847  1  -0.009374  0  -0.003158  0.067283  0  3.980474  0
C  C135  1  0.53710410  0.72334263  0.30359726  1  -0.009351  0  -0.003154  0.067273  0  3.980522  0
C  C136  1  0.43821027  0.17672243  0.25133947  1  0.021224  0  -0.078625  -0.10621  0  3.936997  0
C  C137  1  0.56178702  0.32327671  0.75133932  1  0.021259  0  -0.078568  -0.10617  0  3.936999  0
C  C138  1  0.56178830  0.82327696  0.74866036  1  0.021222  0  -0.078576  -0.106215  0  3.936963  0
C  C139  1  0.43821077  0.67672336  0.24865922  1  0.021408  0  -0.07857  -0.106205  0  3.936955  0
C  C140  1  0.35482092  0.22311607  0.29447802  1  -0.075165  0  -0.081161  -0.090609  0  3.970617  0
C  C141  1  0.64517826  0.27688302  0.79447727  1  -0.075144  0  -0.081155  -0.090548  0  3.970622  0
C  C142  1  0.64517977  0.77688401  0.70552310  1  -0.075152  0  -0.081141  -0.090572  0  3.970574  0
C  C143  1  0.35481973  0.72311772  0.20552191  1  -0.075161  0  -0.081132  -0.090522  0  3.970592  0
C  C144  1  0.82273892  0.16923695  0.07027268  1  0.445734  0  0.0468  0.105757  0  3.961543  0
C  C145  1  0.17726085  0.33076383  0.57027259  1  0.445743  0  0.046802  0.105722  0  3.961577  0
C  C146  1  0.17726005  0.83076380  0.92972650  1  0.44574  0  0.046817  0.105743  0  3.961501  0
C  C147  1  0.82273869  0.66923557  0.42972402  1  0.445761  0  0.046801  0.105719  0  3.96153  0
C  C148  1  0.75122811  0.21511641  0.12369488  1  -0.022198  0  -0.08543  -0.182987  0  3.952608  0
C  C149  1  0.24877122  0.28488294  0.62369419  1  -0.022192  0  -0.085469  -0.182984  0  3.952662  0
C  C150  1  0.24877182  0.78488435  0.87630431  1  -0.022156  0  -0.085479  -0.183051  0  3.952612  0
C  C151  1  0.75122812  0.71511578  0.37630242  1  -0.022207  0  -0.08542  -0.182905  0  3.952555  0
C  C152  1  0.62085975  0.17457675  0.14590219  1  0.033401  0  0.013976  0.114138  0  3.97435  0
C  C153  1  0.37914033  0.32542190  0.64590014  1  0.033538  0  0.013947  0.11404  0  3.97437  0
C  C154  1  0.37914114  0.82542402  0.85409828  1  0.033408  0  0.013919  0.113946  0  3.974394  0
C  C155  1  0.62085804  0.67457682  0.35409776  1  0.033373  0  0.014009  0.11413  0  3.974376  0
C  C156  1  0.57092024  0.08636857  0.11506417  1  -0.079206  0  -0.083254  -0.176583  0  3.912018  0
C  C157  1  0.42908006  0.41363080  0.61506329  1  -0.079217  0  -0.083214  -0.176498  0  3.911837  0
C  C158  1  0.42908142  0.91363152  0.88493565  1  -0.079248  0  -0.083188  -0.176416  0  3.911781  0
C  C159  1  0.57091851  0.58636859  0.38493525  1  -0.079196  0  -0.083248  -0.176559  0  3.911931  0
C  C160  1  0.64934704  0.04514609  0.06228896  1  0.427739  0  0.043984  0.092043  0  3.95299  0
C  C161  1  0.35065273  0.45485471  0.56228740  1  0.428196  0  0.044021  0.09207  0  3.952937  0
C  C162  1  0.35065502  0.95485536  0.93771215  1  0.428282  0  0.043994  0.092043  0  3.952934  0
C  C163  1  0.64934603  0.54514537  0.43771179  1  0.427738  0  0.04396  0.091981  0  3.952966  0
N  N164  1  0.99520128  0.98034892  0.81774008  1  -1.257629  0  -0.335605  -0.240779  0  3.532447  0
N  N165  1  0.00479735  0.51964994  0.31773857  1  -1.257508  0  -0.335622  -0.240841  0  3.532451  0
N  N166  1  0.00480000  0.01965321  0.18225975  1  -1.257578  0  -0.335679  -0.240982  0  3.532557  0
N  N167  1  0.99520276  0.48034811  0.68226061  1  -1.257404  0  -0.33564  -0.240906  0  3.532447  0
N  N168  1  0.77252614  0.08589597  0.03900570  1  -1.241311  0  -0.333848  -0.243972  0  3.520044  0
N  N169  1  0.22747365  0.41410486  0.53900485  1  -1.241783  0  -0.333865  -0.243986  0  3.519977  0
N  N170  1  0.22747572  0.91410480  0.96099477  1  -1.241713  0  -0.333831  -0.243927  0  3.51991  0
N  N171  1  0.77252435  0.58589588  0.46099434  1  -1.241299  0  -0.333866  -0.243983  0  3.519946  0
O  O172  1  0.26534977  0.61555792  0.44631106  1  -1.16095  0  -0.321387  -0.540843  0  2.218544  0
O  O173  1  0.73464993  0.88444482  0.94631595  1  -1.160996  0  -0.321434  -0.540923  0  2.218597  0
O  O174  1  0.73464978  0.38444487  0.55368812  1  -1.161056  0  -0.321354  -0.540795  0  2.218373  0
O  O175  1  0.26535097  0.11555595  0.05368902  1  -1.161101  0  -0.321351  -0.540805  0  2.218435  0
O  O176  1  0.30167338  0.45331542  0.32465802  1  -1.164618  0  -0.335737  -0.563575  0  2.215097  0
O  O177  1  0.69832907  0.04668501  0.82465821  1  -1.164582  0  -0.335716  -0.563516  0  2.215137  0
O  O178  1  0.69832808  0.54668399  0.67534566  1  -1.164738  0  -0.335696  -0.563517  0  2.215085  0
O  O179  1  0.30166776  0.95331505  0.17534354  1  -1.164595  0  -0.335637  -0.563477  0  2.21517  0
O  O180  1  0.16835976  0.32136796  0.36108949  1  -1.178112  0  -0.3344  -0.570589  0  2.190024  0
O  O181  1  0.83164092  0.17863307  0.86109142  1  -1.177008  0  -0.334405  -0.570533  0  2.190254  0
O  O182  1  0.83163784  0.67863142  0.63890841  1  -1.178109  0  -0.334388  -0.570526  0  2.190157  0
O  O183  1  0.16835765  0.82136632  0.13890970  1  -1.177678  0  -0.334428  -0.570607  0  2.190203  0
O  O184  1  0.07533109  0.60486066  0.51761102  1  -1.209646  0  -0.339293  -0.600115  0  2.361456  0
O  O185  1  0.92467183  0.89513596  0.01760952  1  -1.209606  0  -0.339303  -0.600193  0  2.361448  0
O  O186  1  0.92467096  0.39514079  0.48239137  1  -1.209719  0  -0.339279  -0.60007  0  2.361481  0
O  O187  1  0.07533251  0.10485669  0.98238966  1  -1.209743  0  -0.339332  -0.600169  0  2.361559  0
