# generated using pymatgen
data_CdH10C16N2O5
_symmetry_space_group_name_H-M   'P 1'
_cell_length_a   7.77708567
_cell_length_b   9.18885287
_cell_length_c   19.72800000
_cell_angle_alpha   90.00000000
_cell_angle_beta   90.12064627
_cell_angle_gamma   90.00000000
_symmetry_Int_Tables_number   1
_chemical_formula_structural   CdH10C16N2O5
_chemical_formula_sum   'Cd4 H40 C64 N8 O20'
_cell_volume   1409.80899485
_cell_formula_units_Z   4
loop_
 _symmetry_equiv_pos_site_id
 _symmetry_equiv_pos_as_xyz
  1  'x, y, z'
loop_
 _atom_site_type_symbol
 _atom_site_label
 _atom_site_symmetry_multiplicity
 _atom_site_fract_x
 _atom_site_fract_y
 _atom_site_fract_z
 _atom_site_occupancy
 _atom_site_pbe_bader_charge
 _atom_site_pbe_bader_spin_density
 _atom_site_pbe_cm5_charge
 _atom_site_pbe_ddec_charge
 _atom_site_pbe_ddec_spin_density
 _atom_site_pbe_ddec_sum_bond_order
 _atom_site_pbe_magmom
Cd  Cd0  1  0.15348328  0.03947827  0.92525869  1  1.292751  0  0.774987  0.904507  0  2.173606  0
Cd  Cd1  1  0.84651692  0.53947648  0.07474212  1  1.292827  0  0.775007  0.90455  0  2.173546  0
Cd  Cd2  1  0.65420409  0.65148937  0.57465041  1  1.291592  0  0.774818  0.90385  0  2.174023  0
Cd  Cd3  1  0.34579868  0.15148899  0.42534990  1  1.291611  0  0.774803  0.903785  0  2.174101  0
H  H4  1  0.04865972  0.22370475  0.02854353  1  0.645908  0  0.282968  0.372288  0  0.974854  0
H  H5  1  0.95134176  0.72370622  0.97145576  1  0.645912  0  0.282977  0.372323  0  0.974804  0
H  H6  1  0.25443906  0.24129236  0.01820188  1  0.653692  0  0.281022  0.36702  0  0.989621  0
H  H7  1  0.74556371  0.74129710  0.98179944  1  0.653671  0  0.281069  0.367107  0  0.9895  0
H  H8  1  0.05768112  0.40119589  0.93058113  1  0.105673  0  0.11926  0.089052  0  1.002828  0
H  H9  1  0.94232037  0.90119192  0.06941917  1  0.105731  0  0.119273  0.089099  0  1.002795  0
H  H10  1  0.95621507  0.59781238  0.85318121  1  0.10856  0  0.109049  0.120315  0  1.01203  0
H  H11  1  0.04378514  0.09781199  0.14681808  1  0.108601  0  0.109052  0.120292  0  1.012018  0
H  H12  1  0.93042771  0.54300684  0.72776342  1  0.090235  0  0.109359  0.115745  0  1.014455  0
H  H13  1  0.06957249  0.04300754  0.27223689  1  0.09023  0  0.109358  0.115747  0  1.01445  0
H  H14  1  0.93996087  0.36044978  0.63520391  1  0.109465  0  0.103983  0.110394  0  1.04686  0
H  H15  1  0.06004062  0.86045234  0.36479741  1  0.109421  0  0.103977  0.110427  0  1.046742  0
H  H16  1  0.01633135  0.11350492  0.59536433  1  0.085644  0  0.107855  0.117223  0  1.011238  0
H  H17  1  0.98367014  0.61350748  0.40463699  1  0.085594  0  0.107849  0.117221  0  1.011266  0
H  H18  1  0.12164609  0.86092792  0.62133222  1  0.178196  0  0.114108  0.126524  0  1.031741  0
H  H19  1  0.87835797  0.36092971  0.37867011  1  0.178135  0  0.114103  0.126557  0  1.031723  0
H  H20  1  0.22038124  0.68118731  0.70739451  1  0.105727  0  0.108757  0.118668  0  0.998933  0
H  H21  1  0.77962539  0.18118584  0.29260833  1  0.105718  0  0.108703  0.118582  0  0.998927  0
H  H22  1  0.22330522  0.75394612  0.83062028  1  0.120259  0  0.114257  0.080423  0  1.013411  0
H  H23  1  0.77669627  0.25394138  0.16938205  1  0.120344  0  0.114256  0.080388  0  1.013423  0
H  H24  1  0.54817700  0.46747837  0.47138721  1  0.67684  0  0.282875  0.372047  0  0.975473  0
H  H25  1  0.45182449  0.96747767  0.52861360  1  0.67683  0  0.28285  0.372029  0  0.975488  0
H  H26  1  0.75407977  0.44988314  0.48176089  1  0.650551  0  0.280855  0.366492  0  0.990442  0
H  H27  1  0.24592171  0.94988026  0.51823891  1  0.650542  0  0.280848  0.366476  0  0.99046  0
H  H28  1  0.72434363  0.93673825  0.66947951  1  0.10229  0  0.114185  0.080452  0  1.013942  0
H  H29  1  0.27566171  0.43674113  0.33052079  1  0.102257  0  0.114199  0.080428  0  1.014024  0
H  H30  1  0.71980722  0.00970197  0.79267881  1  0.119859  0  0.108842  0.1189  0  0.998922  0
H  H31  1  0.28019813  0.50970563  0.20732201  1  0.119826  0  0.108829  0.118852  0  0.998938  0
H  H32  1  0.61995854  0.83003070  0.87840949  1  0.17994  0  0.114095  0.126628  0  1.030412  0
H  H33  1  0.38004166  0.33003467  0.12159081  1  0.179944  0  0.114091  0.126594  0  1.030428  0
H  H34  1  0.51438148  0.57766188  0.90406344  1  0.097231  0  0.107853  0.117096  0  1.010306  0
H  H35  1  0.48561357  0.07766475  0.09593635  1  0.097201  0  0.107847  0.117131  0  1.010286  0
H  H36  1  0.43844027  0.33059295  0.86405565  1  0.108464  0  0.103936  0.110927  0  1.045184  0
H  H37  1  0.56154964  0.83059334  0.13594262  1  0.108204  0  0.103947  0.110969  0  1.045151  0
H  H38  1  0.42960790  0.14796624  0.77166541  1  0.09054  0  0.109455  0.115694  0  1.01476  0
H  H39  1  0.57038202  0.64796445  0.22833184  1  0.090541  0  0.10946  0.115669  0  1.014759  0
H  H40  1  0.45669265  0.09262854  0.64638477  1  0.094785  0  0.108802  0.119747  0  1.013245  0
H  H41  1  0.54329855  0.59262784  0.35361248  1  0.094851  0  0.108773  0.119703  0  1.013306  0
H  H42  1  0.55928787  0.28885325  0.56915546  1  0.105807  0  0.119147  0.089145  0  1.002667  0
H  H43  1  0.44071234  0.78885364  0.43084282  1  0.105846  0  0.119128  0.089108  0  1.002708  0
C  C44  1  0.09350567  0.06525298  0.76615477  1  0.445687  0  0.116276  0.111884  0  3.984119  0
C  C45  1  0.90649453  0.56525554  0.23384655  1  0.445904  0  0.116295  0.111922  0  3.984057  0
C  C46  1  0.05521618  0.21173590  0.78898541  1  0.510647  0  0.115049  0.118483  0  3.97451  0
C  C47  1  0.94478402  0.71173302  0.21101540  1  0.510116  0  0.115071  0.11854  0  3.974415  0
C  C48  1  0.04037897  0.37977972  0.87657194  1  0.564133  0  0.059882  0.11748  0  3.937202  0
C  C49  1  0.95962381  0.87977576  0.12342837  1  0.564179  0  0.059796  0.117312  0  3.93729  0
C  C50  1  0.98529158  0.49075549  0.83248860  1  -0.070975  0  -0.082694  -0.124458  0  3.967231  0
C  C51  1  0.01470863  0.99075261  0.16751120  1  -0.071051  0  -0.082689  -0.124387  0  3.967146  0
C  C52  1  0.96827488  0.45972550  0.76426381  1  -0.068204  0  -0.065305  -0.078659  0  3.9166  0
C  C53  1  0.03172661  0.95972480  0.23573599  1  -0.068201  0  -0.065313  -0.078632  0  3.916587  0
C  C54  1  0.00190560  0.31736279  0.74059059  1  0.023124  0  -0.002586  0.049595  0  3.995208  0
C  C55  1  0.99809589  0.81736209  0.25941123  1  0.023285  0  -0.002599  0.049404  0  3.995269  0
C  C56  1  0.98523757  0.27813809  0.67066577  1  0.049746  0  -0.087506  -0.124763  0  3.97944  0
C  C57  1  0.01476263  0.77813848  0.32933555  1  0.049705  0  -0.087478  -0.124653  0  3.979277  0
C  C58  1  0.02586450  0.14140285  0.64894128  1  -0.121352  0  -0.081241  -0.109329  0  3.964552  0
C  C59  1  0.97413441  0.64140324  0.35106004  1  -0.121322  0  -0.081228  -0.109382  0  3.964566  0
C  C60  1  0.08268797  0.03232612  0.69575447  1  0.022996  0  -0.001085  0.035106  0  4.006598  0
C  C61  1  0.91731095  0.53232651  0.30424634  1  0.023159  0  -0.001114  0.035119  0  4.006669  0
C  C62  1  0.12936880  0.89071401  0.67472367  1  -0.037513  0  -0.055399  -0.05438  0  3.875489  0
C  C63  1  0.87063526  0.39071798  0.32527867  1  -0.037318  0  -0.055303  -0.054297  0  3.875398  0
C  C64  1  0.18248779  0.79037613  0.72255923  1  -0.034466  0  -0.082647  -0.11974  0  3.966295  0
C  C65  1  0.81751370  0.29037683  0.27744412  1  -0.034042  0  -0.082679  -0.119762  0  3.966064  0
C  C66  1  0.18512503  0.83073590  0.79114465  1  0.480607  0  0.054628  0.102358  0  3.956231  0
C  C67  1  0.81487775  0.33073225  0.20885819  1  0.479927  0  0.054687  0.102495  0  3.955994  0
C  C68  1  0.74335337  0.10346449  0.95097796  1  0.817271  0  0.094442  0.173966  0  4.135902  0
C  C69  1  0.25665069  0.60346379  0.04901931  1  0.817194  0  0.094502  0.173953  0  4.135914  0
C  C70  1  0.55684350  0.12157339  0.93771943  1  0.823689  0  0.09485  0.171613  0  4.153385  0
C  C71  1  0.44315799  0.62157596  0.06227936  1  0.823435  0  0.094777  0.171537  0  4.153463  0
C  C72  1  0.55194705  0.24692854  0.98474446  1  0.810951  0  0.085463  0.137914  0  4.206103  0
C  C73  1  0.44805315  0.74693219  0.01525280  1  0.81126  0  0.085551  0.138086  0  4.206137  0
C  C74  1  0.73806860  0.23195496  0.99635374  1  0.73073  0  0.086771  0.144237  0  4.1139  0
C  C75  1  0.26193546  0.73195644  0.00364454  1  0.73078  0  0.086864  0.144406  0  4.113799  0
C  C76  1  0.55594085  0.47884323  0.71063687  1  0.517555  0  0.115103  0.117161  0  3.976142  0
C  C77  1  0.44405421  0.97884471  0.28936242  1  0.517919  0  0.115098  0.117083  0  3.976199  0
C  C78  1  0.59404775  0.62536642  0.73355120  1  0.521543  0  0.116004  0.11205  0  3.983535  0
C  C79  1  0.40595245  0.12537038  0.26644809  1  0.521537  0  0.116032  0.112187  0  3.983443  0
C  C80  1  0.68577769  0.85998003  0.70882706  1  0.483467  0  0.053811  0.101382  0  3.957669  0
C  C81  1  0.31422509  0.35998291  0.29117426  1  0.483303  0  0.053799  0.101434  0  3.957674  0
C  C82  1  0.68216707  0.90046822  0.77739057  1  -0.041155  0  -0.082252  -0.11968  0  3.965109  0
C  C83  1  0.31783313  0.40047219  0.22261024  1  -0.040906  0  -0.082233  -0.119628  0  3.964994  0
C  C84  1  0.62842060  0.80014667  0.82504567  1  -0.031825  0  -0.054877  -0.0535  0  3.872703  0
C  C85  1  0.37158089  0.30014846  0.17495463  1  -0.031902  0  -0.054902  -0.053502  0  3.872626  0
C  C86  1  0.58221939  0.65847283  0.80389013  1  -0.049706  0  -0.001226  0.034626  0  4.00552  0
C  C87  1  0.41777696  0.15847462  0.19610916  1  -0.049745  0  -0.001245  0.034554  0  4.00565  0
C  C88  1  0.52468100  0.54956261  0.85054705  1  -0.037952  0  -0.080964  -0.108745  0  3.964095  0
C  C89  1  0.47531406  0.04956549  0.14945173  1  -0.038003  0  -0.080936  -0.108726  0  3.964024  0
C  C90  1  0.48428017  0.41279473  0.82873229  1  -0.035468  0  -0.087164  -0.124484  0  3.979486  0
C  C91  1  0.51571103  0.91279620  0.17126547  1  -0.035184  0  -0.087213  -0.124638  0  3.979519  0
C  C92  1  0.50189992  0.37339699  0.75890557  1  -0.020157  0  -0.003047  0.048457  0  3.997706  0
C  C93  1  0.49809386  0.87339847  0.24109270  1  0.025163  0  -0.002969  0.048631  0  3.997958  0
C  C94  1  0.46818413  0.23098640  0.73522947  1  -0.031127  0  -0.064753  -0.07774  0  3.918051  0
C  C95  1  0.53180707  0.73098787  0.26476931  1  -0.07645  0  -0.064861  -0.077815  0  3.91849  0
C  C96  1  0.48588360  0.19972243  0.66708115  1  -0.013044  0  -0.082766  -0.12313  0  3.96668  0
C  C97  1  0.51410889  0.69972064  0.33291560  1  -0.012511  0  -0.082675  -0.123084  0  3.96681  0
C  C98  1  0.54163854  0.31050775  0.62311638  1  0.496268  0  0.059444  0.116334  0  3.933997  0
C  C99  1  0.45836166  0.81050922  0.37688291  1  0.495742  0  0.059472  0.116421  0  3.93404  0
C  C100  1  0.24380009  0.58843798  0.54864925  1  0.820447  0  0.094681  0.173868  0  4.135458  0
C  C101  1  0.75619882  0.08844303  0.45135156  1  0.820287  0  0.094599  0.173625  0  4.135462  0
C  C102  1  0.23796756  0.45976794  0.50336866  1  0.697772  0  0.086994  0.145493  0  4.112976  0
C  C103  1  0.76203136  0.95976616  0.49663266  1  0.697812  0  0.087164  0.145741  0  4.112801  0
C  C104  1  0.05203632  0.44481178  0.51506499  1  0.837845  0  0.085272  0.136776  0  4.205376  0
C  C105  1  0.94796260  0.94481434  0.48493430  1  0.837827  0  0.085192  0.13661  0  4.205506  0
C  C106  1  0.05742909  0.57039002  0.56193940  1  0.823531  0  0.094767  0.171752  0  4.15191  0
C  C107  1  0.94256725  0.07039181  0.43806141  1  0.823477  0  0.094804  0.171863  0  4.151744  0
N  N108  1  0.14177579  0.96338358  0.81213310  1  -1.235839  0  -0.326257  -0.269138  0  3.516395  0
N  N109  1  0.85822313  0.46338428  0.18786822  1  -1.235791  0  -0.326282  -0.269277  0  3.516254  0
N  N110  1  0.07489969  0.24538754  0.85551077  1  -1.238099  0  -0.322748  -0.290951  0  3.509751  0
N  N111  1  0.92510051  0.74538575  0.14449004  1  -1.238149  0  -0.322722  -0.290874  0  3.509778  0
N  N112  1  0.57625570  0.44498590  0.64419083  1  -1.234448  0  -0.322155  -0.29027  0  3.506736  0
N  N113  1  0.42374322  0.94498520  0.35580795  1  -1.23478  0  -0.322154  -0.290276  0  3.506841  0
N  N114  1  0.64287335  0.72721917  0.68772444  1  -1.227705  0  -0.326132  -0.268397  0  3.517031  0
N  N115  1  0.35712557  0.22721987  0.31227587  1  -1.227688  0  -0.326138  -0.268433  0  3.516859  0
O  O116  1  0.15896350  0.16785991  0.02432092  1  -1.273952  0  -0.590411  -0.755645  0  2.099891  0
O  O117  1  0.84103799  0.66786465  0.97568090  1  -1.273936  0  -0.590481  -0.755761  0  2.099848  0
O  O118  1  0.85480796  0.01343584  0.93167824  1  -1.170972  0  -0.315026  -0.43728  0  2.36491  0
O  O119  1  0.14518838  0.51343732  0.06831953  1  -1.170889  0  -0.315023  -0.437255  0  2.364924  0
O  O120  1  0.44690104  0.06070943  0.90036641  1  -1.173129  0  -0.310164  -0.445984  0  2.390531  0
O  O121  1  0.55309659  0.56070982  0.09963390  1  -1.173074  0  -0.310133  -0.445967  0  2.390545  0
O  O122  1  0.43373799  0.32864059  0.00563528  1  -1.174781  0  -0.302422  -0.429769  0  2.325459  0
O  O123  1  0.56626736  0.82864533  0.99436604  1  -1.174866  0  -0.302458  -0.429874  0  2.325484  0
O  O124  1  0.85080774  0.29919077  0.03165566  1  -1.176978  0  -0.308095  -0.445325  0  2.3892  0
O  O125  1  0.14919504  0.79919225  0.96833806  1  -1.177023  0  -0.308236  -0.445565  0  2.389084  0
O  O126  1  0.65856049  0.52331233  0.47559735  1  -1.300816  0  -0.589994  -0.75509  0  2.102663  0
O  O127  1  0.34143843  0.02330976  0.52440244  1  -1.300801  0  -0.589969  -0.755055  0  2.102683  0
O  O128  1  0.35550928  0.67840895  0.56792386  1  -1.171737  0  -0.314594  -0.436777  0  2.364833  0
O  O129  1  0.64449092  0.17841182  0.43207594  1  -1.171599  0  -0.314557  -0.436658  0  2.36481  0
O  O130  1  0.35037753  0.39225244  0.46821106  1  -1.180293  0  -0.308197  -0.445596  0  2.388595  0
O  O131  1  0.64962268  0.89225610  0.53178924  1  -1.180321  0  -0.308252  -0.445627  0  2.388672  0
O  O132  1  0.93362172  0.36281351  0.49440587  1  -1.172327  0  -0.301822  -0.428753  0  2.325764  0
O  O133  1  0.06637720  0.86281281  0.50559291  1  -1.172288  0  -0.301793  -0.428705  0  2.325756  0
O  O134  1  0.94783016  0.63113210  0.59933149  1  -1.168013  0  -0.310386  -0.446075  0  2.391601  0
O  O135  1  0.05217262  0.13113606  0.40066780  1  -1.167998  0  -0.310454  -0.44613  0  2.391322  0
