# generated using pymatgen
data_Zn2H25C22NO9
_symmetry_space_group_name_H-M   'P 1'
_cell_length_a   10.35280796
_cell_length_b   11.51394460
_cell_length_c   20.62040746
_cell_angle_alpha   89.99983105
_cell_angle_beta   90.00007500
_cell_angle_gamma   89.99997128
_symmetry_Int_Tables_number   1
_chemical_formula_structural   Zn2H25C22NO9
_chemical_formula_sum   'Zn8 H100 C88 N4 O36'
_cell_volume   2457.98674407
_cell_formula_units_Z   4
loop_
 _symmetry_equiv_pos_site_id
 _symmetry_equiv_pos_as_xyz
  1  'x, y, z'
loop_
 _atom_site_type_symbol
 _atom_site_label
 _atom_site_symmetry_multiplicity
 _atom_site_fract_x
 _atom_site_fract_y
 _atom_site_fract_z
 _atom_site_occupancy
 _atom_site_pbe_bader_charge
 _atom_site_pbe_bader_spin_density
 _atom_site_pbe_cm5_charge
 _atom_site_pbe_ddec_charge
 _atom_site_pbe_ddec_spin_density
 _atom_site_pbe_ddec_sum_bond_order
 _atom_site_pbe_magmom
Zn  Zn0  1  0.04397281  0.42464942  0.99210809  1  1.360702  0  0.685104  0.968706  0  2.300182  0
Zn  Zn1  1  0.45602652  0.57535051  0.49210877  1  1.360677  0  0.685092  0.96868  0  2.300231  0
Zn  Zn2  1  0.95602606  0.92465115  0.50789155  1  1.360683  0  0.685112  0.968694  0  2.300242  0
Zn  Zn3  1  0.54397125  0.07535196  0.00789084  1  1.360605  0  0.685101  0.968724  0  2.300176  0
Zn  Zn4  1  0.35541685  0.32456375  0.99197928  1  1.346864  0  0.678012  0.949458  0  2.307571  0
Zn  Zn5  1  0.14458151  0.67543792  0.49197958  1  1.346976  0  0.678017  0.94947  0  2.307707  0
Zn  Zn6  1  0.64458111  0.82456476  0.50802101  1  1.346835  0  0.678023  0.949489  0  2.307659  0
Zn  Zn7  1  0.85541813  0.17543662  0.00802083  1  1.34697  0  0.677975  0.949391  0  2.307724  0
H  H8  1  0.04186217  0.52308088  0.18549786  1  0.074066  0  0.102133  0.105025  0  1.037149  0
H  H9  1  0.45813927  0.47692153  0.68549640  1  0.074067  0  0.10213  0.105046  0  1.037121  0
H  H10  1  0.95813659  0.02308314  0.31450233  1  0.074065  0  0.102129  0.105019  0  1.037145  0
H  H11  1  0.54186151  0.97692010  0.81450267  1  0.074061  0  0.102142  0.105069  0  1.037121  0
H  H12  1  0.44548601  0.43668904  0.17900158  1  0.106206  0  0.102144  0.10339  0  1.04591  0
H  H13  1  0.05451250  0.56330906  0.67900068  1  0.106167  0  0.10212  0.103329  0  1.04591  0
H  H14  1  0.55451155  0.93669018  0.32099937  1  0.106199  0  0.102111  0.103325  0  1.045818  0
H  H15  1  0.94548657  0.06331042  0.82099956  1  0.106212  0  0.102115  0.103323  0  1.045785  0
H  H16  1  0.06359651  0.57472056  0.30303817  1  0.082977  0  0.106783  0.111167  0  1.005175  0
H  H17  1  0.43640330  0.42528210  0.80303824  1  0.083095  0  0.106794  0.111194  0  1.005148  0
H  H18  1  0.93640319  0.07472171  0.19696095  1  0.083285  0  0.106821  0.111241  0  1.00516  0
H  H19  1  0.56359750  0.92528215  0.69696189  1  0.083105  0  0.106776  0.111158  0  1.005178  0
H  H20  1  0.46573380  0.48491460  0.29711318  1  0.10729  0  0.106076  0.107851  0  1.021817  0
H  H21  1  0.03426309  0.51508375  0.79711235  1  0.10723  0  0.106115  0.107869  0  1.021791  0
H  H22  1  0.53426374  0.98491723  0.20288672  1  0.107258  0  0.106098  0.107815  0  1.021855  0
H  H23  1  0.96573600  0.01508399  0.70288797  1  0.107229  0  0.106109  0.107865  0  1.021811  0
H  H24  1  0.26048296  0.01147992  0.00693301  1  0.07017  0  0.102589  0.058628  0  1.000443  0
H  H25  1  0.23951511  0.98852083  0.50693396  1  0.070183  0  0.102583  0.058613  0  1.000459  0
H  H26  1  0.73951677  0.51148007  0.49306767  1  0.07017  0  0.102581  0.058612  0  1.000421  0
H  H27  1  0.76048276  0.48852050  0.99306606  1  0.070163  0  0.10258  0.058631  0  1.000443  0
H  H28  1  0.36075444  0.02933100  0.11648082  1  0.044998  0  0.091071  0.134103  0  1.024291  0
H  H29  1  0.13924488  0.97066656  0.61648173  1  0.045133  0  0.091094  0.134125  0  1.024303  0
H  H30  1  0.63924818  0.52933264  0.38351935  1  0.045095  0  0.091089  0.134146  0  1.024287  0
H  H31  1  0.86075107  0.47066676  0.88351832  1  0.044622  0  0.091084  0.134124  0  1.024268  0
H  H32  1  0.18870451  0.02980176  0.12155729  1  0.033248  0  0.090364  0.128435  0  1.021814  0
H  H33  1  0.31129483  0.97019664  0.62155831  1  0.033237  0  0.090358  0.12842  0  1.021822  0
H  H34  1  0.81129521  0.52980248  0.37844337  1  0.032841  0  0.090373  0.128462  0  1.021814  0
H  H35  1  0.68870402  0.47019869  0.87844174  1  0.033215  0  0.090356  0.128459  0  1.021816  0
H  H36  1  0.27760017  0.16257898  0.12967150  1  0.030527  0  0.088749  0.131713  0  0.996811  0
H  H37  1  0.22240015  0.83741938  0.62967268  1  0.03049  0  0.088757  0.13174  0  0.99674  0
H  H38  1  0.72240044  0.66257805  0.37032894  1  0.030553  0  0.08874  0.131699  0  0.996807  0
H  H39  1  0.77759780  0.33742056  0.87032711  1  0.030502  0  0.088773  0.131765  0  0.996836  0
H  H40  1  0.04786906  0.64866888  0.07553630  1  0.12888  0  0.121841  0.05063  0  1.020749  0
H  H41  1  0.45213209  0.35132976  0.57553456  1  0.128909  0  0.121859  0.050671  0  1.02074  0
H  H42  1  0.95213253  0.14867057  0.42446465  1  0.129005  0  0.121847  0.050651  0  1.020708  0
H  H43  1  0.54786585  0.85133123  0.92446424  1  0.128911  0  0.121855  0.050682  0  1.020649  0
H  H44  1  0.82120915  0.74020497  0.95381398  1  0.101  0  0.112848  0.135445  0  0.990643  0
H  H45  1  0.67879027  0.25979667  0.45381354  1  0.100977  0  0.112827  0.135408  0  0.99069  0
H  H46  1  0.17879272  0.24020465  0.54618645  1  0.100981  0  0.11285  0.135455  0  0.99065  0
H  H47  1  0.32120836  0.75979589  0.04618673  1  0.100977  0  0.112849  0.135455  0  0.990627  0
H  H48  1  0.86789308  0.88926679  0.96445915  1  0.092024  0  0.105302  0.125179  0  1.021404  0
H  H49  1  0.63210638  0.11073393  0.46445796  1  0.091999  0  0.1053  0.125198  0  1.02139  0
H  H50  1  0.13210871  0.38926742  0.53554249  1  0.091994  0  0.105291  0.12518  0  1.021405  0
H  H51  1  0.36789234  0.61073144  0.03554256  1  0.091981  0  0.105291  0.125183  0  1.021376  0
H  H52  1  0.74252684  0.82949224  0.01346244  1  0.053843  0  0.103471  0.115324  0  1.01027  0
H  H53  1  0.75747241  0.17050825  0.51346232  1  0.053849  0  0.103475  0.115323  0  1.010265  0
H  H54  1  0.25747561  0.32949304  0.48653773  1  0.053819  0  0.103456  0.115304  0  1.010257  0
H  H55  1  0.24252467  0.67050952  0.98653871  1  0.053826  0  0.103457  0.1153  0  1.010305  0
H  H56  1  0.04163114  0.81982471  0.11749944  1  0.076872  0  0.104849  0.113796  0  1.021341  0
H  H57  1  0.45836915  0.18017545  0.61749847  1  0.076891  0  0.104879  0.113878  0  1.021352  0
H  H58  1  0.95836842  0.31982488  0.38250074  1  0.076892  0  0.104855  0.113824  0  1.021322  0
H  H59  1  0.54163082  0.68017801  0.88250012  1  0.076871  0  0.104859  0.113819  0  1.021318  0
H  H60  1  0.87768257  0.86609797  0.12106217  1  0.036782  0  0.098903  0.111734  0  1.023635  0
H  H61  1  0.62231792  0.13390195  0.62106105  1  0.036791  0  0.09892  0.111781  0  1.023611  0
H  H62  1  0.12231890  0.36609940  0.37893842  1  0.036771  0  0.09891  0.111757  0  1.023603  0
H  H63  1  0.37767918  0.63390199  0.87893859  1  0.037113  0  0.098902  0.111762  0  1.023633  0
H  H64  1  0.98894119  0.93869354  0.06846619  1  0.110202  0  0.105646  0.134015  0  1.02924  0
H  H65  1  0.51105821  0.06130753  0.56846512  1  0.110197  0  0.105649  0.13402  0  1.029251  0
H  H66  1  0.01105831  0.43869474  0.43153476  1  0.110177  0  0.105655  0.134026  0  1.029253  0
H  H67  1  0.48893990  0.56130725  0.93153415  1  0.110204  0  0.10565  0.134034  0  1.029232  0
H  H68  1  0.43055751  0.22185505  0.73269741  1  0.561954  0  0.309976  0.335134  0  0.933861  0
H  H69  1  0.06944115  0.77814712  0.23269604  1  0.561978  0  0.309917  0.334982  0  0.933997  0
H  H70  1  0.56944244  0.72185386  0.76730305  1  0.561976  0  0.309917  0.335012  0  0.933947  0
H  H71  1  0.93055844  0.27814182  0.26730372  1  0.56191  0  0.309939  0.33507  0  0.933947  0
H  H72  1  0.13952153  0.73592964  0.87667950  1  0.07102  0  0.097064  0.098599  0  1.010874  0
H  H73  1  0.36048039  0.26406916  0.37667868  1  0.070909  0  0.097072  0.098605  0  1.010832  0
H  H74  1  0.86047841  0.23592774  0.62332288  1  0.070986  0  0.097077  0.098599  0  1.010833  0
H  H75  1  0.63952596  0.76406956  0.12332304  1  0.071055  0  0.097058  0.098585  0  1.010916  0
H  H76  1  0.26747702  0.74283021  0.77437602  1  0.069974  0  0.093701  0.09095  0  1.029182  0
H  H77  1  0.23252561  0.25716739  0.27437563  1  0.070004  0  0.093682  0.090891  0  1.029301  0
H  H78  1  0.73252195  0.24283217  0.72562537  1  0.069971  0  0.093691  0.090895  0  1.029281  0
H  H79  1  0.76747979  0.75716633  0.22562611  1  0.069962  0  0.093699  0.090929  0  1.029246  0
H  H80  1  0.33743378  0.93298061  0.72903004  1  0.066507  0  0.100189  0.10164  0  1.031834  0
H  H81  1  0.16256680  0.06701810  0.22902991  1  0.066487  0  0.10019  0.101627  0  1.031883  0
H  H82  1  0.66256412  0.43298410  0.77096911  1  0.066497  0  0.100206  0.101639  0  1.031846  0
H  H83  1  0.83743966  0.56701590  0.27097069  1  0.066409  0  0.100168  0.101606  0  1.031852  0
H  H84  1  0.15624376  0.10953872  0.88841063  1  0.064675  0  0.102113  0.1071  0  1.009917  0
H  H85  1  0.34375530  0.89046350  0.38841071  1  0.064698  0  0.102111  0.107092  0  1.010004  0
H  H86  1  0.84375722  0.60953301  0.61158856  1  0.064282  0  0.102108  0.107067  0  1.010115  0
H  H87  1  0.65624615  0.39046175  0.11158983  1  0.064502  0  0.102111  0.107096  0  1.009964  0
H  H88  1  0.08667889  0.92148884  0.93444879  1  0.046784  0  0.097454  0.094763  0  1.026044  0
H  H89  1  0.41331933  0.07851139  0.43444832  1  0.04679  0  0.097485  0.09481  0  1.026116  0
H  H90  1  0.91332095  0.42148462  0.56555279  1  0.046805  0  0.09748  0.094773  0  1.026141  0
H  H91  1  0.58668327  0.57851299  0.06555274  1  0.046853  0  0.09747  0.094816  0  1.026036  0
H  H92  1  0.29492099  0.21349022  0.81646002  1  0.062993  0  0.098165  0.038946  0  0.992959  0
H  H93  1  0.20507789  0.78650890  0.31645970  1  0.062977  0  0.098159  0.038909  0  0.992966  0
H  H94  1  0.70507800  0.71349114  0.68353851  1  0.062941  0  0.09815  0.038894  0  0.992986  0
H  H95  1  0.79492459  0.28650845  0.18353908  1  0.062946  0  0.098138  0.038902  0  0.992972  0
H  H96  1  0.19750475  0.27852818  0.71073943  1  0.071094  0  0.080521  0.11562  0  1.053407  0
H  H97  1  0.30249482  0.72147236  0.21073976  1  0.071112  0  0.080506  0.11559  0  1.053431  0
H  H98  1  0.80249420  0.77852850  0.78925900  1  0.071293  0  0.080518  0.115593  0  1.053416  0
H  H99  1  0.69750480  0.22146966  0.28925864  1  0.071262  0  0.080519  0.11558  0  1.0534  0
H  H100  1  0.08213034  0.20418778  0.75891600  1  0.031839  0  0.090218  0.133821  0  1.00507  0
H  H101  1  0.41786839  0.79581337  0.25891628  1  0.031833  0  0.090221  0.133804  0  1.005106  0
H  H102  1  0.91786866  0.70418744  0.74108304  1  0.031808  0  0.090212  0.13378  0  1.005107  0
H  H103  1  0.58213312  0.29581184  0.24108102  1  0.031422  0  0.090218  0.133779  0  1.005053  0
H  H104  1  0.15734755  0.13136147  0.69242322  1  0.043194  0  0.087429  0.127183  0  1.021143  0
H  H105  1  0.34265294  0.86864004  0.19242382  1  0.043114  0  0.08742  0.127159  0  1.021114  0
H  H106  1  0.84265149  0.63136255  0.80757449  1  0.042894  0  0.087411  0.127128  0  1.021115  0
H  H107  1  0.65734949  0.36863639  0.30757434  1  0.042916  0  0.087395  0.127098  0  1.021098  0
C  C108  1  0.23083497  0.44787051  0.10469065  1  1.558906  0  0.220731  0.594861  0  4.177732  0
C  C109  1  0.26916336  0.55212885  0.60469040  1  1.558835  0  0.220765  0.594976  0  4.17766  0
C  C110  1  0.76916162  0.94787377  0.39530931  1  1.558977  0  0.220763  0.594963  0  4.177576  0
C  C111  1  0.73083765  0.05212992  0.89530937  1  1.558638  0  0.220847  0.595135  0  4.17733  0
C  C112  1  0.24318146  0.47826738  0.17507236  1  -0.063461  0  -0.018552  -0.042064  0  3.967328  0
C  C113  1  0.25681801  0.52173335  0.67507167  1  -0.063495  0  -0.018548  -0.042108  0  3.96731  0
C  C114  1  0.75681801  0.97826927  0.32492706  1  -0.063914  0  -0.018591  -0.042222  0  3.967461  0
C  C115  1  0.74318205  0.02173392  0.82492767  1  -0.063165  0  -0.018517  -0.042108  0  3.967347  0
C  C116  1  0.13498669  0.51737293  0.20978306  1  -0.010849  0  -0.085652  -0.102255  0  3.990445  0
C  C117  1  0.36501287  0.48262674  0.70978250  1  -0.010867  0  -0.085623  -0.10222  0  3.990341  0
C  C118  1  0.86501304  0.01737276  0.29021665  1  -0.010851  0  -0.085646  -0.102186  0  3.990404  0
C  C119  1  0.63498693  0.98262801  0.79021657  1  -0.010836  0  -0.085674  -0.10232  0  3.99047  0
C  C120  1  0.36239264  0.46657362  0.20664744  1  0.012052  0  -0.080475  -0.089758  0  3.962226  0
C  C121  1  0.13760885  0.53342607  0.70664665  1  0.012082  0  -0.080454  -0.089642  0  3.962162  0
C  C122  1  0.63760780  0.96657660  0.29335249  1  0.012467  0  -0.080435  -0.089646  0  3.962067  0
C  C123  1  0.86239024  0.03342501  0.79335315  1  0.012025  0  -0.08047  -0.089656  0  3.962112  0
C  C124  1  0.14671885  0.54534232  0.27510619  1  -0.020264  0  -0.083958  -0.102776  0  3.986686  0
C  C125  1  0.35327991  0.45465875  0.77510518  1  -0.020314  0  -0.083994  -0.102885  0  3.986574  0
C  C126  1  0.85328086  0.04534163  0.22489347  1  -0.020667  0  -0.083964  -0.102844  0  3.986655  0
C  C127  1  0.64672087  0.95465861  0.72489490  1  -0.020356  0  -0.083918  -0.10271  0  3.986648  0
C  C128  1  0.37366502  0.49373355  0.27213595  1  -0.056199  0  -0.078842  -0.087575  0  3.950663  0
C  C129  1  0.12633277  0.50626579  0.77213470  1  -0.05592  0  -0.078878  -0.087647  0  3.950766  0
C  C130  1  0.62633251  0.99373515  0.22786297  1  -0.055922  0  -0.078811  -0.087433  0  3.950689  0
C  C131  1  0.87366730  0.00626768  0.72786466  1  -0.055778  0  -0.078852  -0.087576  0  3.950697  0
C  C132  1  0.26599572  0.53368070  0.30673316  1  -0.072811  0  -0.013857  -0.037252  0  3.965647  0
C  C133  1  0.23400217  0.46632107  0.80673254  1  -0.073009  0  -0.013866  -0.037215  0  3.965637  0
C  C134  1  0.73400111  0.03368283  0.19326652  1  -0.072943  0  -0.01388  -0.037341  0  3.965707  0
C  C135  1  0.76599765  0.96632018  0.69326703  1  -0.07315  0  -0.013921  -0.037383  0  3.965736  0
C  C136  1  0.27705560  0.56372148  0.37727345  1  1.585142  0  0.220476  0.590461  0  4.189674  0
C  C137  1  0.22294150  0.43627819  0.87727239  1  1.585083  0  0.220522  0.590474  0  4.189635  0
C  C138  1  0.72294217  0.06372225  0.12272618  1  1.585134  0  0.220498  0.590562  0  4.189588  0
C  C139  1  0.77705833  0.93627940  0.62272723  1  1.585079  0  0.220524  0.590579  0  4.189562  0
C  C140  1  0.14375711  0.16241343  0.01376831  1  1.559069  0  0.223062  0.590318  0  4.095694  0
C  C141  1  0.35624388  0.83758554  0.51376813  1  1.559095  0  0.223061  0.59029  0  4.095706  0
C  C142  1  0.85624254  0.66241443  0.48623261  1  1.559052  0  0.22304  0.590227  0  4.095829  0
C  C143  1  0.64375697  0.33758617  0.98623214  1  1.559062  0  0.223067  0.590306  0  4.095748  0
C  C144  1  0.26734101  0.09681116  0.03089998  1  0.5219  0  -0.02083  0.134626  0  3.970013  0
C  C145  1  0.23266002  0.90318772  0.53090058  1  0.521942  0  -0.020819  0.134711  0  3.969982  0
C  C146  1  0.73266254  0.59681231  0.46910057  1  0.521937  0  -0.020792  0.134762  0  3.969988  0
C  C147  1  0.76733693  0.40319012  0.96909959  1  0.521897  0  -0.020813  0.134694  0  3.970078  0
C  C148  1  0.27317914  0.07856961  0.10445625  1  -0.074498  0  -0.250015  -0.424694  0  3.912368  0
C  C149  1  0.22682015  0.92142888  0.60445633  1  -0.074615  0  -0.250013  -0.424714  0  3.912315  0
C  C150  1  0.72682152  0.57856941  0.39554578  1  -0.074213  0  -0.250043  -0.424789  0  3.912447  0
C  C151  1  0.77317679  0.42142906  0.89554332  1  -0.074095  0  -0.250055  -0.424816  0  3.912423  0
C  C152  1  0.98131913  0.66782902  0.03523283  1  1.357514  0  0.174656  0.291541  0  4.104917  0
C  C153  1  0.51868017  0.33216961  0.53523180  1  1.357497  0  0.174591  0.291434  0  4.104915  0
C  C154  1  0.01868244  0.16783352  0.46476857  1  1.357354  0  0.174699  0.291536  0  4.104815  0
C  C155  1  0.48131392  0.83217176  0.96476945  1  1.357261  0  0.174672  0.291513  0  4.104852  0
C  C156  1  0.83455725  0.81025645  0.98909548  1  0.221688  0  -0.132999  -0.274466  0  3.87479  0
C  C157  1  0.66544324  0.18974240  0.48909418  1  0.221579  0  -0.132951  -0.274412  0  3.874676  0
C  C158  1  0.16544458  0.31025806  0.51090580  1  0.221688  0  -0.132959  -0.274471  0  3.874677  0
C  C159  1  0.33455543  0.68974179  0.01090573  1  0.22169  0  -0.13297  -0.274482  0  3.874667  0
C  C160  1  0.96111594  0.85423156  0.08883394  1  0.257204  0  -0.137706  -0.285306  0  3.897127  0
C  C161  1  0.53888351  0.14576853  0.58883372  1  0.25719  0  -0.137773  -0.285485  0  3.89722  0
C  C162  1  0.03888457  0.35423285  0.41116618  1  0.25722  0  -0.13772  -0.285404  0  3.897125  0
C  C163  1  0.46111455  0.64576837  0.91116590  1  0.256862  0  -0.137728  -0.285445  0  3.897119  0
C  C164  1  0.17209429  0.81916701  0.85730688  1  -0.088507  0  -0.100612  -0.097381  0  4.024099  0
C  C165  1  0.32790855  0.18083189  0.35730667  1  -0.088139  0  -0.100673  -0.097465  0  4.024076  0
C  C166  1  0.82790753  0.31916502  0.64269536  1  -0.088654  0  -0.100603  -0.097374  0  4.023821  0
C  C167  1  0.67209688  0.68083131  0.14269471  1  -0.088545  0  -0.100566  -0.097378  0  4.024043  0
C  C168  1  0.24350866  0.82320747  0.79976100  1  -0.088471  0  -0.099696  -0.093581  0  4.038368  0
C  C169  1  0.25649211  0.17679087  0.29975978  1  -0.088652  0  -0.099654  -0.093512  0  4.038307  0
C  C170  1  0.75648930  0.32321042  0.70024075  1  -0.088388  0  -0.099733  -0.093592  0  4.038331  0
C  C171  1  0.74351430  0.67679082  0.20024064  1  -0.088319  0  -0.099739  -0.093569  0  4.038311  0
C  C172  1  0.28256853  0.92988860  0.77404659  1  -0.012163  0  -0.09563  -0.12898  0  3.966213  0
C  C173  1  0.21743217  0.07010987  0.27404552  1  -0.012517  0  -0.095637  -0.128974  0  3.966256  0
C  C174  1  0.71742937  0.42989057  0.72595353  1  -0.012464  0  -0.095592  -0.128868  0  3.966318  0
C  C175  1  0.78257236  0.57010967  0.22595507  1  -0.012103  0  -0.095593  -0.128925  0  3.966326  0
C  C176  1  0.25051471  0.03401484  0.80535805  1  -0.038288  0  -0.009277  0.062093  0  3.91417  0
C  C177  1  0.24948703  0.96598694  0.30535746  1  -0.038026  0  -0.009331  0.062024  0  3.914083  0
C  C178  1  0.74948727  0.53401395  0.69464175  1  -0.037979  0  -0.009336  0.061941  0  3.914115  0
C  C179  1  0.75051921  0.46598558  0.19464296  1  -0.038454  0  -0.00935  0.061989  0  3.914313  0
C  C180  1  0.18103606  0.02889743  0.86353729  1  -0.051081  0  -0.091919  -0.133129  0  3.97301  0
C  C181  1  0.31896487  0.97110404  0.36353722  1  -0.051078  0  -0.091859  -0.133096  0  3.972923  0
C  C182  1  0.81896593  0.52889334  0.63646301  1  -0.050696  0  -0.091856  -0.133048  0  3.973223  0
C  C183  1  0.68104233  0.47110389  0.13646319  1  -0.050454  0  -0.09186  -0.133022  0  3.97297  0
C  C184  1  0.14185613  0.92251206  0.88939539  1  -0.040991  0  -0.095486  -0.081512  0  4.024382  0
C  C185  1  0.35814486  0.07749189  0.38939585  1  -0.040999  0  -0.095515  -0.081503  0  4.024535  0
C  C186  1  0.85814371  0.42250588  0.61060474  1  -0.040836  0  -0.095574  -0.081547  0  4.024588  0
C  C187  1  0.64186063  0.57748975  0.11060521  1  -0.041419  0  -0.095518  -0.081599  0  4.024536  0
C  C188  1  0.28173516  0.15131789  0.77627561  1  0.449837  0  -0.002854  0.223389  0  3.89943  0
C  C189  1  0.21826265  0.84868231  0.27627665  1  0.449772  0  -0.002758  0.223576  0  3.89932  0
C  C190  1  0.71826386  0.65131860  0.72372255  1  0.449747  0  -0.002832  0.22351  0  3.899375  0
C  C191  1  0.78173883  0.34868078  0.22372348  1  0.44981  0  -0.002735  0.223521  0  3.899465  0
C  C192  1  0.17286028  0.19384125  0.73191608  1  -0.12768  0  -0.252449  -0.445455  0  3.928381  0
C  C193  1  0.32713741  0.80616005  0.23191678  1  -0.127571  0  -0.252486  -0.445461  0  3.928399  0
C  C194  1  0.82713775  0.69384168  0.76808151  1  -0.127497  0  -0.252431  -0.44534  0  3.928356  0
C  C195  1  0.67286409  0.30615834  0.26808100  1  -0.127055  0  -0.252466  -0.445329  0  3.928255  0
N  N196  1  0.92940565  0.77363465  0.03689855  1  -1.21606  0  -0.28062  0.036463  0  3.740028  0
N  N197  1  0.57059269  0.22636398  0.53689822  1  -1.215946  0  -0.280623  0.036485  0  3.739924  0
N  N198  1  0.07059490  0.27363653  0.46310219  1  -1.215987  0  -0.280681  0.036504  0  3.739889  0
N  N199  1  0.42940339  0.72636442  0.96310175  1  -1.215721  0  -0.280647  0.036535  0  3.739786  0
O  O200  1  0.33232432  0.41311879  0.07566753  1  -1.18667  0  -0.313097  -0.559527  0  2.369542  0
O  O201  1  0.16767200  0.58688159  0.57566618  1  -1.186629  0  -0.313076  -0.559543  0  2.369635  0
O  O202  1  0.66767230  0.91311760  0.42433298  1  -1.186719  0  -0.313072  -0.559538  0  2.369597  0
O  O203  1  0.83232512  0.08688246  0.92433402  1  -1.186724  0  -0.313135  -0.559613  0  2.369592  0
O  O204  1  0.11937049  0.46115710  0.07945444  1  -1.183333  0  -0.313186  -0.560465  0  2.387296  0
O  O205  1  0.38062584  0.53884500  0.57945525  1  -1.183332  0  -0.313253  -0.560563  0  2.387175  0
O  O206  1  0.88062610  0.96115757  0.42054502  1  -1.183322  0  -0.313278  -0.56058  0  2.387167  0
O  O207  1  0.61937324  0.03884338  0.92054454  1  -1.183258  0  -0.313276  -0.560628  0  2.387009  0
O  O208  1  0.37999004  0.53207193  0.40626275  1  -1.182619  0  -0.31607  -0.563415  0  2.376216  0
O  O209  1  0.12001100  0.46793019  0.90626254  1  -1.182637  0  -0.316087  -0.563426  0  2.376256  0
O  O210  1  0.62001065  0.03207029  0.09373790  1  -1.182636  0  -0.316091  -0.563498  0  2.376267  0
O  O211  1  0.87998881  0.96793064  0.59373800  1  -1.182643  0  -0.316097  -0.563458  0  2.376278  0
O  O212  1  0.18139075  0.61677102  0.40211091  1  -1.180226  0  -0.311938  -0.551116  0  2.385447  0
O  O213  1  0.31860738  0.38322678  0.90210902  1  -1.180039  0  -0.31195  -0.551112  0  2.385331  0
O  O214  1  0.81860796  0.11677188  0.09788864  1  -1.180203  0  -0.311919  -0.5511  0  2.385393  0
O  O215  1  0.68139248  0.88322643  0.59789020  1  -1.180061  0  -0.311943  -0.551172  0  2.385373  0
O  O216  1  0.15570100  0.26724547  0.99434585  1  -1.197228  0  -0.309914  -0.579905  0  2.494756  0
O  O217  1  0.34429737  0.73275098  0.49434473  1  -1.197274  0  -0.309953  -0.579931  0  2.494697  0
O  O218  1  0.84429795  0.76724987  0.50565454  1  -1.19727  0  -0.309934  -0.579876  0  2.494734  0
O  O219  1  0.65570031  0.23275152  0.00565462  1  -1.197252  0  -0.309915  -0.5799  0  2.494749  0
O  O220  1  0.03772310  0.10927526  0.02039768  1  -1.18074  0  -0.302935  -0.525072  0  2.344095  0
O  O221  1  0.46227501  0.89072454  0.52039699  1  -1.180708  0  -0.302904  -0.525047  0  2.344174  0
O  O222  1  0.96227658  0.60927538  0.47960333  1  -1.180715  0  -0.302909  -0.525049  0  2.344164  0
O  O223  1  0.53772291  0.39072526  0.97960174  1  -1.180734  0  -0.302943  -0.525087  0  2.344081  0
O  O224  1  0.37805779  0.15650230  0.00799644  1  -1.151513  0  -0.402116  -0.62288  0  2.465176  0
O  O225  1  0.12194319  0.84349844  0.50799658  1  -1.151541  0  -0.402144  -0.62294  0  2.465185  0
O  O226  1  0.62194477  0.65650164  0.49200400  1  -1.151504  0  -0.40213  -0.62292  0  2.465114  0
O  O227  1  0.87805283  0.34350067  0.99200271  1  -1.151498  0  -0.402085  -0.62288  0  2.465151  0
O  O228  1  0.95861158  0.59386229  0.99192300  1  -1.164796  0  -0.297366  -0.455798  0  2.389866  0
O  O229  1  0.54138698  0.40613481  0.49192271  1  -1.164791  0  -0.297332  -0.455736  0  2.389906  0
O  O230  1  0.04138940  0.09386657  0.50807719  1  -1.164766  0  -0.297378  -0.455798  0  2.389878  0
O  O231  1  0.45861060  0.90613416  0.00807635  1  -1.164848  0  -0.297382  -0.45582  0  2.390053  0
O  O232  1  0.40108051  0.14270232  0.74022884  1  -1.081616  0  -0.403584  -0.507706  0  2.219322  0
O  O233  1  0.09891913  0.85730154  0.24022833  1  -1.081619  0  -0.403529  -0.507586  0  2.219372  0
O  O234  1  0.59891948  0.64269941  0.75977030  1  -1.081606  0  -0.403489  -0.507571  0  2.219312  0
O  O235  1  0.90108331  0.35729543  0.25977178  1  -1.081633  0  -0.403561  -0.507668  0  2.219334  0
