# generated using pymatgen
data_Zn4H12C18N6O13
_symmetry_space_group_name_H-M   'P 1'
_cell_length_a   17.09464344
_cell_length_b   15.91242073
_cell_length_c   19.72720129
_cell_angle_alpha   91.02072029
_cell_angle_beta   116.40933101
_cell_angle_gamma   118.68249307
_symmetry_Int_Tables_number   1
_chemical_formula_structural   Zn4H12C18N6O13
_chemical_formula_sum   'Zn8 H24 C36 N12 O26'
_cell_volume   4029.57089393
_cell_formula_units_Z   2
loop_
 _symmetry_equiv_pos_site_id
 _symmetry_equiv_pos_as_xyz
  1  'x, y, z'
loop_
 _atom_site_type_symbol
 _atom_site_label
 _atom_site_symmetry_multiplicity
 _atom_site_fract_x
 _atom_site_fract_y
 _atom_site_fract_z
 _atom_site_occupancy
 _atom_site_pbe_bader_charge
 _atom_site_pbe_bader_spin_density
 _atom_site_pbe_cm5_charge
 _atom_site_pbe_ddec_charge
 _atom_site_pbe_ddec_spin_density
 _atom_site_pbe_ddec_sum_bond_order
 _atom_site_pbe_magmom
Zn  Zn0  1  0.89436145  0.85005985  0.92373621  1  1.313629  0  0.679227  0.966325  0  2.349001  0
Zn  Zn1  1  0.85642249  0.02525216  0.88194796  1  1.315171  0  0.677231  0.963582  0  2.350204  0
Zn  Zn2  1  0.05929140  0.04264952  0.90042296  1  1.321036  0  0.676837  0.965455  0  2.35943  0
Zn  Zn3  1  0.04313449  0.06295349  0.05387063  1  1.314101  0  0.678029  0.961615  0  2.365878  0
Zn  Zn4  1  0.04196871  0.64134971  0.48048163  1  1.304392  0  0.666229  0.948854  0  2.427597  0
Zn  Zn5  1  0.06332182  0.45917509  0.46852561  1  1.318199  0  0.670346  0.964468  0  2.374681  0
Zn  Zn6  1  0.87502561  0.46042371  0.32372251  1  1.320837  0  0.679174  0.976552  0  2.341851  0
Zn  Zn7  1  0.87336781  0.43594975  0.48667087  1  1.319395  0  0.673631  0.976095  0  2.305198  0
H  H8  1  0.55753629  0.68260723  0.79946503  1  0.107983  0  0.133733  0.137904  0  0.928447  0
H  H9  1  0.56774815  0.68405790  0.71450202  1  0.118444  0  0.141667  0.151917  0  0.933811  0
H  H10  1  0.56311283  0.89743290  0.80279959  1  0.149142  0  0.120738  0.125181  0  1.018837  0
H  H11  1  0.36739928  0.85987674  0.69840570  1  0.098787  0  0.114935  0.145422  0  0.995943  0
H  H12  1  0.00427207  0.69625266  0.83905795  1  0.134857  0  0.137595  0.145929  0  0.946309  0
H  H13  1  0.13433088  0.80325563  0.88162447  1  0.115193  0  0.128757  0.130493  0  0.932001  0
H  H14  1  0.09613362  0.92751455  0.76440853  1  0.135877  0  0.118915  0.123236  0  1.021312  0
H  H15  1  0.04052478  0.85038422  0.61136620  1  0.132347  0  0.115195  0.14677  0  0.993113  0
H  H16  1  0.79924793  0.76301929  0.09933382  1  0.136996  0  0.135985  0.143434  0  0.94995  0
H  H17  1  0.85362452  0.88889204  0.15155202  1  0.090745  0  0.128393  0.130401  0  0.935284  0
H  H18  1  0.07988712  0.97265207  0.25734211  1  0.127194  0  0.123468  0.125573  0  1.004169  0
H  H19  1  0.14436115  0.88232352  0.37096672  1  0.14062  0  0.116979  0.147475  0  0.992027  0
H  H20  1  0.80928813  0.06692365  0.65091434  1  0.166035  0  0.139095  0.148106  0  0.946683  0
H  H21  1  0.86135209  0.99540289  0.64337736  1  0.07672  0  0.130341  0.13154  0  0.932801  0
H  H22  1  0.09002476  0.14683664  0.71479104  1  0.116364  0  0.121717  0.12173  0  1.006505  0
H  H23  1  0.15269032  0.29831360  0.64591216  1  0.136613  0  0.11664  0.148314  0  0.992301  0
H  H24  1  0.87639762  0.26222794  0.02746469  1  0.159914  0  0.142096  0.153118  0  0.940873  0
H  H25  1  0.99494762  0.33610790  0.02918723  1  0.087844  0  0.131803  0.133935  0  0.931605  0
H  H26  1  0.15602075  0.33561251  0.17926943  1  0.104841  0  0.120333  0.117508  0  1.005367  0
H  H27  1  0.18396819  0.39828853  0.32493884  1  0.124832  0  0.117264  0.148553  0  0.992138  0
H  H28  1  0.35642376  0.32840776  0.10398036  1  0.082759  0  0.132232  0.13432  0  0.927542  0
H  H29  1  0.39117765  0.25449711  0.07167208  1  0.14241  0  0.140233  0.14961  0  0.943386  0
H  H30  1  0.32809698  0.22334644  0.23930119  1  0.136035  0  0.1205  0.1229  0  1.014474  0
H  H31  1  0.51680728  0.28165021  0.37316086  1  0.099743  0  0.116969  0.148071  0  0.990783  0
C  C32  1  0.68994624  0.81413116  0.81372794  1  1.575115  0  0.237392  0.650058  0  4.128668  0
C  C33  1  0.57617000  0.73045938  0.76217447  1  0.311768  0  -0.034746  -0.240295  0  3.883956  0
C  C34  1  0.49647787  0.83497582  0.75109780  1  0.263029  0  0.001086  -0.097835  0  3.953234  0
C  C35  1  0.39870163  0.81473606  0.69824693  1  0.056833  0  -0.110534  -0.221576  0  4.029299  0
C  C36  1  0.34755726  0.72153807  0.64290319  1  0.456706  0  0.080003  0.040453  0  4.056588  0
C  C37  1  0.23847781  0.66210053  0.57619505  1  1.586734  0  0.225559  0.593432  0  4.184465  0
C  C38  1  0.02508394  0.83900632  0.87252823  1  1.57482  0  0.24227  0.656582  0  4.101987  0
C  C39  1  0.05124251  0.77399394  0.84092683  1  0.279438  0  -0.034569  -0.232044  0  3.843274  0
C  C40  1  0.05911093  0.85167096  0.73012849  1  0.276066  0  -0.002113  -0.105663  0  3.968293  0
C  C41  1  0.03063961  0.81159407  0.65431442  1  -0.017807  0  -0.110332  -0.219013  0  4.031951  0
C  C42  1  0.98603392  0.70747495  0.64443431  1  0.496283  0  0.079664  0.03889  0  4.048968  0
C  C43  1  0.95215158  0.63327624  0.57493833  1  1.558613  0  0.224821  0.594067  0  4.177285  0
C  C44  1  0.91655263  0.87956827  0.08109048  1  1.594579  0  0.240458  0.652576  0  4.102988  0
C  C45  1  0.87072781  0.83730078  0.13277693  1  0.301477  0  -0.035074  -0.231833  0  3.849157  0
C  C46  1  0.04053488  0.89680979  0.26053796  1  0.301891  0  0.001585  -0.101479  0  3.962097  0
C  C47  1  0.07073549  0.85035175  0.31594035  1  -0.017931  0  -0.1075  -0.216099  0  4.024859  0
C  C48  1  0.98362664  0.75020910  0.28529564  1  0.490442  0  0.082039  0.040634  0  4.049299  0
C  C49  1  0.97466943  0.67118652  0.32532807  1  1.584763  0  0.227999  0.596337  0  4.177167  0
C  C50  1  0.91927668  0.06768923  0.76180732  1  1.587915  0  0.238733  0.651936  0  4.104847  0
C  C51  1  0.88023901  0.06631276  0.67528914  1  0.286698  0  -0.035203  -0.234325  0  3.852524  0
C  C52  1  0.05047891  0.18044884  0.67926154  1  0.309471  0  0.003047  -0.098318  0  3.963195  0
C  C53  1  0.07986160  0.25564605  0.64469341  1  -0.045195  0  -0.110573  -0.222474  0  4.025374  0
C  C54  1  0.99337773  0.26543278  0.60683131  1  0.480314  0  0.081199  0.040035  0  4.047037  0
C  C55  1  0.98183085  0.33270529  0.55759884  1  1.593037  0  0.229471  0.601116  0  4.17751  0
C  C56  1  0.94869224  0.18478069  0.02145026  1  1.614491  0  0.238647  0.648541  0  4.121148  0
C  C57  1  0.95505923  0.27778526  0.05228681  1  0.283444  0  -0.034567  -0.238889  0  3.869898  0
C  C58  1  0.10483499  0.34141885  0.19439695  1  0.351526  0  0.002023  -0.093606  0  3.9716  0
C  C59  1  0.11672960  0.37148730  0.26621131  1  -0.027451  0  -0.108649  -0.22062  0  4.024221  0
C  C60  1  0.02133916  0.36087020  0.24650679  1  0.482684  0  0.079628  0.038921  0  4.04823  0
C  C61  1  0.99508717  0.38823471  0.30198874  1  1.581064  0  0.229472  0.599727  0  4.179634  0
C  C62  1  0.24053692  0.17397063  0.05951270  1  1.586219  0  0.236965  0.650702  0  4.117558  0
C  C63  1  0.35500597  0.25823241  0.10458121  1  0.312553  0  -0.033348  -0.235447  0  3.870182  0
C  C64  1  0.40429072  0.25203081  0.24734187  1  0.22505  0  -0.001057  -0.102797  0  3.958716  0
C  C65  1  0.49912110  0.28129726  0.31311956  1  0.075882  0  -0.107347  -0.217071  0  4.020726  0
C  C66  1  0.56877800  0.31049973  0.28497450  1  0.492823  0  0.081391  0.039772  0  4.04621  0
C  C67  1  0.68263666  0.35445146  0.33042000  1  1.588174  0  0.229689  0.597871  0  4.182849  0
N  N68  1  0.49984191  0.75687689  0.72521901  1  -0.802461  0  -0.138391  0.212187  0  3.763073  0
N  N69  1  0.40980920  0.68670043  0.65993217  1  -0.607565  0  -0.229091  -0.269574  0  3.090707  0
N  N70  1  0.03067880  0.77277055  0.76080215  1  -0.779364  0  -0.137802  0.208509  0  3.76275  0
N  N71  1  0.98624179  0.68433957  0.70980512  1  -0.60391  0  -0.225118  -0.263136  0  3.075354  0
N  N72  1  0.94089119  0.82523081  0.20179023  1  -0.786626  0  -0.137878  0.210057  0  3.778349  0
N  N73  1  0.90460048  0.73538754  0.21532805  1  -0.624114  0  -0.224514  -0.263066  0  3.076276  0
N  N74  1  0.95210317  0.15019651  0.66147502  1  -0.785298  0  -0.141874  0.208308  0  3.774762  0
N  N75  1  0.91579380  0.20081511  0.61753188  1  -0.607537  0  -0.224618  -0.263281  0  3.084908  0
N  N76  1  0.00655818  0.31394425  0.13741808  1  -0.794407  0  -0.143416  0.209371  0  3.78348  0
N  N77  1  0.95453614  0.32577594  0.16772815  1  -0.612367  0  -0.226323  -0.266018  0  3.082028  0
N  N78  1  0.42052598  0.26324292  0.18503803  1  -0.786  0  -0.140956  0.207127  0  3.764692  0
N  N79  1  0.52003633  0.29929907  0.20682920  1  -0.610045  0  -0.224407  -0.262357  0  3.098074  0
O  O80  1  0.96366753  0.99585183  0.94024962  1  -1.234975  0  -0.574755  -1.04084  0  2.551615  0
O  O81  1  0.71529324  0.90336804  0.83651026  1  -1.169485  0  -0.303867  -0.541193  0  2.332266  0
O  O82  1  0.75145647  0.78396152  0.83170287  1  -1.157524  0  -0.320112  -0.553259  0  2.296708  0
O  O83  1  0.20659891  0.57949683  0.53277616  1  -1.170788  0  -0.315661  -0.539632  0  2.333065  0
O  O84  1  0.18474542  0.69995231  0.56908276  1  -1.169788  0  -0.320862  -0.542873  0  2.302383  0
O  O85  1  0.06910359  0.92973381  0.87185539  1  -1.181117  0  -0.31021  -0.556486  0  2.3462  0
O  O86  1  0.96346560  0.79710765  0.89812436  1  -1.14129  0  -0.307655  -0.531249  0  2.283965  0
O  O87  1  0.91195425  0.54128561  0.57263220  1  -1.149856  0  -0.308837  -0.525274  0  2.285736  0
O  O88  1  0.96945184  0.67065504  0.52225834  1  -1.182428  0  -0.333384  -0.56474  0  2.301359  0
O  O89  1  0.99364932  0.97055901  0.11066259  1  -1.175609  0  -0.312279  -0.552616  0  2.323509  0
O  O90  1  0.87320764  0.82137944  0.01323628  1  -1.16525  0  -0.306248  -0.534738  0  2.293729  0
O  O91  1  0.89700265  0.58153401  0.28779779  1  -1.157061  0  -0.307711  -0.526344  0  2.301642  0
O  O92  1  0.04935160  0.70324492  0.39738958  1  -1.176356  0  -0.324558  -0.551049  0  2.322767  0
O  O93  1  0.00765458  0.07796255  0.80166688  1  -1.174852  0  -0.310746  -0.552423  0  2.31336  0
O  O94  1  0.85697716  0.05367181  0.78522220  1  -1.155855  0  -0.308743  -0.537764  0  2.307835  0
O  O95  1  0.90543602  0.34209940  0.53801213  1  -1.160346  0  -0.312482  -0.534721  0  2.318657  0
O  O96  1  0.05173635  0.37451658  0.53901211  1  -1.166808  0  -0.320018  -0.547598  0  2.31781  0
O  O97  1  0.01368944  0.16567118  0.06862908  1  -1.184488  0  -0.308614  -0.548752  0  2.360315  0
O  O98  1  0.87926077  0.13692501  0.94870913  1  -1.179197  0  -0.315332  -0.543293  0  2.292787  0
O  O99  1  0.91596199  0.39480098  0.27295612  1  -1.169573  0  -0.31398  -0.536472  0  2.329872  0
O  O100  1  0.05726415  0.40440123  0.37517748  1  -1.168258  0  -0.318159  -0.542851  0  2.309387  0
O  O101  1  0.19923925  0.15140495  0.98456062  1  -1.168688  0  -0.313994  -0.546227  0  2.303045  0
O  O102  1  0.19487297  0.13769249  0.09784952  1  -1.168609  0  -0.306824  -0.543558  0  2.318933  0
O  O103  1  0.72427118  0.36901420  0.40533968  1  -1.17984  0  -0.316876  -0.543664  0  2.294292  0
O  O104  1  0.72821766  0.37480507  0.29107692  1  -1.170249  0  -0.313525  -0.533323  0  2.345896  0
O  O105  1  0.96025671  0.49495973  0.43938245  1  -1.222584  0  -0.57399  -1.033837  0  2.535931  0
