# generated using pymatgen
data_ZnH10C14S2O5
_symmetry_space_group_name_H-M   'P 1'
_cell_length_a   10.98684258
_cell_length_b   11.55757651
_cell_length_c   17.27150000
_cell_angle_alpha   90.00000000
_cell_angle_beta   90.00000000
_cell_angle_gamma   95.97313224
_symmetry_Int_Tables_number   1
_chemical_formula_structural   ZnH10C14S2O5
_chemical_formula_sum   'Zn4 H40 C56 S8 O20'
_cell_volume   2181.24998494
_cell_formula_units_Z   4
loop_
 _symmetry_equiv_pos_site_id
 _symmetry_equiv_pos_as_xyz
  1  'x, y, z'
loop_
 _atom_site_type_symbol
 _atom_site_label
 _atom_site_symmetry_multiplicity
 _atom_site_fract_x
 _atom_site_fract_y
 _atom_site_fract_z
 _atom_site_occupancy
 _atom_site_hle17_bader_spin_density
 _atom_site_hle17_ddec_charge
 _atom_site_hle17_ddec_spin_density
 _atom_site_hle17_ddec_sum_bond_order
 _atom_site_hle17_magmom
 _atom_site_hse06_10hf_bader_spin_density
 _atom_site_hse06_10hf_ddec_charge
 _atom_site_hse06_10hf_ddec_spin_density
 _atom_site_hse06_10hf_ddec_sum_bond_order
 _atom_site_hse06_10hf_magmom
 _atom_site_hse06_bader_spin_density
 _atom_site_hse06_ddec_charge
 _atom_site_hse06_ddec_spin_density
 _atom_site_hse06_ddec_sum_bond_order
 _atom_site_hse06_magmom
 _atom_site_pbe_bader_charge
 _atom_site_pbe_bader_spin_density
 _atom_site_pbe_cm5_charge
 _atom_site_pbe_ddec_charge
 _atom_site_pbe_ddec_spin_density
 _atom_site_pbe_ddec_sum_bond_order
 _atom_site_pbe_magmom
Zn  Zn0  1  0.92456326  0.89801778  0.99212402  1  0  1.101314  0  1.809305  0  0  0.941285  0  2.276335  0  0  0.995141  0  2.205674  0  1.311788  0  0.664023  0.904464  0  2.323413  0
Zn  Zn1  1  0.92457218  0.39804336  0.50787251  1  0  1.101295  0  1.809251  0  0  0.941222  0  2.27632  0  0  0.995076  0  2.20566  0  1.311789  0  0.664028  0.904395  0  2.323396  0
Zn  Zn2  1  0.07542708  0.10195803  0.00787656  1  0  1.10128  0  1.809286  0  0  0.941179  0  2.276345  0  0  0.995034  0  2.205686  0  1.311842  0  0.664047  0.904352  0  2.323417  0
Zn  Zn3  1  0.07544098  0.60198290  0.49212460  1  0  1.101245  0  1.809363  0  0  0.941228  0  2.276411  0  0  0.995092  0  2.205747  0  1.311778  0  0.664035  0.904404  0  2.323489  0
H  H4  1  0.49545746  0.86690639  0.24133920  1  0  0.090493  0  0.985675  0  0  0.100343  0  1.048039  0  0  0.102714  0  1.048256  0  0.083613  0  0.093767  0.09871  0  1.047755  0
H  H5  1  0.49547472  0.36692502  0.25866254  1  0  0.090627  0  0.9854  0  0  0.100417  0  1.047874  0  0  0.102786  0  1.048096  0  0.08357  0  0.093842  0.098781  0  1.047596  0
H  H6  1  0.50453010  0.13307724  0.75866427  1  0  0.09063  0  0.985461  0  0  0.100425  0  1.047915  0  0  0.102794  0  1.048137  0  0.083619  0  0.093852  0.09879  0  1.047637  0
H  H7  1  0.50453782  0.63308733  0.74133978  1  0  0.090501  0  0.985556  0  0  0.100329  0  1.047971  0  0  0.102699  0  1.048189  0  0.083764  0  0.093792  0.098696  0  1.047689  0
H  H8  1  0.38967229  0.71736436  0.32680138  1  0  0.080661  0  0.973564  0  0  0.086494  0  1.041553  0  0  0.089535  0  1.039822  0  0.075059  0  0.091134  0.084338  0  1.042736  0
H  H9  1  0.38969330  0.21736732  0.17320846  1  0  0.080563  0  0.973682  0  0  0.086388  0  1.041672  0  0  0.089428  0  1.039946  0  0.074915  0  0.091094  0.084232  0  1.042854  0
H  H10  1  0.61031306  0.28263232  0.67320962  1  0  0.080602  0  0.973658  0  0  0.086447  0  1.041621  0  0  0.089486  0  1.039893  0  0.074996  0  0.091144  0.08429  0  1.042802  0
H  H11  1  0.61032199  0.78262849  0.82680427  1  0  0.080655  0  0.973556  0  0  0.086472  0  1.041557  0  0  0.089514  0  1.039827  0  0.075101  0  0.091151  0.084317  0  1.042739  0
H  H12  1  0.17160035  0.64380345  0.30335698  1  0  0.104574  0  0.957555  0  0  0.111521  0  1.02119  0  0  0.114896  0  1.019845  0  0.097192  0  0.098793  0.109039  0  1.022336  0
H  H13  1  0.17162107  0.14380380  0.19665576  1  0  0.104553  0  0.957615  0  0  0.111535  0  1.021207  0  0  0.114909  0  1.019864  0  0.097093  0  0.098881  0.109052  0  1.022354  0
H  H14  1  0.82838888  0.35618714  0.69665229  1  0  0.104592  0  0.957552  0  0  0.111561  0  1.02116  0  0  0.114936  0  1.019813  0  0.096851  0  0.098855  0.109077  0  1.022306  0
H  H15  1  0.82839638  0.85618679  0.80336219  1  0  0.104604  0  0.957489  0  0  0.111539  0  1.021168  0  0  0.114917  0  1.019816  0  0.096727  0  0.098837  0.109056  0  1.022315  0
H  H16  1  0.06024995  0.72718269  0.19275685  1  0  0.093666  0  0.965353  0  0  0.102572  0  1.029183  0  0  0.105735  0  1.026768  0  0.096266  0  0.100743  0.100485  0  1.030533  0
H  H17  1  0.06026927  0.22719522  0.30724952  1  0  0.093536  0  0.965299  0  0  0.102401  0  1.029149  0  0  0.105556  0  1.026752  0  0.096726  0  0.100703  0.100315  0  1.030499  0
H  H18  1  0.93973858  0.27279312  0.80724720  1  0  0.09362  0  0.965366  0  0  0.102495  0  1.029207  0  0  0.10565  0  1.026808  0  0.096218  0  0.100745  0.100408  0  1.030555  0
H  H19  1  0.93974635  0.77281190  0.69276091  1  0  0.093676  0  0.965333  0  0  0.102552  0  1.029182  0  0  0.105713  0  1.026773  0  0.09635  0  0.100733  0.100464  0  1.030533  0
H  H20  1  0.49486847  0.06852212  0.24851634  1  0  0.094721  0  0.982138  0  0  0.104567  0  1.044001  0  0  0.107005  0  1.044125  0  0.055662  0  0.097111  0.102848  0  1.043879  0
H  H21  1  0.49489056  0.56854700  0.25146745  1  0  0.094831  0  0.982048  0  0  0.104616  0  1.04394  0  0  0.107065  0  1.044044  0  0.055774  0  0.097055  0.102897  0  1.043819  0
H  H22  1  0.50511608  0.93145890  0.75146860  1  0  0.094818  0  0.982075  0  0  0.104622  0  1.04395  0  0  0.107069  0  1.044058  0  0.055664  0  0.097103  0.102903  0  1.043829  0
H  H23  1  0.50512582  0.43146709  0.74851750  1  0  0.094719  0  0.982167  0  0  0.104547  0  1.044021  0  0  0.106988  0  1.044141  0  0.055455  0  0.09709  0.102828  0  1.043899  0
H  H24  1  0.58612383  0.21211365  0.34242596  1  0  0.076844  0  0.968262  0  0  0.084179  0  1.034494  0  0  0.087282  0  1.032641  0  0.084721  0  0.091306  0.081956  0  1.035789  0
H  H25  1  0.58617170  0.71212461  0.15755435  1  0  0.076887  0  0.968395  0  0  0.084245  0  1.034591  0  0  0.087324  0  1.03276  0  0.085298  0  0.09144  0.082027  0  1.035882  0
H  H26  1  0.41384149  0.78788303  0.65755262  1  0  0.076811  0  0.968445  0  0  0.08417  0  1.034633  0  0  0.087247  0  1.032807  0  0.085208  0  0.091393  0.081948  0  1.03593  0
H  H27  1  0.41386044  0.28787555  0.84242422  1  0  0.076787  0  0.968287  0  0  0.084133  0  1.034519  0  0  0.087253  0  1.032649  0  0.084732  0  0.091304  0.081909  0  1.035814  0
H  H28  1  0.80401863  0.29876480  0.32739889  1  0  0.096509  0  0.97835  0  0  0.100086  0  1.051753  0  0  0.103986  0  1.049451  0  0.088095  0  0.093464  0.097254  0  1.053533  0
H  H29  1  0.80407226  0.79876183  0.17259011  1  0  0.096506  0  0.978398  0  0  0.10009  0  1.05176  0  0  0.103978  0  1.049489  0  0.087889  0  0.093447  0.097235  0  1.053558  0
H  H30  1  0.19593984  0.70124406  0.67258547  1  0  0.096529  0  0.978418  0  0  0.10007  0  1.051835  0  0  0.103975  0  1.049528  0  0.088089  0  0.093426  0.097202  0  1.053644  0
H  H31  1  0.19595998  0.20123920  0.82739832  1  0  0.096457  0  0.978288  0  0  0.100031  0  1.051701  0  0  0.10393  0  1.049398  0  0.088  0  0.09347  0.097201  0  1.053479  0
H  H32  1  0.92858207  0.22911260  0.21841531  1  0  0.101982  0  0.958427  0  0  0.112202  0  1.018696  0  0  0.115213  0  1.016611  0  0.10132  0  0.105611  0.110216  0  1.019808  0
H  H33  1  0.92860781  0.72912095  0.28158932  1  0  0.101884  0  0.95846  0  0  0.11216  0  1.01867  0  0  0.115168  0  1.016584  0  0.100905  0  0.105604  0.110176  0  1.019779  0
H  H34  1  0.07140151  0.77087625  0.78158527  1  0  0.101883  0  0.958471  0  0  0.112167  0  1.018675  0  0  0.11517  0  1.016588  0  0.101044  0  0.105628  0.110187  0  1.01978  0
H  H35  1  0.07140061  0.27090357  0.71841531  1  0  0.101886  0  0.958476  0  0  0.112181  0  1.018665  0  0  0.115201  0  1.016586  0  0.101188  0  0.105544  0.11019  0  1.019786  0
H  H36  1  0.72726527  0.76570610  0.02098660  1  0  0.442735  0  0.788662  0  0  0.423114  0  0.845859  0  0  0.430732  0  0.837771  0  0.640663  0  0.341027  0.417774  0  0.85166  0
H  H37  1  0.72728314  0.26573864  0.47900935  1  0  0.442544  0  0.788889  0  0  0.42295  0  0.846043  0  0  0.430559  0  0.837957  0  0.640774  0  0.340922  0.417612  0  0.851847  0
H  H38  1  0.27271747  0.23425840  0.97901109  1  0  0.442537  0  0.788938  0  0  0.422934  0  0.846098  0  0  0.430544  0  0.83801  0  0.640781  0  0.340915  0.417595  0  0.851903  0
H  H39  1  0.27273298  0.73429806  0.52098775  1  0  0.442752  0  0.788654  0  0  0.42312  0  0.84586  0  0  0.430739  0  0.837773  0  0.640624  0  0.341013  0.417781  0  0.851662  0
H  H40  1  0.83833530  0.70075167  0.04499899  1  0  0.444615  0  0.785521  0  0  0.425834  0  0.840126  0  0  0.433548  0  0.832022  0  0.631869  0  0.343709  0.420417  0  0.845835  0
H  H41  1  0.83835011  0.20077290  0.45500738  1  0  0.444578  0  0.785623  0  0  0.425843  0  0.840166  0  0  0.433537  0  0.832101  0  0.63182  0  0.343689  0.420422  0  0.84588  0
H  H42  1  0.16165068  0.29922587  0.95500854  1  0  0.444638  0  0.785584  0  0  0.425892  0  0.840136  0  0  0.433585  0  0.832071  0  0.63186  0  0.343712  0.42047  0  0.845851  0
H  H43  1  0.16165754  0.79924466  0.54500072  1  0  0.444667  0  0.785666  0  0  0.42593  0  0.84021  0  0  0.433631  0  0.832134  0  0.63179  0  0.343694  0.420519  0  0.845909  0
C  C44  1  0.33609276  0.88761397  0.17169904  1  0  0.03932  0  3.74033  0  0  0.051001  0  3.99697  0  0  0.054116  0  4.020298  0  -0.159556  0  -0.008804  0.048921  0  3.981142  0
C  C45  1  0.33610672  0.38762737  0.32830385  1  0  0.039127  0  3.740134  0  0  0.050923  0  3.99677  0  0  0.054039  0  4.020096  0  -0.160119  0  -0.008859  0.048844  0  3.980943  0
C  C46  1  0.66389571  0.11236967  0.82830327  1  0  0.039085  0  3.740216  0  0  0.050868  0  3.996892  0  0  0.053984  0  4.02022  0  -0.160479  0  -0.00888  0.048789  0  3.981064  0
C  C47  1  0.66390473  0.61238323  0.67169846  1  0  0.039255  0  3.74036  0  0  0.050973  0  3.996964  0  0  0.054084  0  4.020293  0  -0.159816  0  -0.008844  0.048893  0  3.981135  0
C  C48  1  0.39871686  0.83878331  0.23212228  1  0  -0.134068  0  3.781973  0  0  -0.149227  0  4.024543  0  0  -0.154452  0  4.047548  0  0.003905  0  -0.102112  -0.145633  0  4.008583  0
C  C49  1  0.39873345  0.33879584  0.26788061  1  0  -0.134262  0  3.781808  0  0  -0.149406  0  4.024425  0  0  -0.154632  0  4.047435  0  0.00363  0  -0.102313  -0.145813  0  4.008464  0
C  C50  1  0.60127027  0.16120467  0.76788119  1  0  -0.134209  0  3.781946  0  0  -0.149355  0  4.024576  0  0  -0.154581  0  4.047583  0  0.003618  0  -0.102272  -0.145763  0  4.008617  0
C  C51  1  0.60127953  0.66121215  0.73212228  1  0  -0.134007  0  3.781909  0  0  -0.149183  0  4.024518  0  0  -0.154406  0  4.047527  0  0.003848  0  -0.102145  -0.145588  0  4.008558  0
C  C52  1  0.33931289  0.75327442  0.27968445  1  0  -0.037266  0  3.763054  0  0  -0.05022  0  4.011054  0  0  -0.049287  0  4.030499  0  -0.105864  0  -0.088453  -0.050552  0  3.99746  0
C  C53  1  0.33933418  0.25327999  0.22032481  1  0  -0.036941  0  3.762813  0  0  -0.049858  0  4.010811  0  0  -0.048923  0  4.030259  0  -0.105782  0  -0.088203  -0.050188  0  3.997212  0
C  C54  1  0.66067289  0.24671791  0.72032423  1  0  -0.03702  0  3.763104  0  0  -0.049955  0  4.011104  0  0  -0.049017  0  4.030546  0  -0.105535  0  -0.088302  -0.050286  0  3.997506  0
C  C55  1  0.66068239  0.74671930  0.77968619  1  0  -0.037284  0  3.763069  0  0  -0.050202  0  4.011063  0  0  -0.049269  0  4.030511  0  -0.106065  0  -0.088502  -0.050535  0  3.997468  0
C  C56  1  0.21712176  0.71147301  0.26644067  1  0  -0.077194  0  3.752584  0  0  -0.091972  0  4.005823  0  0  -0.095022  0  4.025823  0  0.019963  0  -0.096527  -0.089965  0  3.992266  0
C  C57  1  0.21714295  0.21147772  0.23356917  1  0  -0.07738  0  3.75228  0  0  -0.092224  0  4.005593  0  0  -0.095272  0  4.025581  0  0.021248  0  -0.096741  -0.090216  0  3.992038  0
C  C58  1  0.78286455  0.28851584  0.73356744  1  0  -0.077373  0  3.752494  0  0  -0.092204  0  4.005781  0  0  -0.095252  0  4.025773  0  0.021298  0  -0.096665  -0.090195  0  3.992223  0
C  C59  1  0.78287444  0.78852071  0.76644356  1  0  -0.077117  0  3.75253  0  0  -0.091917  0  4.005758  0  0  -0.094969  0  4.025758  0  0.020615  0  -0.096506  -0.089912  0  3.992201  0
C  C60  1  0.15499869  0.75827058  0.20574299  1  0  -0.059141  0  3.747377  0  0  -0.08204  0  3.993383  0  0  -0.080982  0  4.013379  0  -0.043108  0  -0.085784  -0.082822  0  3.979861  0
C  C61  1  0.15501965  0.25828137  0.29426628  1  0  -0.059038  0  3.74675  0  0  -0.081754  0  3.99283  0  0  -0.080695  0  4.012822  0  -0.043633  0  -0.085732  -0.08254  0  3.979311  0
C  C62  1  0.84498776  0.24171131  0.79426222  1  0  -0.059173  0  3.747037  0  0  -0.081901  0  3.993108  0  0  -0.080845  0  4.013104  0  -0.043492  0  -0.085804  -0.082685  0  3.979586  0
C  C63  1  0.84499688  0.74172575  0.70574588  1  0  -0.059192  0  3.747383  0  0  -0.082045  0  3.993393  0  0  -0.08099  0  4.013389  0  -0.043254  0  -0.085759  -0.082827  0  3.979874  0
C  C64  1  0.21132026  0.84784043  0.15927916  1  0  -0.108711  0  3.736705  0  0  -0.091021  0  3.969214  0  0  -0.100533  0  3.991992  0  -0.051461  0  -0.024989  -0.085081  0  3.954273  0
C  C65  1  0.21133713  0.34785557  0.34072663  1  0  -0.10827  0  3.736256  0  0  -0.090936  0  3.969085  0  0  -0.100448  0  3.991861  0  -0.051717  0  -0.024898  -0.084996  0  3.954143  0
C  C66  1  0.78866783  0.15213973  0.84072489  1  0  -0.108198  0  3.736341  0  0  -0.090837  0  3.969198  0  0  -0.100348  0  3.991977  0  -0.051425  0  -0.02483  -0.084897  0  3.954255  0
C  C67  1  0.78867742  0.65215851  0.65927858  1  0  -0.108713  0  3.736719  0  0  -0.091062  0  3.969209  0  0  -0.100566  0  3.991977  0  -0.051335  0  -0.024997  -0.085123  0  3.954267  0
C  C68  1  0.13619016  0.90077728  0.09983846  1  0  0.678377  0  3.858066  0  0  0.627306  0  4.146019  0  0  0.663756  0  4.1381  0  1.556826  0  0.216585  0.602766  0  4.150135  0
C  C69  1  0.13620431  0.40079242  0.40016559  1  0  0.677907  0  3.858692  0  0  0.627076  0  4.14644  0  0  0.663525  0  4.138531  0  1.557396  0  0.216484  0.602536  0  4.150549  0
C  C70  1  0.86380147  0.09920201  0.90016443  1  0  0.677986  0  3.858563  0  0  0.627029  0  4.146485  0  0  0.663478  0  4.138579  0  1.557316  0  0.216487  0.602489  0  4.150594  0
C  C71  1  0.86380589  0.59922340  0.59983557  1  0  0.678306  0  3.858305  0  0  0.627321  0  4.146126  0  0  0.66377  0  4.138212  0  1.557031  0  0.216613  0.602781  0  4.150242  0
C  C72  1  0.66080908  0.06219754  0.18227137  1  0  0.049506  0  3.721161  0  0  0.062491  0  3.974283  0  0  0.06594  0  3.997287  0  -0.183205  0  -0.004554  0.060197  0  3.958705  0
C  C73  1  0.66082442  0.56221893  0.31772342  1  0  0.049331  0  3.721173  0  0  0.062284  0  3.974447  0  0  0.065764  0  3.997401  0  -0.182531  0  -0.004701  0.05997  0  3.958895  0
C  C74  1  0.33918054  0.93778001  0.81772573  1  0  0.049386  0  3.721411  0  0  0.06245  0  3.974557  0  0  0.065925  0  3.997518  0  -0.18263  0  -0.004589  0.060158  0  3.958975  0
C  C75  1  0.33918630  0.43780994  0.68227542  1  0  0.049577  0  3.720921  0  0  0.062406  0  3.974137  0  0  0.065882  0  3.997099  0  -0.183239  0  -0.004627  0.060119  0  3.958565  0
C  C76  1  0.59139816  0.10060524  0.24345482  1  0  -0.126987  0  3.767483  0  0  -0.142408  0  4.00848  0  0  -0.147516  0  4.031169  0  0.046883  0  -0.099923  -0.138885  0  3.992795  0
C  C77  1  0.59142552  0.60062838  0.25653186  1  0  -0.12705  0  3.767035  0  0  -0.142335  0  4.007986  0  0  -0.147456  0  4.030659  0  0.047531  0  -0.099731  -0.138805  0  3.992307  0
C  C78  1  0.40858365  0.89937578  0.75653360  1  0  -0.127113  0  3.767255  0  0  -0.142482  0  4.008256  0  0  -0.147594  0  4.030928  0  0.047574  0  -0.09991  -0.138955  0  3.992568  0
C  C79  1  0.40859416  0.39939092  0.74345714  1  0  -0.126965  0  3.767243  0  0  -0.142308  0  4.008221  0  0  -0.147431  0  4.030909  0  0.047334  0  -0.09982  -0.138784  0  3.992533  0
C  C80  1  0.64327950  0.18256384  0.29630547  1  0  -0.050411  0  3.794046  0  0  -0.06471  0  4.04556  0  0  -0.063799  0  4.06552  0  -0.190365  0  -0.093397  -0.06499  0  4.031612  0
C  C81  1  0.64332028  0.68257654  0.20368121  1  0  -0.050456  0  3.794053  0  0  -0.064815  0  4.045577  0  0  -0.063881  0  4.065544  0  -0.191461  0  -0.093567  -0.065102  0  4.031623  0
C  C82  1  0.35669091  0.81742936  0.70368179  1  0  -0.050257  0  3.794326  0  0  -0.064589  0  4.045813  0  0  -0.063662  0  4.065792  0  -0.19204  0  -0.093412  -0.064874  0  4.031858  0
C  C83  1  0.35670846  0.31743406  0.79630547  1  0  -0.050433  0  3.793972  0  0  -0.064774  0  4.04549  0  0  -0.063877  0  4.065441  0  -0.190393  0  -0.093435  -0.065053  0  4.031542  0
C  C84  1  0.76500907  0.23030096  0.28845265  1  0  -0.110093  0  3.797896  0  0  -0.125601  0  4.057613  0  0  -0.129335  0  4.078066  0  0.083955  0  -0.108355  -0.123074  0  4.043631  0
C  C85  1  0.76505230  0.73031105  0.21153808  1  0  -0.109924  0  3.79788  0  0  -0.125392  0  4.057594  0  0  -0.129126  0  4.078026  0  -0.036183  0  -0.108269  -0.122846  0  4.043633  0
C  C86  1  0.23495860  0.76969224  0.71153519  1  0  -0.110121  0  3.798102  0  0  -0.125547  0  4.057769  0  0  -0.129288  0  4.078213  0  -0.035848  0  -0.10834  -0.122987  0  4.043813  0
C  C87  1  0.23497601  0.26970390  0.78845265  1  0  -0.109902  0  3.797871  0  0  -0.125392  0  4.057613  0  0  -0.129122  0  4.078073  0  0.083842  0  -0.10835  -0.122865  0  4.043625  0
C  C88  1  0.83438317  0.19252136  0.22785051  1  0  -0.051968  0  3.740135  0  0  -0.074714  0  3.982992  0  0  -0.073276  0  4.002888  0  -0.163547  0  -0.084168  -0.075697  0  3.969399  0
C  C89  1  0.83440948  0.69253493  0.27215065  1  0  -0.052026  0  3.740013  0  0  -0.074782  0  3.982923  0  0  -0.073339  0  4.002813  0  -0.04319  0  -0.08423  -0.075763  0  3.969324  0
C  C90  1  0.16559921  0.80746488  0.77214949  1  0  -0.051931  0  3.739995  0  0  -0.074688  0  3.982918  0  0  -0.073234  0  4.002806  0  -0.04304  0  -0.084211  -0.07567  0  3.969318  0
C  C91  1  0.16560396  0.30749394  0.72785108  1  0  -0.051948  0  3.740283  0  0  -0.07482  0  3.983076  0  0  -0.073404  0  4.002989  0  -0.163251  0  -0.08408  -0.075793  0  3.969488  0
C  C92  1  0.78520602  0.10745354  0.17553774  1  0  -0.104876  0  3.72508  0  0  -0.0856  0  3.954109  0  0  -0.095016  0  3.976517  0  0.067449  0  -0.023118  -0.079706  0  3.939349  0
C  C93  1  0.78522510  0.60747581  0.32446111  1  0  -0.104699  0  3.725109  0  0  -0.085618  0  3.954439  0  0  -0.095041  0  3.976837  0  0.067173  0  -0.023007  -0.079716  0  3.939683  0
C  C94  1  0.21478068  0.89252226  0.82446111  1  0  -0.1048  0  3.7253  0  0  -0.085779  0  3.954678  0  0  -0.095205  0  3.977074  0  0.067192  0  -0.023112  -0.079886  0  3.93992  0
C  C95  1  0.21478475  0.39256176  0.67554121  1  0  -0.104923  0  3.725205  0  0  -0.085422  0  3.954005  0  0  -0.094842  0  3.97641  0  0.067389  0  -0.023099  -0.079556  0  3.939289  0
C  C96  1  0.86589743  0.06866914  0.11352343  1  0  0.675791  0  3.865504  0  0  0.624113  0  4.153424  0  0  0.660462  0  4.145818  0  1.55875  0  0.215638  0.599604  0  4.15743  0
C  C97  1  0.86590444  0.56868097  0.38647714  1  0  0.676013  0  3.865128  0  0  0.624423  0  4.153011  0  0  0.660772  0  4.145395  0  1.558576  0  0.215785  0.59991  0  4.157028  0
C  C98  1  0.13410277  0.93131362  0.88648004  1  0  0.676169  0  3.865095  0  0  0.624562  0  4.153015  0  0  0.660913  0  4.145396  0  1.557869  0  0.215875  0.600051  0  4.157029  0
C  C99  1  0.13410531  0.43135573  0.61352517  1  0  0.675688  0  3.865403  0  0  0.623989  0  4.153342  0  0  0.660338  0  4.145744  0  1.55937  0  0.215602  0.599486  0  4.157344  0
S  S100  1  0.41145455  0.99384783  0.10828996  1  0  0.004529  0  2.528636  0  0  -0.006579  0  2.906066  0  0  -0.006391  0  2.902099  0  0.076639  0  0.025078  -0.006852  0  2.908498  0
S  S101  1  0.41147166  0.49387341  0.39170831  1  0  0.004433  0  2.528558  0  0  -0.006641  0  2.905925  0  0  -0.006454  0  2.901961  0  0.076597  0  0.025014  -0.006913  0  2.908356  0
S  S102  1  0.58853187  0.00612536  0.89170946  1  0  0.004474  0  2.528641  0  0  -0.006589  0  2.906008  0  0  -0.006405  0  2.902044  0  0.077041  0  0.025015  -0.006863  0  2.90844  0
S  S103  1  0.58854122  0.50615024  0.60828996  1  0  0.00445  0  2.528652  0  0  -0.006668  0  2.906063  0  0  -0.006483  0  2.902097  0  0.076594  0  0.025041  -0.006942  0  2.908495  0
S  S104  1  0.59286794  0.96463904  0.11063776  1  0  -0.013998  0  2.535065  0  0  -0.025508  0  2.916124  0  0  -0.025952  0  2.912384  0  0.064932  0  0.017926  -0.025434  0  2.918468  0
S  S105  1  0.59288184  0.46466027  0.38935530  1  0  -0.01394  0  2.535239  0  0  -0.025419  0  2.91631  0  0  -0.025882  0  2.912568  0  0.064855  0  0.01796  -0.025336  0  2.91866  0
S  S106  1  0.40712331  0.03533676  0.88935761  1  0  -0.013944  0  2.535389  0  0  -0.025465  0  2.916428  0  0  -0.025925  0  2.912687  0  0.064745  0  0.017964  -0.025389  0  2.918769  0
S  S107  1  0.40712839  0.53536425  0.61064181  1  0  -0.013972  0  2.535097  0  0  -0.025455  0  2.916181  0  0  -0.025906  0  2.912434  0  0.064874  0  0.017986  -0.025377  0  2.91852  0
O  O108  1  0.04152555  0.84044232  0.07342095  1  0  -0.648784  0  2.048423  0  0  -0.585147  0  2.301377  0  0  -0.614299  0  2.286815  0  -1.177906  0  -0.321301  -0.564485  0  2.30973  0
O  O109  1  0.04154822  0.34045224  0.42658773  1  0  -0.648597  0  2.048694  0  0  -0.584982  0  2.301503  0  0  -0.614137  0  2.286955  0  -1.178464  0  -0.321297  -0.56432  0  2.309853  0
O  O110  1  0.95845473  0.15954132  0.92658773  1  0  -0.648671  0  2.048554  0  0  -0.585006  0  2.301417  0  0  -0.61416  0  2.286872  0  -1.178454  0  -0.321422  -0.564345  0  2.309766  0
O  O111  1  0.95847424  0.65955923  0.57342153  1  0  -0.648777  0  2.048497  0  0  -0.585174  0  2.301404  0  0  -0.61433  0  2.286845  0  -1.177907  0  -0.321326  -0.564509  0  2.309756  0
O  O112  1  0.17181694  0.00594963  0.08059057  1  0  -0.628249  0  2.105536  0  0  -0.555225  0  2.367747  0  0  -0.586543  0  2.355789  0  -1.15249  0  -0.303018  -0.534133  0  2.375109  0
O  O113  1  0.17182236  0.50597190  0.41940480  1  0  -0.628124  0  2.105719  0  0  -0.555216  0  2.367841  0  0  -0.586531  0  2.355883  0  -1.152397  0  -0.302926  -0.534127  0  2.375205  0
O  O114  1  0.82818011  0.99402095  0.91940248  1  0  -0.628185  0  2.105765  0  0  -0.555187  0  2.367875  0  0  -0.586502  0  2.355918  0  -1.152513  0  -0.302876  -0.534098  0  2.375238  0
O  O115  1  0.82817633  0.49405523  0.58058304  1  0  -0.628244  0  2.10569  0  0  -0.55526  0  2.367874  0  0  -0.586569  0  2.355898  0  -1.152673  0  -0.303075  -0.534167  0  2.375231  0
O  O116  1  0.83374452  0.96913150  0.08335582  1  0  -0.651344  0  2.145396  0  0  -0.582156  0  2.412699  0  0  -0.613304  0  2.401151  0  -1.163813  0  -0.307941  -0.561183  0  2.419814  0
O  O117  1  0.83376472  0.46913533  0.41662855  1  0  -0.651484  0  2.145332  0  0  -0.58226  0  2.412547  0  0  -0.613407  0  2.400991  0  -1.163795  0  -0.308072  -0.561292  0  2.41968  0
O  O118  1  0.16624078  0.03085649  0.91663376  1  0  -0.651539  0  2.145517  0  0  -0.582301  0  2.412741  0  0  -0.61345  0  2.401189  0  -1.163715  0  -0.308082  -0.561332  0  2.419869  0
O  O119  1  0.16626344  0.53088658  0.58336103  1  0  -0.651131  0  2.145356  0  0  -0.58196  0  2.412582  0  0  -0.613111  0  2.401046  0  -1.16437  0  -0.307879  -0.560987  0  2.419684  0
O  O120  1  0.96095698  0.13592113  0.09526214  1  0  -0.623722  0  2.040714  0  0  -0.558517  0  2.29395  0  0  -0.587955  0  2.279634  0  -1.162259  0  -0.312515  -0.53765  0  2.302188  0
O  O121  1  0.96095814  0.63594600  0.40474886  1  0  -0.623891  0  2.040512  0  0  -0.558702  0  2.293711  0  0  -0.588144  0  2.279392  0  -1.162479  0  -0.312588  -0.537832  0  2.301951  0
O  O122  1  0.03904342  0.86404685  0.90474713  1  0  -0.624011  0  2.040315  0  0  -0.558819  0  2.293538  0  0  -0.588261  0  2.279213  0  -1.161744  0  -0.312658  -0.537951  0  2.301778  0
O  O123  1  0.03904054  0.36409766  0.59525924  1  0  -0.623794  0  2.040547  0  0  -0.558605  0  2.293797  0  0  -0.58805  0  2.279488  0  -1.162247  0  -0.312562  -0.537732  0  2.302029  0
O  O124  1  0.80572848  0.74402417  0.00247170  1  0  -0.748757  0  1.829213  0  0  -0.686394  0  2.007882  0  0  -0.706326  0  1.983636  0  -1.191902  0  -0.530948  -0.672771  0  2.024595  0
O  O125  1  0.80573994  0.24404802  0.49753119  1  0  -0.748518  0  1.829514  0  0  -0.686222  0  2.008097  0  0  -0.706116  0  1.983899  0  -1.191916  0  -0.530798  -0.672593  0  2.024798  0
O  O126  1  0.19426085  0.25595076  0.99753293  1  0  -0.748568  0  1.829537  0  0  -0.686246  0  2.008123  0  0  -0.706137  0  1.983923  0  -1.191954  0  -0.530809  -0.672615  0  2.024822  0
O  O127  1  0.19426977  0.75597998  0.50247170  1  0  -0.748834  0  1.829402  0  0  -0.686506  0  2.007945  0  0  -0.706429  0  1.983753  0  -1.191788  0  -0.53091  -0.672894  0  2.024632  0
