# generated using pymatgen
data_NiH6(C4N5)2
_symmetry_space_group_name_H-M   'P 1'
_cell_length_a   7.81399026
_cell_length_b   10.33509911
_cell_length_c   10.86008628
_cell_angle_alpha   107.30695474
_cell_angle_beta   89.74690950
_cell_angle_gamma   101.39166329
_symmetry_Int_Tables_number   1
_chemical_formula_structural   NiH6(C4N5)2
_chemical_formula_sum   'Ni3 H18 C24 N30'
_cell_volume   819.45407748
_cell_formula_units_Z   3
loop_
 _symmetry_equiv_pos_site_id
 _symmetry_equiv_pos_as_xyz
  1  'x, y, z'
loop_
 _atom_site_type_symbol
 _atom_site_label
 _atom_site_symmetry_multiplicity
 _atom_site_fract_x
 _atom_site_fract_y
 _atom_site_fract_z
 _atom_site_occupancy
 _atom_site_hle17_ddec_charge
 _atom_site_hle17_ddec_spin_density
 _atom_site_hle17_ddec_sum_bond_order
 _atom_site_hle17_magmom
 _atom_site_hse06_10hf_ddec_charge
 _atom_site_hse06_10hf_ddec_spin_density
 _atom_site_hse06_10hf_ddec_sum_bond_order
 _atom_site_hse06_10hf_magmom
 _atom_site_hse06_ddec_charge
 _atom_site_hse06_ddec_spin_density
 _atom_site_hse06_ddec_sum_bond_order
 _atom_site_hse06_magmom
 _atom_site_pbe_cm5_charge
 _atom_site_pbe_ddec_charge
 _atom_site_pbe_ddec_spin_density
 _atom_site_pbe_ddec_sum_bond_order
 _atom_site_pbe_magmom
Ni  Ni0  1  0.49999931  0.00000164  0.49999926  1  0.641315  -1.645298  2.447816  -1.239  0.694781  -1.746408  2.836462  -1.431  0.79688  -1.936804  2.750115  -1.594  0.696067  0.618227  -1.463249  2.89942  -1.192
Ni  Ni1  1  0.87716489  0.99668332  0.87270738  1  0.650739  1.623779  2.375087  1.283  0.695975  1.72548  2.766918  1.455  0.79574  1.861848  2.686788  1.6  0.682501  0.626847  1.547666  2.823129  1.283
Ni  Ni2  1  0.12283439  0.00331693  0.12729473  1  0.65075  1.623778  2.375205  1.283  0.695984  1.725474  2.767044  1.455  0.795722  1.861843  2.686955  1.6  0.682492  0.626858  1.547673  2.823251  1.283
H  H3  1  0.87781243  0.70672058  0.69398188  1  0.093852  0.000682  0.965135  0.002  0.091986  0.000546  1.047334  0.001  0.095285  0.000372  1.043013  0.001  0.122922  0.089476  0.0007  1.050795  0.001
H  H4  1  0.12219095  0.29328074  0.30601868  1  0.09386  0.000682  0.965149  0.002  0.092002  0.000546  1.047353  0.001  0.0953  0.000372  1.043033  0.001  0.122936  0.089493  0.0007  1.05081  0.001
H  H5  1  0.53579455  0.44036499  0.87397623  1  0.080768  0.000369  0.973085  0.001  0.079612  4.8e-05  1.054222  0.0  0.083215  1.2e-05  1.049862  0.0  0.114234  0.076814  9.4e-05  1.057889  0.0
H  H6  1  0.46420499  0.55963627  0.12602155  1  0.080784  0.000369  0.973085  0.001  0.07961  4.8e-05  1.054251  0.0  0.083229  1.2e-05  1.04988  0.0  0.114237  0.076814  9.4e-05  1.057911  0.0
H  H7  1  0.49661485  0.29010576  0.66745460  1  0.098279  -0.000828  0.956881  -0.002  0.097565  -0.000561  1.037356  -0.001  0.101343  -0.000399  1.031742  -0.001  0.123343  0.094895  -0.000663  1.041538  -0.001
H  H8  1  0.50338648  0.70989758  0.33254376  1  0.098255  -0.000827  0.956883  -0.002  0.097537  -0.000561  1.037367  -0.001  0.101312  -0.000399  1.031751  -0.001  0.12333  0.094867  -0.000663  1.041549  -0.001
H  H9  1  0.82541622  0.28251286  0.99997161  1  0.088338  0.000762  0.976956  0.001  0.091435  0.000677  1.051809  0.001  0.094098  0.000477  1.047978  0.001  0.124433  0.089551  0.000869  1.054674  0.001
H  H10  1  0.17459123  0.71748442  0.00003705  1  0.088293  0.000763  0.977041  0.001  0.09137  0.000678  1.051941  0.001  0.09403  0.000478  1.048114  0.001  0.124413  0.089486  0.000869  1.054805  0.001
H  H11  1  0.58678189  0.86700384  0.00037589  1  0.07365  -0.000222  0.966543  0.001  0.074835  -0.000462  1.042767  0.0  0.077498  -0.000492  1.039297  0.0  0.127447  0.072845  -0.000198  1.045325  0.0
H  H12  1  0.41321638  0.13299741  0.99962189  1  0.07363  -0.000222  0.966616  0.001  0.074841  -0.000462  1.042809  0.0  0.077505  -0.000492  1.039338  0.0  0.127468  0.072849  -0.000198  1.045369  0.0
H  H13  1  0.84920947  0.11215600  0.42014058  1  0.072128  -0.000737  0.973634  -0.001  0.0734  -0.000666  1.050364  0.0  0.07583  -0.000672  1.046986  0.0  0.127291  0.071448  -0.000567  1.053147  -0.001
H  H14  1  0.15079084  0.88784321  0.57985940  1  0.072124  -0.000736  0.973607  -0.001  0.073395  -0.000666  1.050347  0.0  0.075826  -0.000672  1.046968  0.0  0.127285  0.071442  -0.000567  1.05313  -0.001
H  H15  1  0.18522934  0.12396426  0.74789559  1  0.079923  0.001162  0.956716  0.001  0.079709  0.001063  1.035553  0.001  0.082775  0.000966  1.030773  0.0  0.128325  0.077279  0.001062  1.039285  0.001
H  H16  1  0.81477327  0.87603396  0.25210595  1  0.079922  0.001163  0.956743  0.001  0.079725  0.001063  1.035581  0.001  0.082791  0.000966  1.030801  0.0  0.12835  0.077296  0.001062  1.039311  0.001
H  H17  1  0.01513571  0.52220789  0.64046421  1  0.083116  -0.000187  0.942695  -0.001  0.087881  0.000222  1.013994  0.0  0.090705  0.000192  1.010435  0.0  0.116663  0.085879  0.000247  1.016664  0.0
H  H18  1  0.98486486  0.47779235  0.35953421  1  0.083125  -0.000186  0.94269  -0.001  0.087887  0.000222  1.013999  0.0  0.090713  0.000192  1.010438  0.0  0.116666  0.085886  0.000247  1.016669  0.0
H  H19  1  0.22778406  0.54902762  0.86199396  1  0.080725  0.000515  0.972155  0.001  0.084418  0.000279  1.045982  0.0  0.087639  0.000219  1.041645  0.0  0.11449  0.082004  0.000428  1.049372  0.0
H  H20  1  0.77220090  0.45096625  0.13799993  1  0.080827  0.000516  0.972158  0.001  0.084511  0.000279  1.045988  0.0  0.087731  0.000219  1.041652  0.0  0.114529  0.082101  0.000428  1.049372  0.0
C  C21  1  0.78599858  0.68608194  0.76529588  1  0.129062  -0.009895  3.607757  -0.011  0.093692  -0.002563  3.8558  -0.004  0.105374  -0.002954  3.871923  -0.004  0.069538  0.085353  -0.002102  3.845669  -0.003
C  C22  1  0.21400480  0.31391936  0.23470376  1  0.129111  -0.009899  3.60766  -0.011  0.093719  -0.002563  3.855748  -0.004  0.105403  -0.002954  3.871869  -0.004  0.069546  0.085381  -0.002103  3.845615  -0.003
C  C23  1  0.74912064  0.42834491  0.66925764  1  -0.03641  -0.008346  3.780384  -0.01  -0.016487  -0.002539  4.005937  -0.003  -0.025358  -0.002644  4.033557  -0.003  -0.00227  -0.010789  -0.002363  3.988284  -0.003
C  C24  1  0.25088043  0.57165741  0.33074320  1  -0.036262  -0.008334  3.780183  -0.01  -0.016365  -0.00254  4.005785  -0.003  -0.025234  -0.002644  4.033402  -0.003  -0.002255  -0.010667  -0.002363  3.988135  -0.003
C  C25  1  0.02657183  0.43911715  0.95574525  1  -0.040524  0.006759  3.78611  0.008  -0.022556  0.002855  4.019579  0.004  -0.030785  0.002622  4.046564  0.003  -0.005063  -0.016908  0.003003  4.00221  0.004
C  C26  1  0.97343052  0.56088518  0.04425560  1  -0.040373  0.006785  3.786035  0.008  -0.022346  0.002858  4.01949  0.004  -0.030573  0.002622  4.046475  0.003  -0.005001  -0.016699  0.003004  4.002122  0.004
C  C27  1  0.59309092  0.54067910  0.86155089  1  0.127214  -0.010365  3.652432  -0.011  0.091857  -0.003219  3.909126  -0.003  0.102091  -0.003175  3.922699  -0.003  0.065495  0.08458  -0.003809  3.90068  -0.004
C  C28  1  0.40690735  0.45932214  0.13844597  1  0.127192  -0.010371  3.652505  -0.011  0.091876  -0.003218  3.909152  -0.003  0.102096  -0.003174  3.922717  -0.003  0.065509  0.084595  -0.00381  3.900715  -0.004
C  C29  1  0.70897172  0.55135905  0.76432941  1  -0.03685  0.008136  3.783185  0.01  -0.015059  0.002539  4.007199  0.003  -0.023492  0.002613  4.034257  0.004  -0.001965  -0.00981  0.002642  3.99001  0.004
C  C30  1  0.29102936  0.44864326  0.23566959  1  -0.036854  0.008142  3.78305  0.01  -0.015075  0.002538  4.007105  0.003  -0.023509  0.002613  4.034166  0.004  -0.001949  -0.009827  0.002642  3.989918  0.004
C  C31  1  0.62768634  0.30221051  0.63125642  1  0.134794  0.009032  3.603169  0.011  0.099939  0.002426  3.849567  0.004  0.112074  0.002754  3.865319  0.004  0.072971  0.091269  0.002602  3.839478  0.004
C  C32  1  0.37231679  0.69778977  0.36874478  1  0.134764  0.009018  3.603133  0.011  0.099925  0.002428  3.849536  0.004  0.112066  0.002753  3.865282  0.004  0.072966  0.091254  0.002602  3.83945  0.004
C  C33  1  0.94214340  0.30408128  0.94847805  1  0.124286  -0.007388  3.62791  -0.009  0.085251  -0.001894  3.88124  -0.003  0.09668  -0.002308  3.898134  -0.003  0.064076  0.076857  -0.001736  3.870883  -0.003
C  C34  1  0.05786022  0.69592108  0.05152557  1  0.124341  -0.007413  3.628107  -0.009  0.085256  -0.001895  3.881532  -0.003  0.096681  -0.002307  3.89842  -0.003  0.064105  0.076864  -0.001735  3.871172  -0.003
C  C35  1  0.62481352  0.77557596  0.93628099  1  0.292362  -0.010651  3.674637  -0.012  0.244146  -0.003104  3.954613  -0.004  0.261345  -0.003484  3.965165  -0.005  0.179434  0.232161  -0.002933  3.947921  -0.004
C  C36  1  0.37518859  0.22442532  0.06371773  1  0.292389  -0.01065  3.67486  -0.012  0.244164  -0.003104  3.954827  -0.004  0.261363  -0.003483  3.965379  -0.005  0.179418  0.232179  -0.002932  3.948133  -0.004
C  C37  1  0.82250807  0.20330327  0.49262164  1  0.289421  0.009385  3.67508  0.011  0.242664  0.002428  3.951659  0.003  0.259393  0.002749  3.963668  0.004  0.178641  0.230917  0.002421  3.943819  0.003
C  C38  1  0.17749071  0.79669490  0.50737805  1  0.289365  0.009368  3.675126  0.011  0.242608  0.002429  3.951702  0.003  0.259337  0.002748  3.963711  0.004  0.178584  0.230861  0.002421  3.943861  0.003
C  C39  1  0.13671644  0.21440314  0.80388914  1  0.290494  -0.008197  3.657367  -0.009  0.243687  -0.001994  3.935296  -0.003  0.26095  -0.002167  3.945535  -0.003  0.181028  0.231387  -0.00193  3.929447  -0.002
C  C40  1  0.86328772  0.78559612  0.19611085  1  0.290573  -0.008226  3.657231  -0.009  0.243704  -0.001996  3.935229  -0.003  0.260961  -0.002167  3.945465  -0.003  0.181076  0.231406  -0.00193  3.929379  -0.002
C  C41  1  0.91092001  0.42936582  0.61233164  1  0.128622  0.01004  3.660997  0.011  0.093191  0.003593  3.920024  0.004  0.103545  0.003316  3.933948  0.004  0.067233  0.085624  0.004178  3.911003  0.005
C  C42  1  0.08907954  0.57063544  0.38766614  1  0.128552  0.010026  3.660989  0.011  0.093124  0.003594  3.920029  0.004  0.103474  0.003315  3.933954  0.004  0.067213  0.085557  0.004178  3.911008  0.005
C  C43  1  0.16155094  0.44909642  0.87092467  1  0.122318  -0.008903  3.661189  -0.009  0.085832  -0.003219  3.921705  -0.003  0.096225  -0.002821  3.934493  -0.003  0.06561  0.077933  -0.003813  3.914054  -0.004
C  C44  1  0.83844685  0.55089758  0.12907018  1  0.122119  -0.008931  3.661295  -0.009  0.085608  -0.00322  3.921814  -0.003  0.095999  -0.002819  3.934603  -0.003  0.065524  0.077707  -0.003813  3.914161  -0.004
N  N45  1  0.45270200  0.03305950  0.69384604  1  -0.401925  0.038021  2.68155  0.048  -0.43735  0.022576  2.989758  0.03  -0.469299  0.025454  3.000303  0.035  -0.231788  -0.412287  0.020953  2.980908  0.027
N  N46  1  0.54729472  0.96694070  0.30615237  1  -0.401915  0.038003  2.681604  0.048  -0.437323  0.022573  2.98981  0.03  -0.469269  0.025448  3.000352  0.035  -0.23175  -0.412265  0.020947  2.980963  0.027
N  N47  1  0.90847753  0.93794328  0.67960759  1  -0.422459  -0.026002  2.740853  -0.028  -0.458002  -0.015835  3.05702  -0.019  -0.492115  -0.022304  3.067522  -0.028  -0.247732  -0.43284  -0.009304  3.049382  -0.011
N  N48  1  0.09152330  0.06205799  0.32039019  1  -0.422459  -0.026012  2.740739  -0.028  -0.457993  -0.015837  3.056905  -0.019  -0.492105  -0.022304  3.067405  -0.028  -0.247731  -0.432832  -0.009308  3.049267  -0.011
N  N49  1  0.87861673  0.04715367  0.08258686  1  -0.49051  0.050904  2.814898  0.074  -0.535706  0.03403  3.168793  0.048  -0.584687  0.02015  3.185111  0.03  -0.289691  -0.501652  0.042209  3.157777  0.057
N  N50  1  0.12138433  0.95284353  0.91741809  1  -0.490319  0.050898  2.814893  0.074  -0.535485  0.034029  3.16875  0.048  -0.584464  0.020151  3.185072  0.03  -0.289562  -0.50143  0.042208  3.15773  0.057
N  N51  1  0.80206370  0.92135288  0.59544255  1  0.37897  -0.003364  4.131494  -0.005  0.43545  -0.000955  4.434377  -0.002  0.459356  -0.001517  4.470442  -0.002  0.090066  0.417762  -0.000167  4.408309  -0.001
N  N52  1  0.19793687  0.07864737  0.40455680  1  0.378923  -0.00336  4.131464  -0.005  0.435395  -0.000953  4.434362  -0.002  0.459303  -0.001515  4.470421  -0.002  0.090023  0.417705  -0.000164  4.408296  -0.001
N  N53  1  0.99863035  0.19297932  0.87546373  1  -0.30249  0.047849  3.31119  0.069  -0.254075  0.033611  3.589445  0.05  -0.286629  0.028605  3.610619  0.043  -0.319019  -0.231916  0.036306  3.576394  0.052
N  N54  1  0.00137152  0.80701578  0.12453603  1  -0.302533  0.04787  3.31134  0.069  -0.254095  0.033612  3.589652  0.05  -0.286636  0.028605  3.610819  0.043  -0.319113  -0.231936  0.036307  3.5766  0.052
N  N55  1  0.74806851  0.79724161  0.85360913  1  -0.304521  0.052135  3.306055  0.075  -0.257249  0.035684  3.583601  0.052  -0.290376  0.030086  3.605449  0.045  -0.319068  -0.234426  0.039138  3.568954  0.056
N  N56  1  0.25193334  0.20275865  0.14639022  1  -0.304542  0.052139  3.306036  0.075  -0.257275  0.035685  3.583617  0.052  -0.290402  0.030087  3.605467  0.045  -0.319048  -0.234451  0.03914  3.568968  0.056
N  N57  1  0.66684218  0.18971134  0.54586589  1  -0.306117  -0.053262  3.323913  -0.072  -0.259387  -0.035312  3.60169  -0.05  -0.293947  -0.030773  3.624363  -0.044  -0.317878  -0.234307  -0.036694  3.585246  -0.051
N  N58  1  0.33315838  0.81028891  0.45413438  1  -0.306099  -0.053247  3.323871  -0.072  -0.259366  -0.035313  3.601636  -0.05  -0.293926  -0.030773  3.624307  -0.044  -0.317854  -0.234285  -0.036694  3.585192  -0.051
N  N59  1  0.82348621  0.14504272  0.14802383  1  0.380749  -0.018869  4.155034  -0.033  0.431211  0.000948  4.46189  -0.004  0.45172  -0.002702  4.496871  -0.008  0.0854  0.416736  0.004654  4.437574  0.0
N  N60  1  0.17651407  0.85495653  0.85198168  1  0.380542  -0.018871  4.155294  -0.033  0.430991  0.000948  4.462177  -0.004  0.451499  -0.002701  4.497162  -0.008  0.085247  0.416516  0.004653  4.437855  0.0
N  N61  1  0.94627410  0.31882228  0.52266092  1  -0.324181  -0.009634  3.032349  -0.013  -0.285954  -0.003398  3.305401  -0.005  -0.301251  -0.00306  3.317077  -0.004  -0.311679  -0.275114  -0.003884  3.297618  -0.006
N  N62  1  0.05372622  0.68117692  0.47733722  1  -0.324138  -0.009619  3.032503  -0.013  -0.285901  -0.003399  3.30554  -0.005  -0.301198  -0.00306  3.317217  -0.004  -0.311627  -0.27506  -0.003884  3.297757  -0.006
N  N63  1  0.21618479  0.33816671  0.79613902  1  -0.320551  0.008947  3.042758  0.012  -0.28098  0.004003  3.316096  0.006  -0.296426  0.003337  3.327417  0.005  -0.308622  -0.270182  0.004668  3.308837  0.006
N  N64  1  0.78381349  0.66182936  0.20385641  1  -0.320572  0.008969  3.042687  0.012  -0.280946  0.004003  3.316024  0.006  -0.296391  0.003336  3.327349  0.005  -0.308615  -0.270148  0.004668  3.308767  0.006
N  N65  1  0.70333401  0.90110114  0.50609018  1  -0.389348  0.041976  2.667032  0.052  -0.431857  0.023915  2.97782  0.031  -0.463919  0.026944  2.987646  0.037  -0.231828  -0.407533  0.022783  2.970308  0.029
N  N66  1  0.29666142  0.09889906  0.49391007  1  -0.389292  0.041977  2.667186  0.052  -0.431793  0.023915  2.977972  0.031  -0.463854  0.026942  2.987796  0.037  -0.231785  -0.40747  0.022779  2.970461  0.029
N  N67  1  0.54735860  0.65152298  0.94446703  1  -0.332411  0.009515  3.052015  0.013  -0.289214  0.00376  3.32571  0.005  -0.305949  0.003266  3.338351  0.005  -0.310025  -0.277441  0.004363  3.317202  0.006
N  N68  1  0.45263915  0.34847620  0.05553202  1  -0.332493  0.009517  3.052219  0.013  -0.289321  0.003759  3.32593  0.005  -0.306057  0.003265  3.338575  0.005  -0.310092  -0.277548  0.004363  3.317424  0.006
N  N69  1  0.76901877  0.23999544  0.21065697  1  -0.367761  0.106258  2.348056  0.136  -0.382558  0.064139  2.579271  0.083  -0.393593  0.056977  2.590253  0.076  -0.190123  -0.373899  0.069026  2.571412  0.086
N  N70  1  0.23098024  0.76000379  0.78934762  1  -0.367686  0.106269  2.348176  0.136  -0.382481  0.06414  2.579401  0.083  -0.393521  0.056976  2.59039  0.076  -0.190094  -0.373824  0.069026  2.571541  0.086
N  N71  1  0.55181069  0.04172403  0.77956056  1  0.378988  -0.002568  4.138852  -0.004  0.43592  -0.000933  4.438986  -0.002  0.45961  -0.00149  4.474785  -0.003  0.088875  0.418595  0.000614  4.412162  0.0
N  N72  1  0.44818858  0.95827622  0.22044155  1  0.379037  -0.002561  4.138795  -0.004  0.435955  -0.000929  4.438938  -0.002  0.459644  -0.001486  4.474735  -0.003  0.088849  0.41863  0.000619  4.412113  0.0
N  N73  1  0.64264798  0.05399893  0.87165165  1  -0.423458  -0.024153  2.704725  -0.026  -0.460689  -0.014961  3.019914  -0.017  -0.493175  -0.021594  3.029328  -0.027  -0.251314  -0.4363  -0.008843  3.012279  -0.01
N  N74  1  0.35735053  0.94600337  0.12834919  1  -0.423533  -0.024142  2.704685  -0.026  -0.460733  -0.014959  3.019833  -0.017  -0.493219  -0.02159  3.029249  -0.027  -0.251308  -0.436341  -0.008843  3.012193  -0.01
