# generated using pymatgen
data_MnSi4H44(C11N2)2
_symmetry_space_group_name_H-M   'P 1'
_cell_length_a   9.04873558
_cell_length_b   17.79949191
_cell_length_c   20.55541739
_cell_angle_alpha   100.95701150
_cell_angle_beta   89.99991547
_cell_angle_gamma   90.00013510
_symmetry_Int_Tables_number   1
_chemical_formula_structural   MnSi4H44(C11N2)2
_chemical_formula_sum   'Mn4 Si16 H176 C88 N16'
_cell_volume   3250.36094309
_cell_formula_units_Z   4
loop_
 _symmetry_equiv_pos_site_id
 _symmetry_equiv_pos_as_xyz
  1  'x, y, z'
loop_
 _atom_site_type_symbol
 _atom_site_label
 _atom_site_symmetry_multiplicity
 _atom_site_fract_x
 _atom_site_fract_y
 _atom_site_fract_z
 _atom_site_occupancy
 _atom_site_pbe_bader_charge
 _atom_site_pbe_bader_spin_density
 _atom_site_pbe_cm5_charge
 _atom_site_pbe_ddec_charge
 _atom_site_pbe_ddec_spin_density
 _atom_site_pbe_ddec_sum_bond_order
 _atom_site_pbe_magmom
Mn  Mn0  1  0.14424210  0.93499062  0.71879849  1  1.354019  4.29942  0.698904  0.847045  4.488173  2.642634  4.151
Mn  Mn1  1  0.64541918  0.56494804  0.28118170  1  1.348174  4.328002  0.692903  0.842869  4.509848  2.627071  4.176
Mn  Mn2  1  0.85458980  0.06495004  0.28118274  1  1.348161  4.328154  0.692851  0.842846  4.510033  2.626879  4.176
Mn  Mn3  1  0.35574564  0.43499320  0.71879962  1  1.354101  -4.299185  0.699001  0.84702  -4.497746  2.642503  -4.151
Si  Si4  1  0.37158685  0.99091098  0.62464431  1  2.778495  0.005351  0.182393  1.125319  0.013079  3.959998  0.005
Si  Si5  1  0.87187042  0.50904117  0.37557341  1  2.778998  0.005324  0.182458  1.1275  0.013092  3.96021  0.005
Si  Si6  1  0.62812362  0.00903777  0.37557809  1  2.778718  0.005326  0.182519  1.127826  0.0131  3.959321  0.005
Si  Si7  1  0.12841803  0.49090300  0.62464288  1  2.778307  -0.005346  0.182456  1.125531  -0.013096  3.959567  -0.005
Si  Si8  1  0.18239556  0.85334424  0.56417790  1  2.781943  0.006902  0.188191  1.12484  0.015636  3.96069  0.006
Si  Si9  1  0.68261436  0.64661511  0.43597740  1  2.782303  0.006891  0.188279  1.126141  0.015646  3.961755  0.006
Si  Si10  1  0.81737901  0.14661822  0.43598205  1  2.781983  0.006897  0.188247  1.12588  0.015648  3.962308  0.006
Si  Si11  1  0.31761552  0.35333704  0.56417987  1  2.781534  -0.006899  0.188107  1.124536  -0.015657  3.96088  -0.006
Si  Si12  1  0.39468012  0.87445618  0.80495020  1  2.784262  0.00535  0.186439  1.128701  0.012145  3.957611  0.005
Si  Si13  1  0.89505876  0.62561603  0.19481388  1  2.781868  0.005338  0.185383  1.128554  0.012156  3.960103  0.005
Si  Si14  1  0.60493973  0.12561775  0.19481552  1  2.781852  0.005337  0.185451  1.128727  0.012149  3.959929  0.005
Si  Si15  1  0.10533579  0.37446247  0.80494676  1  2.784305  -0.005352  0.18642  1.128574  -0.012178  3.957632  -0.005
Si  Si16  1  0.19276803  0.00207286  0.87397901  1  2.773686  0.00697  0.188863  1.115856  0.016258  3.959672  0.006
Si  Si17  1  0.69307787  0.49803093  0.12578368  1  2.775594  0.00698  0.189219  1.11782  0.016284  3.960625  0.006
Si  Si18  1  0.80692365  0.99803484  0.12578935  1  2.775242  0.006985  0.189228  1.117743  0.016289  3.960866  0.006
Si  Si19  1  0.30722495  0.50207618  0.87397145  1  2.773889  -0.006972  0.18884  1.115889  -0.016298  3.959296  -0.006
H  H20  1  0.05782704  0.04237159  0.62143337  1  0.124874  0.001941  0.125629  0.086942  0.001006  1.032235  0.0
H  H21  1  0.55669919  0.45802693  0.37901662  1  0.135405  0.001964  0.126101  0.087896  0.000953  1.031159  0.0
H  H22  1  0.94329468  0.95802240  0.37901790  1  0.135253  0.00197  0.126079  0.08794  0.000942  1.031028  0.0
H  H23  1  0.44216917  0.54237279  0.62143266  1  0.124779  -0.001936  0.125593  0.086855  -0.001021  1.032214  0.0
H  H24  1  0.89903323  0.15539919  0.61991703  1  0.086849  0.000717  0.113945  0.120865  0.000338  1.013661  0.001
H  H25  1  0.39762035  0.34496023  0.38054869  1  0.089899  0.0009  0.114  0.12056  0.00046  1.013698  0.0
H  H26  1  0.10237141  0.84495590  0.38055217  1  0.089873  0.000956  0.113975  0.120518  0.000449  1.013763  0.0
H  H27  1  0.60095736  0.65539600  0.61991193  1  0.086705  -0.000659  0.113941  0.120777  -0.000349  1.013664  0.0
H  H28  1  0.70049680  0.11398097  0.80190655  1  0.052589  0.000538  0.114707  0.120629  0.000192  0.995632  0.0
H  H29  1  0.20150274  0.38550882  0.19782137  1  0.050554  0.000809  0.115032  0.120791  0.000314  0.994741  0.0
H  H30  1  0.29849534  0.88550585  0.19782494  1  0.050564  0.000812  0.115005  0.120764  0.000313  0.994888  0.0
H  H31  1  0.79949299  0.61397457  0.80190177  1  0.052615  -0.000532  0.114667  0.120644  -0.000191  0.99558  0.0
H  H32  1  0.86291041  0.00245614  0.79382547  1  0.080323  0.002434  0.122293  0.08552  0.001878  1.029251  0.001
H  H33  1  0.36381295  0.49718608  0.20602713  1  0.084549  0.002489  0.122694  0.085989  0.001855  1.028272  0.001
H  H34  1  0.13618450  0.99717892  0.20602768  1  0.084604  0.002491  0.12263  0.085963  0.001855  1.028281  0.001
H  H35  1  0.63707559  0.50245012  0.79381989  1  0.080345  -0.002431  0.122242  0.085457  -0.001883  1.029065  -0.001
H  H36  1  0.82580332  0.26913712  0.64705573  1  0.100936  -0.000641  0.114247  0.117625  -0.000192  1.009556  0.0
H  H37  1  0.32584989  0.23089078  0.35294348  1  0.100752  0.000798  0.114553  0.118163  0.000278  1.009299  0.0
H  H38  1  0.17415249  0.73087622  0.35293793  1  0.101091  0.000866  0.114525  0.118106  0.000322  1.009097  0.0
H  H39  1  0.67419986  0.76913572  0.64705526  1  0.100833  0.000709  0.114253  0.117594  0.000232  1.009745  0.0
H  H40  1  0.66785995  0.38321071  0.65746963  1  0.102138  -0.001989  0.119921  0.081076  -0.001312  1.032193  -0.001
H  H41  1  0.16774689  0.11676323  0.34254757  1  0.102291  0.002094  0.12008  0.081007  0.001336  1.031964  0.001
H  H42  1  0.33225058  0.61674656  0.34253330  1  0.101593  0.002096  0.119984  0.080835  0.001339  1.032036  0.001
H  H43  1  0.83214150  0.88320663  0.65746618  1  0.102099  0.001995  0.119893  0.081102  0.001313  1.032204  0.001
H  H44  1  0.40556656  0.31378715  0.80006717  1  0.124368  -0.00237  0.125772  0.086225  -0.001411  1.031552  -0.001
H  H45  1  0.90563049  0.18606858  0.19990175  1  0.122391  0.002419  0.125956  0.08658  0.001371  1.03065  0.001
H  H46  1  0.59435721  0.68607168  0.19989769  1  0.122421  0.00242  0.126004  0.086679  0.001374  1.030801  0.001
H  H47  1  0.09442920  0.81378109  0.80006404  1  0.124492  0.002372  0.125801  0.086262  0.00141  1.031503  0.001
H  H48  1  0.54775522  0.19417120  0.79422834  1  0.086768  -0.000771  0.112954  0.117061  -0.000409  1.006661  0.0
H  H49  1  0.04753849  0.30594399  0.20593427  1  0.089206  0.001038  0.113244  0.117618  0.000412  1.006231  0.0
H  H50  1  0.45246582  0.80595263  0.20593770  1  0.089123  0.001041  0.113284  0.117637  0.000412  1.006218  0.0
H  H51  1  0.95222834  0.69417068  0.79422346  1  0.087074  0.000775  0.112973  0.117119  0.000409  1.006665  0.0
H  H52  1  0.58329919  0.90636097  0.57569501  1  0.02174  9.9e-05  0.085432  0.161249  3e-06  1.048902  0.0
H  H53  1  0.08373943  0.59357937  0.42437112  1  0.023769  1.2e-05  0.085282  0.160898  -7.6e-05  1.049003  0.0
H  H54  1  0.41626762  0.09358143  0.42437310  1  0.023692  0.000108  0.085336  0.161045  9e-06  1.048974  0.0
H  H55  1  0.91669711  0.40635503  0.57569470  1  0.021784  4e-06  0.085455  0.161241  7e-05  1.048922  0.0
H  H56  1  0.64899800  0.99541436  0.62015133  1  0.013294  0.000732  0.079801  0.150511  0.000282  1.05395  0.0
H  H57  1  0.14942914  0.50451805  0.37995286  1  0.014286  0.000796  0.079384  0.150178  0.00035  1.055506  0.0
H  H58  1  0.35058207  0.00452004  0.37995244  1  0.013392  0.000803  0.079403  0.15024  0.000347  1.0555  0.0
H  H59  1  0.85100077  0.49540892  0.62015114  1  0.013389  -0.000723  0.079824  0.15053  -0.000284  1.053881  0.0
H  H60  1  0.58556349  0.92447334  0.66394188  1  0.017318  0.000186  0.085026  0.154137  -0.00011  1.066798  0.0
H  H61  1  0.08574202  0.57536744  0.33611810  1  0.019182  0.00023  0.084945  0.154254  -7.5e-05  1.067087  0.0
H  H62  1  0.41426413  0.07536893  0.33612047  1  0.019406  0.000242  0.084965  0.154333  -6.8e-05  1.067064  0.0
H  H63  1  0.91443592  0.42446682  0.66394099  1  0.017218  -0.000173  0.084907  0.153984  0.000113  1.066893  0.0
H  H64  1  0.23326387  0.06771838  0.55387282  1  0.012797  0.000223  0.083909  0.155879  3e-05  1.058901  0.0
H  H65  1  0.73356130  0.43218242  0.44627194  1  0.05093  0.000113  0.083936  0.156094  -4.5e-05  1.058923  0.0
H  H66  1  0.76644218  0.93218399  0.44627238  1  0.050858  0.000215  0.083926  0.156077  2e-06  1.059012  0.0
H  H67  1  0.26673931  0.56771365  0.55387418  1  0.012803  -0.000117  0.08392  0.155896  1.8e-05  1.058898  0.0
H  H68  1  0.42507082  0.08539749  0.55289380  1  0.033906  0.000844  0.087117  0.161996  0.000423  1.053549  0.0
H  H69  1  0.92536264  0.41444918  0.44728280  1  0.028828  0.000886  0.087268  0.162161  0.00043  1.054446  0.0
H  H70  1  0.57464296  0.91444825  0.44728101  1  0.02883  0.000907  0.087254  0.16214  0.000417  1.05457  0.0
H  H71  1  0.07493355  0.58539541  0.55289669  1  0.033926  -0.000821  0.087145  0.161971  -0.000436  1.053585  0.0
H  H72  1  0.35127366  0.00098987  0.50419957  1  0.02103  4.8e-05  0.087507  0.164624  -5.6e-05  1.055092  0.0
H  H73  1  0.85159112  0.49887959  0.49596915  1  0.021473  -3e-06  0.087828  0.165201  -4.5e-05  1.05487  0.0
H  H74  1  0.64841360  0.99887703  0.49596948  1  0.021541  4.1e-05  0.087833  0.165212  -6.2e-05  1.054899  0.0
H  H75  1  0.14872496  0.50098731  0.50419747  1  0.021243  1.4e-05  0.087526  0.164691  5.3e-05  1.05497  0.0
H  H76  1  0.26411773  0.10067108  0.70790015  1  0.022324  0.001053  0.085843  0.159575  0.000874  1.047045  0.0
H  H77  1  0.76429837  0.39931903  0.29227143  1  0.023832  0.001105  0.085873  0.159405  0.000781  1.046619  0.0
H  H78  1  0.73570768  0.89932171  0.29227208  1  0.023804  0.001107  0.085853  0.159379  0.000782  1.046625  0.0
H  H79  1  0.23588178  0.60066575  0.70789948  1  0.022387  -0.001053  0.085814  0.159547  -0.000877  1.046965  0.0
H  H80  1  0.39593375  0.04875023  0.74593393  1  0.049604  0.001427  0.089654  0.16243  0.001116  1.057321  0.001
H  H81  1  0.89602414  0.45127951  0.25422851  1  0.052449  0.001538  0.089292  0.162058  0.001201  1.058032  0.001
H  H82  1  0.60398227  0.95128261  0.25423126  1  0.052502  0.001539  0.089312  0.162064  0.001201  1.058067  0.001
H  H83  1  0.10406318  0.54874361  0.74593022  1  0.049579  -0.001428  0.089594  0.162373  -0.001122  1.057451  -0.001
H  H84  1  0.45435209  0.11174508  0.69290349  1  0.024698  0.003538  0.081595  0.153689  0.001603  1.063976  0.002
H  H85  1  0.95455142  0.38821946  0.30717571  1  0.02274  0.003837  0.08121  0.153145  0.001731  1.064554  0.002
H  H86  1  0.54545342  0.88822422  0.30717828  1  0.022702  0.00384  0.081198  0.153068  0.001731  1.064632  0.002
H  H87  1  0.04564420  0.61174011  0.69290009  1  0.024752  -0.003537  0.081622  0.153751  -0.001606  1.063905  -0.002
H  H88  1  0.91676568  0.89853035  0.56164803  1  0.019789  0.000361  0.083157  0.154194  0.000171  1.058775  0.0
H  H89  1  0.41687326  0.60151280  0.43845814  1  0.021725  0.00033  0.083012  0.153987  0.000147  1.059739  0.0
H  H90  1  0.08312272  0.10151736  0.43846415  1  0.021925  0.000349  0.082954  0.153885  0.000155  1.059763  0.0
H  H91  1  0.58324501  0.39852690  0.56164931  1  0.019687  -0.000327  0.083142  0.15416  -0.000159  1.058693  0.0
H  H92  1  0.02834449  0.93235472  0.50278556  1  0.016534  0.000279  0.085033  0.154677  9.3e-05  1.047042  0.0
H  H93  1  0.52832954  0.56771891  0.49739009  1  0.016659  0.000134  0.084839  0.154388  6.4e-05  1.047339  0.0
H  H94  1  0.97166105  0.06772161  0.49739262  1  0.016773  0.000237  0.084839  0.154409  6.3e-05  1.047237  0.0
H  H95  1  0.47166385  0.43235514  0.50279015  1  0.016614  -8.2e-05  0.084968  0.154568  -3e-05  1.047094  0.0
H  H96  1  0.96302295  0.83607826  0.48673814  1  0.011003  0.000766  0.084273  0.159459  0.000341  1.036237  0.0
H  H97  1  0.46309963  0.66398324  0.51335447  1  0.008641  0.000749  0.084267  0.159305  0.000346  1.036553  0.0
H  H98  1  0.03690081  0.16398661  0.51336324  1  0.008447  0.000771  0.084313  0.159402  0.000413  1.036403  0.0
H  H99  1  0.53698438  0.33607991  0.48673689  1  0.010945  -0.000713  0.084291  0.159448  -0.000398  1.036202  0.0
H  H100  1  0.43002353  0.81810489  0.51403275  1  0.021709  0.000108  0.088899  0.160244  -5.4e-05  1.048839  0.0
H  H101  1  0.93014065  0.68188507  0.48613666  1  0.023377  6.7e-05  0.088851  0.159947  -8e-05  1.048784  0.0
H  H102  1  0.56985602  0.18188046  0.48613728  1  0.023692  7.3e-05  0.088836  0.159949  -7e-06  1.048771  0.0
H  H103  1  0.06998756  0.31809742  0.51403193  1  0.021676  -2.8e-05  0.08888  0.160256  3e-05  1.048874  0.0
H  H104  1  0.28755060  0.78358574  0.45785203  1  0.018692  0.000923  0.083051  0.153756  0.000451  1.048228  0.0
H  H105  1  0.78772185  0.71648932  0.54232222  1  0.015765  0.000787  0.083012  0.153826  0.000341  1.048716  0.0
H  H106  1  0.71226596  0.21649402  0.54232574  1  0.015716  0.000809  0.082984  0.153764  0.000479  1.048573  0.0
H  H107  1  0.21245941  0.28357786  0.45785153  1  0.018486  -0.000651  0.083077  0.153818  -0.000361  1.048247  0.0
H  H108  1  0.34095274  0.88121477  0.46939327  1  0.01302  0.00011  0.084383  0.154336  -8e-06  1.062524  0.0
H  H109  1  0.84094565  0.61885808  0.53083215  1  0.012585  6.4e-05  0.084741  0.154693  -1.6e-05  1.062781  0.0
H  H110  1  0.65905501  0.11886101  0.53083833  1  0.012408  5.6e-05  0.084777  0.154751  -4.4e-05  1.062833  0.0
H  H111  1  0.15906099  0.38120797  0.46939347  1  0.012895  -4e-06  0.084321  0.154187  5.3e-05  1.062648  0.0
H  H112  1  0.07414586  0.75378921  0.62549835  1  0.009849  0.000397  0.080353  0.152657  0.0002  1.074272  0.0
H  H113  1  0.57423822  0.74604009  0.37451840  1  0.010256  0.000485  0.080365  0.152421  0.000251  1.074548  0.0
H  H114  1  0.92575028  0.24605132  0.37452091  1  0.010174  0.000431  0.080323  0.152437  0.000211  1.074508  0.0
H  H115  1  0.42586789  0.25378099  0.62549717  1  0.009722  -0.000343  0.080419  0.152849  -0.00016  1.074051  0.0
H  H116  1  0.12366000  0.71513237  0.54285733  1  0.02298  0.000437  0.08459  0.155173  0.00014  1.060813  0.0
H  H117  1  0.62372796  0.78481657  0.45712311  1  0.023059  0.000532  0.084591  0.155066  0.000209  1.060888  0.0
H  H118  1  0.87624608  0.28482832  0.45712865  1  0.023104  0.000483  0.084566  0.154992  0.000189  1.060858  0.0
H  H119  1  0.37633836  0.21512696  0.54285519  1  0.022843  -0.000385  0.084584  0.155189  -0.000123  1.060909  0.0
H  H120  1  0.26243846  0.73639981  0.60417553  1  0.032199  2.8e-05  0.08652  0.162747  -0.000148  1.040085  0.0
H  H121  1  0.76249878  0.76351209  0.39581187  1  0.031015  4e-05  0.086349  0.162489  -0.000188  1.040133  0.0
H  H122  1  0.73748420  0.26350824  0.39581348  1  0.031309  -3.5e-05  0.086358  0.162493  -0.000234  1.04005  0.0
H  H123  1  0.23756864  0.23639367  0.60417822  1  0.0324  5e-05  0.086551  0.16276  0.000195  1.040088  0.0
H  H124  1  0.27214777  0.78671617  0.87179439  1  0.014851  0.000231  0.082578  0.153915  4e-05  1.045283  0.0
H  H125  1  0.77272706  0.71336562  0.12793292  1  0.015196  0.000258  0.082524  0.153734  -4e-06  1.045358  0.0
H  H126  1  0.72727537  0.21336747  0.12793450  1  0.015196  0.000258  0.082521  0.153712  -6e-06  1.045324  0.0
H  H127  1  0.22785315  0.28672261  0.87179818  1  0.014874  -0.000227  0.082547  0.153865  -4e-05  1.045244  0.0
H  H128  1  0.46507415  0.77171489  0.86542331  1  0.036504  0.000849  0.084928  0.160643  0.000479  1.029427  0.0
H  H129  1  0.96566564  0.72830873  0.13426123  1  0.034706  0.000894  0.084843  0.160348  0.00042  1.029613  0.0
H  H130  1  0.53433683  0.22830752  0.13426632  1  0.034771  0.000895  0.084828  0.160333  0.000421  1.029711  0.0
H  H131  1  0.03492783  0.27171711  0.86542557  1  0.036419  -0.000841  0.084934  0.160643  -0.000475  1.029409  0.0
H  H132  1  0.39396485  0.85070595  0.92269429  1  0.034398  8.1e-05  0.084174  0.157287  -1.9e-05  1.055971  0.0
H  H133  1  0.89447771  0.64930160  0.07708106  1  0.032694  3.9e-05  0.083842  0.157283  -4.3e-05  1.055525  0.0
H  H134  1  0.60552349  0.14930218  0.07708203  1  0.032758  7.6e-05  0.083859  0.15733  -1.8e-05  1.055457  0.0
H  H135  1  0.10603177  0.35071167  0.92269658  1  0.034392  -3.1e-05  0.084149  0.157217  5.1e-05  1.055968  0.0
H  H136  1  0.29070969  0.76829939  0.71911591  1  0.024359  0.001025  0.087329  0.159646  0.00093  1.049888  0.0
H  H137  1  0.79093050  0.73176298  0.28065831  1  0.019854  0.001064  0.086942  0.159142  0.000831  1.050146  0.0
H  H138  1  0.70906709  0.23176539  0.28065999  1  0.019755  0.00106  0.086951  0.159144  0.00083  1.050196  0.0
H  H139  1  0.20929828  0.26829951  0.71911867  1  0.024363  -0.001022  0.087343  0.159672  -0.000933  1.0499  0.0
H  H140  1  0.41270704  0.82534363  0.68170873  1  0.034941  0.001004  0.08965  0.162667  0.000734  1.06186  0.0
H  H141  1  0.91288989  0.67471658  0.31807673  1  0.037946  0.00107  0.089308  0.161921  0.000792  1.06164  0.0
H  H142  1  0.58710842  0.17471828  0.31807740  1  0.037937  0.001066  0.089319  0.161965  0.000791  1.061649  0.0
H  H143  1  0.08729800  0.32533904  0.68170837  1  0.034939  -0.001  0.089582  0.162545  -0.00074  1.062004  0.0
H  H144  1  0.48307465  0.75863183  0.72908128  1  0.028823  0.002171  0.078548  0.147243  0.000902  1.076888  0.001
H  H145  1  0.98330438  0.74148342  0.27077740  1  0.025579  0.002381  0.078329  0.146776  0.00102  1.076895  0.001
H  H146  1  0.51669550  0.24147989  0.27077580  1  0.025623  0.002376  0.078316  0.146779  0.001018  1.076961  0.001
H  H147  1  0.01693103  0.25862658  0.72908280  1  0.029251  -0.002165  0.078554  0.147272  -0.000903  1.076784  -0.001
H  H148  1  0.59888126  0.95580413  0.77489685  1  0.018377  0.00018  0.081414  0.148934  -0.000123  1.070277  0.0
H  H149  1  0.09925894  0.54439198  0.22506780  1  0.020145  0.000304  0.081429  0.148973  -2.1e-05  1.070382  0.0
H  H150  1  0.40075627  0.04438430  0.22507013  1  0.020038  0.000309  0.081391  0.148933  -2e-05  1.070414  0.0
H  H151  1  0.90111351  0.45579988  0.77489439  1  0.017985  -0.000175  0.081412  0.148915  0.000124  1.070234  0.0
H  H152  1  0.59304716  0.96078319  0.86208623  1  0.043172  0.000112  0.086836  0.162706  -3e-06  1.037857  0.0
H  H153  1  0.09358314  0.53926070  0.13786118  1  -0.002657  7.7e-05  0.086579  0.162228  -5.2e-05  1.038368  0.0
H  H154  1  0.40642460  0.03925760  0.13786232  1  -0.002419  0.000142  0.086592  0.162209  -2e-06  1.038355  0.0
H  H155  1  0.90694844  0.46077838  0.86208465  1  0.043095  -4.6e-05  0.086799  0.162661  5.3e-05  1.03792  0.0
H  H156  1  0.67223713  0.87966326  0.81006188  1  0.008709  0.000791  0.079667  0.153136  0.000266  1.050842  0.0
H  H157  1  0.17270037  0.62045165  0.18980424  1  0.010044  0.000848  0.079942  0.153361  0.000304  1.050739  0.0
H  H158  1  0.32730867  0.12044503  0.18980971  1  0.010304  0.000852  0.079928  0.153333  0.000311  1.050805  0.0
H  H159  1  0.82776048  0.37965550  0.81006036  1  0.00889  -0.000783  0.079626  0.153063  -0.000263  1.05078  0.0
H  H160  1  0.34616610  0.96390029  0.96597584  1  0.019417  7e-05  0.085305  0.156867  -4e-05  1.056583  0.0
H  H161  1  0.84630726  0.53603164  0.03367765  1  0.018399  1e-05  0.084866  0.155989  -7.8e-05  1.057202  0.0
H  H162  1  0.65370904  0.03603628  0.03367779  1  0.018232  7.1e-05  0.084771  0.155875  -4.1e-05  1.057205  0.0
H  H163  1  0.15382427  0.46390092  0.96597435  1  0.019407  -7e-06  0.085286  0.156802  7.8e-05  1.056683  0.0
H  H164  1  0.43290875  0.03835378  0.93369906  1  0.032245  7.1e-05  0.084566  0.154764  -4.8e-05  1.042582  0.0
H  H165  1  0.93303849  0.46161807  0.06598438  1  0.031015  4.1e-05  0.084233  0.154244  -6.5e-05  1.043047  0.0
H  H166  1  0.56696307  0.96162457  0.06598674  1  0.031087  8e-05  0.084251  0.154232  -4.6e-05  1.042995  0.0
H  H167  1  0.06708641  0.53835684  0.93369939  1  0.032169  -3.2e-05  0.084571  0.154748  6.8e-05  1.042533  0.0
H  H168  1  0.27809813  0.05862430  0.98714504  1  0.013085  0.000923  0.088112  0.164057  0.000456  1.022856  0.0
H  H169  1  0.77816275  0.44130676  0.01258774  1  0.047189  0.000841  0.087967  0.163742  0.000448  1.022738  0.0
H  H170  1  0.72184111  0.94131057  0.01258907  1  0.047205  0.000924  0.087992  0.163745  0.000464  1.022734  0.0
H  H171  1  0.22190358  0.55862696  0.98714618  1  0.013089  -0.000837  0.088104  0.164014  -0.000441  1.022746  0.0
H  H172  1  0.93219617  0.94833520  0.86567343  1  0.009819  0.000737  0.07854  0.143789  0.000448  1.083733  0.0
H  H173  1  0.43243273  0.55163008  0.13420343  1  0.012293  0.000735  0.078679  0.143875  0.000442  1.083428  0.0
H  H174  1  0.06757950  0.05163061  0.13421123  1  0.012186  0.000748  0.078681  0.143925  0.000454  1.083406  0.0
H  H175  1  0.56779605  0.44834203  0.86566864  1  0.009682  -0.000722  0.078506  0.143754  -0.000435  1.083775  0.0
H  H176  1  0.03669409  0.91598696  0.92734683  1  0.027887  0.000377  0.086691  0.16021  0.000108  1.026775  0.0
H  H177  1  0.53664415  0.58400303  0.07245214  1  0.027087  0.000378  0.086652  0.160185  0.000124  1.027278  0.0
H  H178  1  0.96336782  0.08400057  0.07245627  1  0.027527  0.000394  0.086688  0.160167  0.000118  1.027198  0.0
H  H179  1  0.46330393  0.41599308  0.92734263  1  0.028119  -0.000353  0.086645  0.160135  -0.00011  1.026905  0.0
H  H180  1  0.96096919  0.00972362  0.94361985  1  0.028768  0.000599  0.087001  0.166327  0.000211  1.030934  0.0
H  H181  1  0.46106987  0.49022771  0.05624895  1  0.026407  0.000592  0.086729  0.166116  0.000265  1.031266  0.0
H  H182  1  0.03894131  0.99022674  0.05625400  1  0.026457  0.000622  0.086772  0.166091  0.000223  1.031212  0.0
H  H183  1  0.53902630  0.50973124  0.94361706  1  0.028676  -0.000566  0.087038  0.166299  -0.000255  1.030966  0.0
H  H184  1  0.09753518  0.10618487  0.81449599  1  0.013429  0.001092  0.079951  0.148994  0.0008  1.080542  0.0
H  H185  1  0.59810736  0.39403732  0.18548228  1  0.012711  0.001227  0.079437  0.147948  0.000896  1.081747  0.0
H  H186  1  0.90188355  0.89403789  0.18548539  1  0.012713  0.001232  0.079399  0.147894  0.000898  1.08171  0.0
H  H187  1  0.40245627  0.60618945  0.81449490  1  0.013048  -0.001091  0.079926  0.148945  -0.000801  1.080592  0.0
H  H188  1  0.11853473  0.13950574  0.90091798  1  0.038645  0.000558  0.086059  0.160594  0.000135  1.027638  0.0
H  H189  1  0.61869484  0.36057228  0.09907306  1  0.039109  0.000705  0.085782  0.16031  0.000236  1.027882  0.0
H  H190  1  0.88130173  0.86056940  0.09907513  1  0.039127  0.000715  0.085771  0.16032  0.00024  1.027852  0.0
H  H191  1  0.38145327  0.63951144  0.90091855  1  0.038663  -0.000547  0.086121  0.160688  -0.000132  1.027518  0.0
H  H192  1  0.27572802  0.12620397  0.84839473  1  0.035234  4.3e-05  0.085014  0.158108  -0.000208  1.033384  0.0
H  H193  1  0.77610683  0.37394514  0.15146341  1  0.034066  9.1e-05  0.084658  0.157706  -0.000216  1.033418  0.0
H  H194  1  0.72388631  0.87394724  0.15146445  1  0.033991  9.3e-05  0.084675  0.157763  -0.000216  1.033432  0.0
H  H195  1  0.22425457  0.62620721  0.84839256  1  0.034972  -4.1e-05  0.084984  0.158039  0.000208  1.033465  0.0
C  C196  1  0.97731018  0.06116119  0.66061930  1  0.462577  0.01963  0.056406  0.094821  0.015844  3.944168  0.013
C  C197  1  0.47649243  0.43907126  0.33973792  1  0.464594  0.018962  0.056554  0.093898  0.01515  3.942088  0.011
C  C198  1  0.02351316  0.93906455  0.33973911  1  0.464952  0.018942  0.056508  0.093743  0.015125  3.942314  0.011
C  C199  1  0.52268979  0.56116592  0.66062091  1  0.463154  -0.019632  0.05637  0.094778  -0.015892  3.944361  -0.013
C  C200  1  0.88842719  0.12466373  0.66067154  1  -0.029068  -0.011245  -0.075626  -0.168396  -0.009226  3.931002  -0.008
C  C201  1  0.38752184  0.37554058  0.33968015  1  -0.047154  0.005689  -0.074531  -0.166811  0.004275  3.926381  0.002
C  C202  1  0.11247461  0.87553511  0.33968246  1  -0.048639  0.005852  -0.07455  -0.166885  0.004388  3.926703  0.002
C  C203  1  0.61155429  0.62466799  0.66066912  1  -0.030152  0.011407  -0.075663  -0.168295  0.009318  3.930874  0.008
C  C204  1  0.78773242  0.14826080  0.71284827  1  0.053083  0.020808  0.013427  0.097708  0.016465  3.977825  0.015
C  C205  1  0.28758968  0.35177567  0.28727400  1  0.058001  0.025267  0.014339  0.099195  0.020328  3.976991  0.014
C  C206  1  0.21241568  0.85176631  0.28727463  1  0.059279  0.025422  0.014427  0.099332  0.020458  3.977008  0.014
C  C207  1  0.71226335  0.64826689  0.71284706  1  0.053798  -0.020672  0.013414  0.097676  -0.016391  3.977741  -0.014
C  C208  1  0.77732747  0.10134783  0.76056185  1  -0.038308  -0.008436  -0.074519  -0.161077  -0.007309  3.929528  -0.006
C  C209  1  0.27776087  0.39839503  0.23936573  1  -0.031659  0.007616  -0.073576  -0.160077  0.005623  3.928504  0.004
C  C210  1  0.22224265  0.89838854  0.23936536  1  -0.031486  0.007677  -0.073554  -0.160023  0.005672  3.928314  0.004
C  C211  1  0.72266573  0.60134648  0.76055649  1  -0.038999  0.008501  -0.074391  -0.160957  0.007346  3.929299  0.006
C  C212  1  0.86903296  0.03841696  0.75658032  1  0.487578  0.019825  0.054584  0.089908  0.017004  3.96951  0.013
C  C213  1  0.36940586  0.46137695  0.24341007  1  0.488282  0.019917  0.055274  0.090168  0.016941  3.969613  0.012
C  C214  1  0.13058910  0.96137036  0.24341170  1  0.48827  0.020009  0.055334  0.090123  0.017015  3.969676  0.012
C  C215  1  0.63095775  0.53841551  0.75657355  1  0.48812  -0.01974  0.054594  0.089849  -0.016976  3.969467  -0.013
C  C216  1  0.69957330  0.21848958  0.71823669  1  -0.049778  -0.027827  0.011944  0.092181  -0.022154  3.97669  -0.018
C  C217  1  0.19941809  0.28145636  0.28180556  1  -0.077666  0.031461  0.012809  0.093134  0.025071  3.975021  0.018
C  C218  1  0.30057370  0.78145396  0.28180533  1  -0.077641  0.031876  0.012667  0.09292  0.025407  3.975638  0.018
C  C219  1  0.80041726  0.71848604  0.71823190  1  -0.049296  0.028253  0.011942  0.092076  0.022449  3.976607  0.019
C  C220  1  0.73139230  0.27457461  0.68038143  1  -0.030206  0.007422  -0.071019  -0.157408  0.006268  3.933878  0.006
C  C221  1  0.23142680  0.22541141  0.31963528  1  -0.028933  0.005252  -0.07019  -0.156892  0.003885  3.931406  0.002
C  C222  1  0.26857346  0.72540326  0.31962732  1  -0.028894  0.005437  -0.070064  -0.156717  0.004036  3.931312  0.002
C  C223  1  0.76860858  0.77457389  0.68037128  1  -0.030585  -0.007248  -0.071011  -0.15728  -0.006146  3.933819  -0.006
C  C224  1  0.64412720  0.33946825  0.68657513  1  0.458503  -0.024645  0.055525  0.091255  -0.020629  3.95884  -0.016
C  C225  1  0.14411722  0.16049135  0.31341394  1  0.460428  0.024405  0.056668  0.092725  0.020269  3.958146  0.015
C  C226  1  0.35588055  0.66048500  0.31340719  1  0.460836  0.024405  0.056639  0.092735  0.020278  3.958039  0.015
C  C227  1  0.85587837  0.83946706  0.68656972  1  0.459041  0.024672  0.055563  0.091177  0.020615  3.958873  0.016
C  C228  1  0.49874092  0.30044030  0.76622892  1  0.474362  -0.023652  0.056838  0.095008  -0.019673  3.954356  -0.015
C  C229  1  0.99878492  0.19949394  0.23375478  1  0.480508  0.023761  0.057731  0.096036  0.019633  3.953041  0.014
C  C230  1  0.50121710  0.69949521  0.23375049  1  0.480613  0.024075  0.05781  0.096041  0.019886  3.953227  0.014
C  C231  1  0.00125488  0.80043700  0.76622485  1  0.474138  0.023968  0.056737  0.094881  0.019882  3.954516  0.016
C  C232  1  0.58055221  0.23413467  0.76289962  1  -0.053423  0.008822  -0.076385  -0.167926  0.007324  3.952382  0.007
C  C233  1  0.08043245  0.26590156  0.23716193  1  -0.026217  0.003974  -0.075532  -0.167592  0.002826  3.950604  0.0
C  C234  1  0.41957158  0.76590559  0.23716317  1  -0.026372  0.003958  -0.075594  -0.167594  0.002812  3.950544  0.0
C  C235  1  0.91945042  0.73413297  0.76289602  1  -0.05418  -0.008845  -0.076453  -0.168058  -0.007364  3.952412  -0.007
C  C236  1  0.56564261  0.95035439  0.62027365  1  -0.74234  0.003372  -0.302783  -0.752212  0.001536  3.832342  0.002
C  C237  1  0.06599659  0.54953100  0.37982384  1  -0.747124  0.003524  -0.302847  -0.752876  0.001652  3.834495  0.002
C  C238  1  0.43400708  0.04953366  0.37982785  1  -0.74635  0.003598  -0.302918  -0.75324  0.001722  3.834642  0.002
C  C239  1  0.93435265  0.45034904  0.62027440  1  -0.742326  -0.003289  -0.30273  -0.752081  -0.001469  3.83219  -0.002
C  C240  1  0.34219837  0.04010265  0.55210913  1  -0.749128  0.004673  -0.300655  -0.756652  0.002647  3.822164  0.002
C  C241  1  0.84254565  0.45976281  0.44805991  1  -0.784644  0.004689  -0.301646  -0.758516  0.002632  3.823927  0.002
C  C242  1  0.65745795  0.95976139  0.44806091  1  -0.78436  0.004804  -0.301608  -0.758541  0.002692  3.824146  0.003
C  C243  1  0.15780248  0.54009780  0.55210908  1  -0.749231  -0.004546  -0.300773  -0.756792  -0.002579  3.82211  -0.002
C  C244  1  0.36982636  0.06981208  0.70034728  1  -0.787602  0.010909  -0.302804  -0.7643  0.009402  3.842364  0.004
C  C245  1  0.87001154  0.43019073  0.29981513  1  -0.790153  0.011187  -0.302626  -0.764379  0.009574  3.843572  0.004
C  C246  1  0.62999683  0.93019387  0.29981592  1  -0.790179  0.011196  -0.302626  -0.76433  0.009576  3.843565  0.004
C  C247  1  0.13016971  0.56980663  0.70034472  1  -0.787587  -0.010906  -0.302724  -0.764307  -0.009422  3.842245  -0.004
C  C248  1  0.00617881  0.88222278  0.52553022  1  -0.738606  0.003465  -0.300733  -0.751039  0.001767  3.839935  0.002
C  C249  1  0.50627136  0.61781935  0.47458724  1  -0.738679  0.003445  -0.300955  -0.751305  0.001753  3.840953  0.002
C  C250  1  0.99372727  0.11782436  0.47459451  1  -0.738607  0.003554  -0.300967  -0.751297  0.001833  3.840693  0.002
C  C251  1  0.49382812  0.38222035  0.52553189  1  -0.738272  -0.003275  -0.300656  -0.750789  -0.001643  3.839838  -0.001
C  C252  1  0.32285614  0.83324262  0.49500666  1  -0.739076  0.004807  -0.298972  -0.752541  0.002668  3.843338  0.003
C  C253  1  0.82293887  0.66680788  0.50518932  1  -0.737089  0.004651  -0.299542  -0.753007  0.002492  3.844169  0.002
C  C254  1  0.67705878  0.16680739  0.50519104  1  -0.737251  0.004821  -0.299523  -0.752971  0.002723  3.844183  0.003
C  C255  1  0.17715619  0.33323412  0.49500511  1  -0.738622  -0.004538  -0.298889  -0.752381  -0.002471  3.843412  -0.002
C  C256  1  0.15705254  0.75645119  0.58713640  1  -0.749777  0.004072  -0.30259  -0.753253  0.002709  3.84042  0.002
C  C257  1  0.65715360  0.74344402  0.41288967  1  -0.749508  0.004181  -0.303186  -0.753495  0.00278  3.840717  0.002
C  C258  1  0.84284139  0.24345115  0.41289447  1  -0.74977  0.00407  -0.303101  -0.753365  0.002647  3.840456  0.002
C  C259  1  0.34295582  0.25644287  0.58713672  1  -0.749621  -0.003948  -0.302654  -0.753439  -0.002582  3.840538  -0.002
C  C260  1  0.37911085  0.81630827  0.87286078  1  -0.772494  0.004302  -0.300674  -0.751446  0.002492  3.853537  0.002
C  C261  1  0.87963143  0.68374790  0.12689728  1  -0.768347  0.00435  -0.300474  -0.7514  0.002449  3.854743  0.002
C  C262  1  0.62036644  0.18374735  0.12689756  1  -0.768421  0.004361  -0.300455  -0.751409  0.002466  3.854748  0.002
C  C263  1  0.12088910  0.31631230  0.87286230  1  -0.772365  -0.004287  -0.300631  -0.751306  -0.002471  3.853356  -0.002
C  C264  1  0.39513097  0.80039374  0.72602139  1  -0.784677  0.007997  -0.303402  -0.766107  0.006936  3.847794  0.003
C  C265  1  0.89537707  0.69968191  0.27376175  1  -0.780477  0.008224  -0.303161  -0.765248  0.007067  3.847715  0.003
C  C266  1  0.60462481  0.19968134  0.27376350  1  -0.780413  0.008214  -0.303169  -0.765318  0.007062  3.847854  0.003
C  C267  1  0.10487602  0.30038974  0.72602160  1  -0.785136  -0.007993  -0.303369  -0.766017  -0.006946  3.847769  -0.003
C  C268  1  0.58251972  0.92201708  0.81385615  1  -0.75815  0.003431  -0.301644  -0.749059  0.001605  3.838957  0.002
C  C269  1  0.08296951  0.57810403  0.18604656  1  -0.715402  0.003646  -0.302333  -0.749669  0.001779  3.839963  0.002
C  C270  1  0.41703714  0.07809751  0.18604907  1  -0.715744  0.003673  -0.302305  -0.749621  0.001819  3.840031  0.002
C  C271  1  0.91747808  0.42201343  0.81385476  1  -0.757906  -0.003401  -0.301574  -0.748908  -0.001568  3.838796  -0.002
C  C272  1  0.32545278  0.01619417  0.94648713  1  -0.744728  0.005254  -0.298458  -0.751436  0.003005  3.855899  0.003
C  C273  1  0.82556719  0.48376555  0.05320995  1  -0.776377  0.005279  -0.297861  -0.75011  0.002978  3.856679  0.003
C  C274  1  0.67444225  0.98377102  0.05321256  1  -0.776186  0.005374  -0.297828  -0.74998  0.003068  3.856602  0.003
C  C275  1  0.17454444  0.51619392  0.94648539  1  -0.744783  -0.005156  -0.298438  -0.751322  -0.002917  3.855662  -0.003
C  C276  1  0.01363798  0.96650874  0.90523303  1  -0.754243  0.003527  -0.301319  -0.755678  0.001788  3.853058  0.001
C  C277  1  0.51377450  0.53348009  0.09459544  1  -0.755461  0.003605  -0.301561  -0.756292  0.00185  3.853689  0.002
C  C278  1  0.98623826  0.03348052  0.09460197  1  -0.755779  0.003648  -0.301685  -0.756313  0.001867  3.853453  0.002
C  C279  1  0.48636144  0.46651489  0.90522882  1  -0.75439  -0.003483  -0.301274  -0.755558  -0.001772  3.853095  -0.001
C  C280  1  0.16716471  0.10219671  0.85734619  1  -0.775371  0.004605  -0.301893  -0.752307  0.003098  3.865216  0.002
C  C281  1  0.66751493  0.39795858  0.14254952  1  -0.775191  0.004731  -0.301855  -0.75211  0.003228  3.866487  0.002
C  C282  1  0.83247945  0.89795679  0.14254986  1  -0.775048  0.004734  -0.301862  -0.752148  0.003232  3.866403  0.002
C  C283  1  0.33282215  0.60220351  0.85734502  1  -0.774668  -0.004602  -0.30188  -0.752284  -0.003104  3.865203  -0.002
N  N284  1  0.23836365  0.92288582  0.62979021  1  -2.090159  0.114389  -0.559765  -1.070468  0.073817  3.211513  0.03
N  N285  1  0.73876138  0.57705531  0.37046909  1  -2.095509  0.116212  -0.561127  -1.074281  0.074896  3.215469  0.031
N  N286  1  0.76124294  0.07706236  0.37047491  1  -2.095322  0.116221  -0.561209  -1.074346  0.074903  3.215168  0.031
N  N287  1  0.26163980  0.42288200  0.62979083  1  -2.090258  -0.114317  -0.55975  -1.070392  -0.073943  3.211417  -0.03
N  N288  1  0.25335666  0.93946111  0.80420931  1  -2.091131  0.110284  -0.557025  -1.071878  0.070646  3.20025  0.026
N  N289  1  0.75377368  0.56065383  0.19546655  1  -2.094506  0.111539  -0.557873  -1.075029  0.071443  3.204784  0.027
N  N290  1  0.74623115  0.06065285  0.19546619  1  -2.094439  0.111535  -0.557856  -1.075073  0.071439  3.204932  0.027
N  N291  1  0.24664076  0.43946299  0.80420601  1  -2.091193  -0.110244  -0.557041  -1.071793  -0.070784  3.20048  -0.026
N  N292  1  0.97179431  0.01896741  0.70870388  1  -1.266568  0.05498  -0.324531  -0.257179  0.032408  3.53503  0.007
N  N293  1  0.47146980  0.48098861  0.29149698  1  -1.268129  0.075146  -0.321727  -0.253469  0.048622  3.531522  0.024
N  N294  1  0.02853061  0.98098133  0.29149808  1  -1.268116  0.075285  -0.321592  -0.253173  0.048733  3.53145  0.024
N  N295  1  0.52820420  0.51896585  0.70870008  1  -1.266777  -0.054821  -0.324519  -0.257053  -0.032373  3.534991  -0.007
N  N296  1  0.52695057  0.35250248  0.72784956  1  -1.26752  -0.061535  -0.330523  -0.259367  -0.036609  3.552506  -0.01
N  N297  1  0.02711970  0.14748559  0.27211995  1  -1.268161  0.077063  -0.328554  -0.257523  0.049028  3.550548  0.022
N  N298  1  0.47287925  0.64748109  0.27211099  1  -1.268271  0.07716  -0.328526  -0.257434  0.049095  3.550399  0.023
N  N299  1  0.97304388  0.85250256  0.72784914  1  -1.267185  0.061627  -0.330546  -0.259284  0.036564  3.552545  0.01
