# generated using pymatgen
data_Zn4H44C57(NO5)4
_symmetry_space_group_name_H-M   'P 1'
_cell_length_a   17.86257052
_cell_length_b   19.13804237
_cell_length_c   19.25504233
_cell_angle_alpha   94.78798473
_cell_angle_beta   99.00035911
_cell_angle_gamma   103.77290556
_symmetry_Int_Tables_number   1
_chemical_formula_structural   Zn4H44C57(NO5)4
_chemical_formula_sum   'Zn4 H44 C57 N4 O20'
_cell_volume   6264.25060254
_cell_formula_units_Z   1
loop_
 _symmetry_equiv_pos_site_id
 _symmetry_equiv_pos_as_xyz
  1  'x, y, z'
loop_
 _atom_site_type_symbol
 _atom_site_label
 _atom_site_symmetry_multiplicity
 _atom_site_fract_x
 _atom_site_fract_y
 _atom_site_fract_z
 _atom_site_occupancy
 _atom_site_pbe_bader_charge
 _atom_site_pbe_bader_spin_density
 _atom_site_pbe_cm5_charge
 _atom_site_pbe_ddec_charge
 _atom_site_pbe_ddec_spin_density
 _atom_site_pbe_ddec_sum_bond_order
 _atom_site_pbe_magmom
Zn  Zn0  1  0.56149179  0.44889600  0.45280067  1  1.320491  0  0.682084  0.968871  0  2.387976  0
Zn  Zn1  1  0.43320647  0.43233679  0.55021658  1  1.309188  0  0.669385  0.957849  0  2.3752  0
Zn  Zn2  1  0.43774478  0.54219939  0.43250311  1  1.314754  0  0.672146  0.967134  0  2.366792  0
Zn  Zn3  1  0.56886204  0.57775569  0.57557634  1  1.317916  0  0.674012  0.970355  0  2.344959  0
H  H4  1  0.06418206  0.59043918  0.67753408  1  0.070996  0  0.105044  0.105373  0  0.990207  0
H  H5  1  0.57404356  0.92767320  0.62256883  1  0.086782  0  0.10948  0.114092  0  0.988992  0
H  H6  1  0.57683369  0.79613523  0.61570774  1  0.118401  0  0.109213  0.114626  0  0.991157  0
H  H7  1  0.41854254  0.88342066  0.42097109  1  0.104765  0  0.108355  0.110736  0  1.008871  0
H  H8  1  0.47485389  0.08222101  0.36468254  1  0.121801  0  0.115315  0.136248  0  0.984097  0
H  H9  1  0.41758427  0.75138922  0.41611020  1  0.103045  0  0.109875  0.116533  0  0.987525  0
H  H10  1  0.20393323  0.36118904  0.35793403  1  0.056882  0  0.105082  0.118955  0  1.029955  0
H  H11  1  0.92980321  0.32476487  0.36817905  1  0.091912  0  0.113322  0.133581  0  0.995066  0
H  H12  1  0.94669062  0.61497163  0.70177045  1  0.0511  0  0.100024  0.103553  0  1.003173  0
H  H13  1  0.80288102  0.60437689  0.66687398  1  0.096931  0  0.106418  0.113156  0  0.989714  0
H  H14  1  0.13872351  0.53846343  0.60070287  1  0.046298  0  0.105216  0.106338  0  1.012326  0
H  H15  1  0.56564332  0.39461117  0.10833082  1  0.090999  0  0.111698  0.117294  0  0.983721  0
H  H16  1  0.03571646  0.20405615  0.28405786  1  0.055269  0  0.107563  0.074343  0  0.955174  0
H  H17  1  0.12759136  0.24621207  0.33991780  1  0.051329  0  0.100507  0.05966  0  0.987209  0
H  H18  1  0.07110110  0.28589390  0.19271482  1  0.03136  0  0.097059  0.094094  0  0.964607  0
H  H19  1  0.16491170  0.32378735  0.24484331  1  0.033626  0  0.092528  0.085716  0  0.988173  0
H  H20  1  0.19159763  0.19888972  0.23998329  1  0.035465  0  0.083645  0.104465  0  1.018463  0
H  H21  1  0.17059183  0.22389044  0.15379950  1  0.051138  0  0.090879  0.119155  0  1.000403  0
H  H22  1  0.09777547  0.16158328  0.18641203  1  0.011248  0  0.087906  0.111991  0  1.001501  0
H  H23  1  0.46474782  0.38453438  0.71401627  1  0.640197  0  0.309014  0.356396  0  0.957196  0
H  H24  1  0.49489194  0.40701865  0.95983092  1  0.625057  0  0.297446  0.281018  0  1.072277  0
H  H25  1  0.53595728  0.68646242  0.89203361  1  0.605262  0  0.341086  0.369891  0  0.866  0
H  H26  1  0.57313547  0.40895210  0.24016945  1  0.092401  0  0.112623  0.11541  0  0.99346  0
H  H27  1  0.38843832  0.27431992  0.36355871  1  0.045405  0  0.094897  0.053755  0  1.009962  0
H  H28  1  0.35388345  0.19660775  0.29824595  1  0.020326  0  0.093862  0.052043  0  0.97362  0
H  H29  1  0.48181825  0.33325981  0.29071052  1  0.054424  0  0.091568  0.089358  0  1.012616  0
H  H30  1  0.44991460  0.25692222  0.22501347  1  0.021639  0  0.094282  0.090532  0  0.963128  0
H  H31  1  0.31342117  0.27763504  0.20409353  1  0.010384  0  0.082446  0.104943  0  1.028617  0
H  H32  1  0.38473307  0.35458396  0.19001201  1  0.033649  0  0.086255  0.117189  0  1.018013  0
H  H33  1  0.34606271  0.35508565  0.26930477  1  0.026679  0  0.082997  0.111072  0  1.003957  0
H  H34  1  0.80644107  0.43913074  0.43496953  1  0.639492  0  0.308274  0.332889  0  1.014543  0
H  H35  1  0.83120397  0.35529357  0.54088509  1  0.051736  0  0.099927  0.061184  0  0.992451  0
H  H36  1  0.83351406  0.27733805  0.48387477  1  0.05839  0  0.10141  0.066477  0  0.965325  0
H  H37  1  0.52818148  0.62594885  0.78214722  1  0.077726  0  0.105037  0.129327  0  1.010397  0
H  H38  1  0.69824911  0.35219213  0.47474124  1  0.067224  0  0.094887  0.101245  0  0.997884  0
H  H39  1  0.69977975  0.27552131  0.41717432  1  0.012239  0  0.095274  0.092863  0  0.962452  0
H  H40  1  0.70856426  0.20394313  0.52262952  1  0.025065  0  0.083358  0.105413  0  1.004287  0
H  H41  1  0.62345055  0.23721042  0.51224029  1  0.070547  0  0.083334  0.116447  0  1.04042  0
H  H42  1  0.70534105  0.28125766  0.57894916  1  0.042236  0  0.085658  0.110442  0  0.999646  0
H  H43  1  0.45918110  0.57357525  0.09306638  1  0.099403  0  0.111297  0.116704  0  0.998206  0
H  H44  1  0.46011413  0.58321227  0.22432111  1  0.085008  0  0.110854  0.117198  0  0.986163  0
H  H45  1  0.45815694  0.22522805  0.58615414  1  0.077985  0  0.111386  0.118404  0  0.978039  0
H  H46  1  0.19871064  0.50058271  0.54189343  1  0.087396  0  0.103116  0.109571  0  1.023721  0
H  H47  1  0.46880086  0.09693937  0.58819290  1  0.101566  0  0.109459  0.116073  0  1.006667  0
C  C48  1  0.50271839  0.50669511  0.69216566  1  1.529387  0  0.225402  0.616664  0  4.129383  0
C  C49  1  0.91835651  0.40137017  0.44945968  1  0.403116  0  0.072129  0.18314  0  4.044164  0
C  C50  1  0.96086931  0.36946400  0.40911072  1  0.03574  0  -0.098033  -0.22394  0  4.007167  0
C  C51  1  0.51524944  0.50081003  0.31708089  1  1.531959  0  0.227988  0.601898  0  4.169378  0
C  C52  1  0.04359002  0.39228389  0.42124860  1  0.02868  0  -0.013557  0.000406  0  4.009218  0
C  C53  1  0.08292421  0.44513915  0.48044962  1  0.028942  0  -0.003239  0.045711  0  3.974954  0
C  C54  1  0.08794673  0.35991752  0.37833621  1  0.495105  0  0.088387  0.221513  0  4.046519  0
C  C55  1  0.16898748  0.38249067  0.39172917  1  -0.006871  0  -0.113151  -0.261429  0  4.010678  0
C  C56  1  0.16577517  0.46266224  0.49602695  1  -0.106032  0  -0.097252  -0.178436  0  3.976329  0
C  C57  1  0.51689796  0.49677650  0.23981248  1  0.016168  0  -0.016184  -0.044096  0  3.968767  0
C  C58  1  0.48450701  0.54320391  0.19847410  1  -0.043244  0  -0.076343  -0.075661  0  3.973283  0
C  C59  1  0.83419669  0.57769844  0.63325223  1  -0.124772  0  -0.089123  -0.074837  0  4.05437  0
C  C60  1  0.48331299  0.53770813  0.12598589  1  0.018305  0  -0.080596  -0.147471  0  3.950994  0
C  C61  1  0.51243470  0.48358791  0.09365822  1  0.362344  0  0.094897  0.184876  0  4.06237  0
C  C62  1  0.54355886  0.43621932  0.13454964  1  -0.070164  0  -0.083253  -0.158254  0  3.96502  0
C  C63  1  0.47066429  0.30605280  0.48214342  1  1.565184  0  0.224835  0.608846  0  4.193588  0
C  C64  1  0.54760523  0.44413212  0.20746460  1  -0.008544  0  -0.075899  -0.072811  0  3.973361  0
C  C65  1  0.49349768  0.45026969  0.87554449  1  0.603795  0  0.098263  0.188803  0  4.000952  0
C  C66  1  0.48723407  0.44476662  0.80070329  1  0.529157  0  0.076865  0.185038  0  4.054674  0
C  C67  1  0.50748370  0.51951707  0.91623381  1  0.495524  0  0.075362  -0.040323  0  4.019415  0
C  C68  1  0.50199956  0.50921641  0.76893659  1  0.032727  0  -0.033845  -0.137259  0  4.036282  0
C  C69  1  0.51746598  0.57790207  0.80955346  1  0.027488  0  -0.128892  -0.281145  0  4.076209  0
C  C70  1  0.83087583  0.50507228  0.52129988  1  0.557933  0  0.101332  0.281716  0  4.001113  0
C  C71  1  0.51796340  0.58349376  0.88140060  1  0.444142  0  0.076112  0.253914  0  4.120295  0
C  C72  1  0.49748154  0.76645941  0.51549793  1  -0.019029  0  -0.014441  -0.03511  0  3.960373  0
C  C73  1  0.45233725  0.79066388  0.46054098  1  -0.035643  0  -0.078194  -0.078219  0  3.971501  0
C  C74  1  0.45264286  0.86331071  0.46306939  1  0.018824  0  -0.082618  -0.142097  0  3.954165  0
C  C75  1  0.49794519  0.68837328  0.51179722  1  1.567569  0  0.22882  0.606112  0  4.162847  0
C  C76  1  0.49726021  0.91265320  0.52161307  1  0.317307  0  0.090716  0.173947  0  4.045887  0
C  C77  1  0.54085619  0.88839876  0.57746156  1  -0.025962  0  -0.079634  -0.14298  0  3.957573  0
C  C78  1  0.54204912  0.81582857  0.57373536  1  -0.080209  0  -0.080583  -0.082527  0  3.976498  0
C  C79  1  0.46875534  0.12247007  0.53976441  1  -0.045034  0  -0.089091  -0.161958  0  3.966184  0
C  C80  1  0.46243912  0.19309346  0.53816170  1  0.006787  0  -0.078099  -0.063093  0  3.992118  0
C  C81  1  0.91055596  0.50151331  0.54404851  1  0.010604  0  -0.015474  -0.090246  0  3.902216  0
C  C82  1  0.47497130  0.08303600  0.47685164  1  0.367344  0  0.089508  0.190973  0  4.068068  0
C  C83  1  0.46430733  0.22661569  0.47582771  1  -0.049046  0  -0.023038  -0.152254  0  3.956575  0
C  C84  1  0.46790701  0.18578802  0.41229884  1  0.525247  0  0.093471  0.253634  0  4.049014  0
C  C85  1  0.47261376  0.11416982  0.41351565  1  -0.010565  0  -0.086522  -0.252472  0  3.919716  0
C  C86  1  0.29464355  0.45559885  0.46731714  1  1.514834  0  0.231037  0.620755  0  4.132286  0
C  C87  1  0.70622930  0.52976147  0.55125172  1  1.528694  0  0.226566  0.631769  0  4.134444  0
C  C88  1  0.79218075  0.53818995  0.56808944  1  0.039259  0  -0.03773  -0.168695  0  3.957645  0
C  C89  1  0.20724112  0.43323813  0.45165565  1  0.041679  0  -0.019252  0.002445  0  4.033487  0
C  C90  1  0.91282714  0.58257251  0.65266686  1  0.032058  0  -0.10994  -0.176812  0  4.050328  0
C  C91  1  0.08252218  0.25472538  0.29760907  1  0.389748  0  -0.062356  0.035884  0  3.898321  0
C  C92  1  0.95165585  0.54567838  0.60901550  1  -0.048192  0  -0.005854  0.103393  0  4.037976  0
C  C93  1  0.11673247  0.27409143  0.23198547  1  0.000136  0  -0.167614  -0.139933  0  3.983324  0
C  C94  1  0.14577698  0.21123962  0.20130859  1  -0.088728  0  -0.241215  -0.35358  0  3.986908  0
C  C95  1  0.40502948  0.24236451  0.32095653  1  0.419189  0  -0.065378  0.0451  0  3.902433  0
C  C96  1  0.43053554  0.28950863  0.26515523  1  -0.005015  0  -0.171775  -0.139687  0  3.986595  0
C  C97  1  0.36499482  0.32079862  0.23029981  1  -0.064343  0  -0.245238  -0.350165  0  3.969115  0
C  C98  1  0.80879919  0.32481264  0.48755717  1  0.335121  0  -0.064342  0.036389  0  3.859443  0
C  C99  1  0.72002587  0.30310645  0.47174938  1  0.022744  0  -0.169161  -0.136461  0  3.968349  0
C  C100  1  0.68770438  0.25360132  0.52431693  1  -0.119224  0  -0.244055  -0.344844  0  3.961725  0
C  C101  1  0.95350168  0.46123739  0.50437644  1  0.018563  0  -0.006659  -0.046367  0  3.927611  0
C  C102  1  0.03710187  0.47800802  0.52278886  1  0.014033  0  -0.0013  0.048109  0  3.947701  0
C  C103  1  0.07535717  0.52639312  0.58537263  1  -0.030183  0  -0.091849  -0.125239  0  4.026961  0
C  C104  1  0.03409428  0.55593230  0.62832518  1  -0.050587  0  -0.090751  -0.129687  0  4.024139  0
N  N105  1  0.51074264  0.47291268  0.02026816  1  -0.597671  0  -0.161341  -0.155835  0  3.369637  0
N  N106  1  0.51162852  0.52944383  0.98852248  1  -0.508106  0  -0.149305  -0.068849  0  3.288903  0
N  N107  1  0.49904521  0.98713324  0.52892421  1  -0.4799  0  -0.147763  -0.136688  0  3.266063  0
N  N108  1  0.47971109  0.01033262  0.47077560  1  -0.488938  0  -0.14431  -0.129098  0  3.282964  0
O  O109  1  0.50038313  0.50149265  0.50318171  1  -1.234171  0  -0.576703  -1.034662  0  2.562495  0
O  O110  1  0.32774712  0.44932792  0.52957626  1  -1.167482  0  -0.320295  -0.551424  0  2.285881  0
O  O111  1  0.67940433  0.57923410  0.58058302  1  -1.167168  0  -0.321332  -0.557339  0  2.300234  0
O  O112  1  0.32940754  0.47896887  0.41740762  1  -1.174215  0  -0.319118  -0.552278  0  2.279889  0
O  O113  1  0.66440472  0.47213572  0.51231936  1  -1.174466  0  -0.320674  -0.557899  0  2.399882  0
O  O114  1  0.04487493  0.30679732  0.32568460  1  -1.070416  0  -0.185006  -0.209604  0  2.534095  0
O  O115  1  0.47002560  0.37743680  0.76507901  1  -1.127666  0  -0.354128  -0.41703  0  2.269923  0
O  O116  1  0.48492538  0.38953515  0.90629391  1  -1.116784  0  -0.328325  -0.369817  0  2.308102  0
O  O117  1  0.52959320  0.64822788  0.92265050  1  -1.106626  0  -0.35303  -0.441153  0  2.267408  0
O  O118  1  0.46908687  0.21258413  0.34869062  1  -1.074832  0  -0.198092  -0.228945  0  2.519763  0
O  O119  1  0.79215713  0.48364237  0.45434966  1  -1.151258  0  -0.356885  -0.441236  0  2.344486  0
O  O120  1  0.51796111  0.34335634  0.44801530  1  -1.164752  0  -0.305013  -0.531111  0  2.354532  0
O  O121  1  0.83741432  0.37055553  0.43501633  1  -1.07814  0  -0.19866  -0.240378  0  2.556915  0
O  O122  1  0.54951248  0.67196602  0.55674111  1  -1.171512  0  -0.315772  -0.5471  0  2.333085  0
O  O123  1  0.47234548  0.44427607  0.65376504  1  -1.176606  0  -0.311452  -0.557587  0  2.34365  0
O  O124  1  0.47317996  0.53924814  0.34096571  1  -1.174831  0  -0.315375  -0.548343  0  2.333849  0
O  O125  1  0.53260077  0.56461890  0.66785559  1  -1.17213  0  -0.30884  -0.533807  0  2.308703  0
O  O126  1  0.55516218  0.46443752  0.35316160  1  -1.165426  0  -0.310722  -0.543218  0  2.348734  0
O  O127  1  0.43045660  0.33033697  0.52336586  1  -1.166512  0  -0.317212  -0.548637  0  2.319563  0
O  O128  1  0.44677670  0.64451199  0.46367455  1  -1.17758  0  -0.317311  -0.550875  0  2.329509  0
