# generated using pymatgen
data_Zr3H17C32Br5O16
_symmetry_space_group_name_H-M   'P 1'
_cell_length_a   14.90272792
_cell_length_b   14.86067109
_cell_length_c   14.87369262
_cell_angle_alpha   59.92194462
_cell_angle_beta   59.70729157
_cell_angle_gamma   59.77308855
_symmetry_Int_Tables_number   1
_chemical_formula_structural   Zr3H17C32Br5O16
_chemical_formula_sum   'Zr6 H34 C64 Br10 O32'
_cell_volume   2318.65535552
_cell_formula_units_Z   2
loop_
 _symmetry_equiv_pos_site_id
 _symmetry_equiv_pos_as_xyz
  1  'x, y, z'
loop_
 _atom_site_type_symbol
 _atom_site_label
 _atom_site_symmetry_multiplicity
 _atom_site_fract_x
 _atom_site_fract_y
 _atom_site_fract_z
 _atom_site_occupancy
 _atom_site_pbe_bader_charge
 _atom_site_pbe_bader_spin_density
 _atom_site_pbe_cm5_charge
 _atom_site_pbe_ddec_charge
 _atom_site_pbe_ddec_spin_density
 _atom_site_pbe_ddec_sum_bond_order
 _atom_site_pbe_magmom
Zr  Zr0  1  0.88113535  0.38181284  0.61558968  1  2.63271  0  1.626532  2.382728  0  2.758051  0
Zr  Zr1  1  0.11678979  0.62283049  0.37610303  1  2.631955  0  1.614893  2.37332  0  2.718096  0
Zr  Zr2  1  0.11797107  0.38526883  0.61637543  1  2.633337  0  1.627815  2.38225  0  2.753209  0
Zr  Zr3  1  0.88331133  0.61905604  0.37616933  1  2.63264  0  1.618996  2.37652  0  2.71993  0
Zr  Zr4  1  0.87874176  0.61839317  0.61855096  1  2.637527  0  1.624339  2.377655  0  2.746236  0
Zr  Zr5  1  0.12181838  0.37799610  0.38157124  1  2.635794  0  1.624825  2.37968  0  2.741289  0
H  H6  1  0.90958822  0.40783746  0.77867404  1  0.602157  0  0.326244  0.415063  0  0.874781  0
H  H7  1  0.90112453  0.78292136  0.40160148  1  0.604521  0  0.324898  0.413476  0  0.877379  0
H  H8  1  0.28091061  0.40609421  0.41041799  1  0.59386  0  0.32996  0.421918  0  0.858882  0
H  H9  1  0.91253688  0.40560338  0.40004102  1  0.603322  0  0.332017  0.425293  0  0.853229  0
H  H10  1  0.60348488  0.70092829  0.90918130  1  0.048277  0  0.080664  0.105887  0  1.063803  0
H  H11  1  0.66689402  0.59465829  0.00838560  1  0.056819  0  0.100717  0.116771  0  0.970483  0
H  H12  1  0.48268630  0.62525239  0.15923459  1  0.070697  0  0.083066  0.09475  0  1.046507  0
H  H13  1  0.41547209  0.71736019  0.05949943  1  0.053075  0  0.099958  0.117103  0  0.975522  0
H  H14  1  0.21347316  0.07904711  0.28929397  1  0.05958  0  0.092955  0.106164  0  1.004494  0
H  H15  1  0.10109473  0.16669537  0.23917823  1  0.06553  0  0.08791  0.103923  0  1.016974  0
H  H16  1  0.09329665  0.00413547  0.23411823  1  0.070875  0  0.101075  0.1185  0  0.970283  0
H  H17  1  0.20496750  0.91514607  0.28605860  1  0.049342  0  0.083133  0.101727  0  1.045513  0
H  H18  1  0.51059413  0.83501928  0.37928460  1  0.062007  0  0.08742  0.101011  0  1.025686  0
H  H19  1  0.58031843  0.93295510  0.28565888  1  0.076288  0  0.101139  0.11828  0  0.976399  0
H  H20  1  0.39490754  0.08608872  0.30050960  1  0.05168  0  0.081745  0.105766  0  1.056765  0
H  H21  1  0.32831954  0.98924290  0.40783274  1  0.04497  0  0.101461  0.11819  0  0.972485  0
H  H22  1  0.92068393  0.77043889  0.99074855  1  0.059632  0  0.099612  0.116814  0  0.975572  0
H  H23  1  0.80759407  0.72063820  0.07663173  1  0.052757  0  0.087092  0.108151  0  1.021456  0
H  H24  1  0.79971909  0.72342381  0.90927333  1  0.063248  0  0.09208  0.107107  0  1.000537  0
H  H25  1  0.91409350  0.77103783  0.82465767  1  0.076707  0  0.088539  0.104148  0  1.01261  0
H  H26  1  0.84178156  0.27926857  0.94435209  1  0.039931  0  0.093034  0.090883  0  1.030074  0
H  H27  1  0.70021420  0.29015745  0.12462000  1  0.068951  0  0.095208  0.095462  0  1.008295  0
H  H28  1  0.82752468  0.93777864  0.27083896  1  0.034075  0  0.096036  0.09642  0  1.034775  0
H  H29  1  0.69148123  0.11789986  0.28830340  1  0.067847  0  0.099019  0.098004  0  0.996173  0
H  H30  1  0.52352128  0.36857238  0.75041457  1  0.058632  0  0.088466  0.103674  0  1.019556  0
H  H31  1  0.60566386  0.27180110  0.67849417  1  0.051711  0  0.093501  0.10789  0  0.996126  0
H  H32  1  0.43385113  0.27744656  0.67742291  1  0.053915  0  0.086618  0.100955  0  1.029048  0
H  H33  1  0.35139199  0.37067468  0.75351814  1  0.065187  0  0.091763  0.108014  0  1.000236  0
H  H34  1  0.16788724  0.76433516  0.91329941  1  0.023773  0  0.093731  0.127362  0  0.993047  0
H  H35  1  0.16606419  0.71823832  0.04987965  1  0.055003  0  0.096091  0.141484  0  1.004248  0
H  H36  1  0.25437100  0.79226973  0.93731454  1  0.049368  0  0.094488  0.131881  0  0.992942  0
H  H37  1  0.24859094  0.94751708  0.77666455  1  0.036322  0  0.085672  0.120904  0  1.030816  0
H  H38  1  0.15348014  0.06063780  0.71111383  1  0.047882  0  0.093948  0.13909  0  1.005498  0
H  H39  1  0.15466021  0.92431855  0.75806345  1  0.033006  0  0.092185  0.126887  0  0.993166  0
C  C40  1  0.70304241  0.49049523  0.80609106  1  1.573803  0  0.230983  0.644948  0  4.115772  0
C  C41  1  0.98622013  0.81013153  0.49555124  1  1.586109  0  0.234169  0.651706  0  4.096744  0
C  C42  1  0.31243971  0.48900019  0.20403258  1  1.574806  0  0.232351  0.647422  0  4.107834  0
C  C43  1  0.00197062  0.19354346  0.50358527  1  1.575454  0  0.23547  0.652831  0  4.10215  0
C  C44  1  0.00232764  0.19564478  0.79851831  1  1.548392  0  0.235836  0.656442  0  4.093781  0
C  C45  1  0.69903019  0.50320135  0.49247160  1  1.589552  0  0.236327  0.654361  0  4.095164  0
C  C46  1  0.00312147  0.80001063  0.18696741  1  1.555343  0  0.24122  0.661087  0  4.092864  0
C  C47  1  0.29094204  0.51824972  0.50071784  1  1.568952  0  0.236225  0.654175  0  4.092954  0
C  C48  1  0.00457713  0.50658070  0.79597802  1  1.577786  0  0.234544  0.653137  0  4.103592  0
C  C49  1  0.29202305  0.18844347  0.51394101  1  1.568532  0  0.234806  0.649814  0  4.109811  0
C  C50  1  0.02195169  0.50393777  0.18419957  1  1.570042  0  0.235836  0.655723  0  4.093266  0
C  C51  1  0.68274285  0.78710151  0.51489295  1  1.581635  0  0.236865  0.655821  0  4.089748  0
C  C52  1  0.61792423  0.47022498  0.91832750  1  0.007442  0  -0.013497  -0.115051  0  3.926673  0
C  C53  1  0.42471225  0.46985350  0.11775607  1  -0.030615  0  -0.015781  -0.117663  0  3.928775  0
C  C54  1  0.57689825  0.53969501  0.97755100  1  -0.003512  0  -0.003871  0.069782  0  3.888358  0
C  C55  1  0.48065763  0.38238936  0.07324861  1  -0.024464  0  -0.01608  0.032166  0  3.904152  0
C  C56  1  0.48086451  0.54337668  0.06973646  1  -0.001706  0  -0.004032  0.072391  0  3.890371  0
C  C57  1  0.57009279  0.38584553  0.97266000  1  -0.044334  0  -0.013904  0.032681  0  3.901173  0
C  C58  1  0.59559193  0.62795522  0.98270334  1  0.003223  0  -0.152322  -0.194964  0  3.855474  0
C  C59  1  0.48156759  0.63938527  0.08002083  1  -0.000322  0  -0.154965  -0.199362  0  3.875252  0
C  C60  1  0.99281294  0.09618341  0.50694742  1  -0.003757  0  -0.015565  -0.11675  0  3.934412  0
C  C61  1  0.97529071  0.91523906  0.49671246  1  0.015586  0  -0.016153  -0.117781  0  3.933691  0
C  C62  1  0.05185974  0.06233927  0.41439904  1  -0.003014  0  -0.005976  0.067262  0  3.892948  0
C  C63  1  0.90278035  0.95871529  0.58513407  1  -0.030039  0  -0.016646  0.037124  0  3.9012  0
C  C64  1  0.04632700  0.97322922  0.41111954  1  0.010732  0  -0.003394  0.072817  0  3.895849  0
C  C65  1  0.91878253  0.03887382  0.59520337  1  -0.052159  0  -0.016138  0.03551  0  3.897541  0
C  C66  1  0.13264941  0.08676617  0.29766074  1  -0.022399  0  -0.155838  -0.20206  0  3.879364  0
C  C67  1  0.12757332  0.98488009  0.29450837  1  -0.012899  0  -0.151398  -0.19182  0  3.857623  0
C  C68  1  0.57176043  0.87590989  0.53242314  1  0.045633  0  -0.013428  -0.112795  0  3.916027  0
C  C69  1  0.38054387  0.07801813  0.53042424  1  0.011641  0  -0.012457  -0.112447  0  3.923278  0
C  C70  1  0.51572579  0.92486368  0.45867867  1  -0.032405  0  -0.001707  0.074143  0  3.885182  0
C  C71  1  0.43120111  0.02555527  0.61198577  1  -0.051683  0  -0.015455  0.029329  0  3.902481  0
C  C72  1  0.42079135  0.01819482  0.46168630  1  0.001858  0  -0.002924  0.071444  0  3.878604  0
C  C73  1  0.51851850  0.92341047  0.61711397  1  -0.066968  0  -0.017725  0.030105  0  3.90503  0
C  C74  1  0.51370215  0.91391732  0.36379187  1  -0.015638  0  -0.152551  -0.198511  0  3.866921  0
C  C75  1  0.40098167  0.01301444  0.37424760  1  0.003007  0  -0.151451  -0.196062  0  3.853181  0
C  C76  1  0.03370684  0.50603255  0.07709601  1  -0.017356  0  -0.015847  -0.117545  0  3.931656  0
C  C77  1  0.01532443  0.50237111  0.89289307  1  -0.005421  0  -0.015407  -0.11439  0  3.929275  0
C  C78  1  0.96507137  0.59454856  0.01787174  1  -0.027737  0  -0.00538  0.068592  0  3.899351  0
C  C79  1  0.08600991  0.41080666  0.95210751  1  -0.056311  0  -0.016017  0.034436  0  3.89967  0
C  C80  1  0.95951562  0.59452425  0.92706997  1  0.04368  0  -0.005773  0.067949  0  3.885555  0
C  C81  1  0.10298689  0.41734470  0.03375061  1  0.005367  0  -0.017381  0.03601  0  3.903917  0
C  C82  1  0.88557626  0.71173685  0.00740875  1  -0.014601  0  -0.150641  -0.19158  0  3.853815  0
C  C83  1  0.88079743  0.71238477  0.90344185  1  -0.039374  0  -0.156033  -0.202701  0  3.878809  0
C  C84  1  0.00286700  0.09257270  0.89866115  1  0.002064  0  -0.013327  -0.132748  0  3.907385  0
C  C85  1  0.92077069  0.10163899  0.00258623  1  -0.013809  0  -0.006609  0.053968  0  3.990318  0
C  C86  1  0.08117518  0.99154186  0.88830008  1  0.018106  0  -0.005484  0.093666  0  3.929921  0
C  C87  1  0.84094117  0.20419992  0.01598715  1  -0.061723  0  -0.097402  -0.131295  0  4.006529  0
C  C88  1  0.76107818  0.21044234  0.11677837  1  -0.041938  0  -0.101005  -0.091376  0  4.054413  0
C  C89  1  0.00273311  0.90103903  0.08554260  1  -0.00453  0  -0.01567  -0.145152  0  3.921712  0
C  C90  1  0.08316165  0.89428666  0.98413256  1  -0.014565  0  -0.002782  0.097943  0  3.924949  0
C  C91  1  0.91845186  0.00342053  0.09735688  1  0.000703  0  -0.004593  0.060825  0  3.981713  0
C  C92  1  0.83358788  0.01243949  0.19957796  1  -0.04274  0  -0.096374  -0.131311  0  3.980948  0
C  C93  1  0.75652961  0.11330988  0.20928066  1  -0.017735  0  -0.098804  -0.087166  0  4.051036  0
C  C94  1  0.59748639  0.51021480  0.48769195  1  0.034911  0  -0.015073  -0.117511  0  3.927044  0
C  C95  1  0.38937477  0.52548816  0.49764664  1  0.048954  0  -0.015099  -0.118036  0  3.92683  0
C  C96  1  0.53633535  0.44241831  0.57483548  1  0.015283  0  -0.001369  0.076933  0  3.87428  0
C  C97  1  0.44558732  0.60150197  0.41268239  1  -0.066552  0  -0.017153  0.029453  0  3.906994  0
C  C98  1  0.43934705  0.44683593  0.57724413  1  -0.005986  0  -0.001751  0.076725  0  3.877347  0
C  C99  1  0.55114522  0.58742615  0.40243196  1  -0.088046  0  -0.016625  0.032076  0  3.904444  0
C  C100  1  0.53468823  0.34806756  0.68326408  1  0.010058  0  -0.153965  -0.194511  0  3.853729  0
C  C101  1  0.42662852  0.35109045  0.68445438  1  -0.011813  0  -0.153346  -0.191777  0  3.852211  0
C  C102  1  0.17179883  0.78644046  0.97137830  1  -0.064383  0  -0.236166  -0.397222  0  3.952877  0
C  C103  1  0.16346654  0.98110546  0.77771611  1  -0.055195  0  -0.240663  -0.402302  0  3.966693  0
Br  Br104  1  0.44636675  0.25000647  0.15658905  1  -0.008473  0  0.058238  -0.024706  0  1.807216  0
Br  Br105  1  0.62752355  0.27081089  0.91604786  1  0.009672  0  0.067194  -0.007609  0  1.685167  0
Br  Br106  1  0.77156197  0.92329860  0.68295628  1  -0.000684  0  0.04415  -0.048586  0  1.726172  0
Br  Br107  1  0.84435977  0.05986420  0.73505578  1  -0.008647  0  0.04967  -0.013536  0  1.593522  0
Br  Br108  1  0.38339898  0.08804746  0.72002393  1  0.005871  0  0.057873  -0.017983  0  1.665302  0
Br  Br109  1  0.55322387  0.84273587  0.74905419  1  -0.010917  0  0.057188  -0.023236  0  1.82474  0
Br  Br110  1  0.15246535  0.27052425  0.93325528  1  -0.009878  0  0.047339  -0.022203  0  1.604763  0
Br  Br111  1  0.23047267  0.31208139  0.07307968  1  -0.002218  0  0.04915  -0.037023  0  1.721362  0
Br  Br112  1  0.37702522  0.73229509  0.31420693  1  -0.014173  0  0.067789  -0.018039  0  1.692266  0
Br  Br113  1  0.63419425  0.66760159  0.26434724  1  -0.018966  0  0.053256  -0.037309  0  1.657665  0
O  O114  1  0.73571424  0.42925914  0.75143662  1  -1.184715  0  -0.367022  -0.625556  0  2.408745  0
O  O115  1  0.06408867  0.77653868  0.41548594  1  -1.171525  0  -0.337051  -0.596111  0  2.244871  0
O  O116  1  0.27258211  0.57299590  0.23324020  1  -1.170794  0  -0.337518  -0.59799  0  2.21679  0
O  O117  1  0.92652442  0.23895043  0.57597191  1  -1.183669  0  -0.368998  -0.627173  0  2.422785  0
O  O118  1  0.07683862  0.23643284  0.76131961  1  -1.169505  0  -0.349441  -0.620976  0  2.283918  0
O  O119  1  0.74263710  0.57736344  0.41897084  1  -1.188737  0  -0.370112  -0.633699  0  2.420827  0
O  O120  1  0.92393595  0.76343323  0.22997845  1  -1.170582  0  -0.351111  -0.619156  0  2.266702  0
O  O121  1  0.26092344  0.43546476  0.57487286  1  -1.166227  0  -0.334094  -0.587231  0  2.236707  0
O  O122  1  0.92325493  0.58200884  0.76435020  1  -1.165093  0  -0.334134  -0.590091  0  2.215578  0
O  O123  1  0.25928264  0.22479537  0.43368269  1  -1.165094  0  -0.344302  -0.610224  0  2.280662  0
O  O124  1  0.08827022  0.42337614  0.23425171  1  -1.175151  0  -0.365413  -0.618988  0  2.403211  0
O  O125  1  0.73128328  0.74960156  0.58294904  1  -1.184161  0  -0.371247  -0.633294  0  2.415781  0
O  O126  1  0.25649664  0.24001946  0.57891811  1  -1.176639  0  -0.365275  -0.625565  0  2.426103  0
O  O127  1  0.94111396  0.58069987  0.22119475  1  -1.164866  0  -0.34175  -0.605456  0  2.258487  0
O  O128  1  0.72354978  0.75962030  0.42991071  1  -1.16011  0  -0.331663  -0.589514  0  2.216115  0
O  O129  1  0.07996685  0.43468878  0.74976087  1  -1.189442  0  -0.370899  -0.63073  0  2.426125  0
O  O130  1  0.92601549  0.23538913  0.75931895  1  -1.17178  0  -0.352913  -0.625021  0  2.301718  0
O  O131  1  0.24735382  0.59119435  0.42666250  1  -1.185995  0  -0.36846  -0.632704  0  2.407021  0
O  O132  1  0.08093434  0.75910629  0.22467146  1  -1.173991  0  -0.351815  -0.621894  0  2.250088  0
O  O133  1  0.73352287  0.42527905  0.57117637  1  -1.168891  0  -0.332876  -0.58692  0  2.226113  0
O  O134  1  0.08111059  0.22799294  0.42568428  1  -1.171859  0  -0.337996  -0.595061  0  2.225923  0
O  O135  1  0.73688284  0.56951582  0.77184607  1  -1.167348  0  -0.339819  -0.601494  0  2.274978  0
O  O136  1  0.92044506  0.75899275  0.57600039  1  -1.191183  0  -0.36791  -0.62116  0  2.404619  0
O  O137  1  0.26303746  0.42212881  0.24023207  1  -1.174443  0  -0.36407  -0.624141  0  2.417713  0
O  O138  1  0.93684456  0.43277804  0.42820127  1  -1.229906  0  -0.693502  -1.068199  0  2.361588  0
O  O139  1  0.20109920  0.43434409  0.43269584  1  -1.221372  0  -0.692328  -1.065091  0  2.360515  0
O  O140  1  0.92931124  0.70290690  0.42823171  1  -1.236016  0  -0.692421  -1.066993  0  2.36803  0
O  O141  1  0.93326882  0.43461693  0.69877898  1  -1.237126  0  -0.698697  -1.070672  0  2.387778  0
O  O142  1  0.04671321  0.55364011  0.54471680  1  -1.196733  0  -0.791125  -1.146278  0  2.137023  0
O  O143  1  0.85303442  0.54928702  0.54556900  1  -1.194929  0  -0.790246  -1.145965  0  2.130296  0
O  O144  1  0.05162495  0.54879191  0.34917415  1  -1.195001  0  -0.788783  -1.145926  0  2.129597  0
O  O145  1  0.04968126  0.35198886  0.54849476  1  -1.19654  0  -0.79333  -1.150512  0  2.133717  0
