# generated using pymatgen
data_HgH3C6(SN2)2
_symmetry_space_group_name_H-M   'P 1'
_cell_length_a   10.43798516
_cell_length_b   11.66517487
_cell_length_c   16.08280000
_cell_angle_alpha   90.00000000
_cell_angle_beta   104.39419487
_cell_angle_gamma   90.00000000
_symmetry_Int_Tables_number   1
_chemical_formula_structural   HgH3C6(SN2)2
_chemical_formula_sum   'Hg8 H24 C48 S16 N32'
_cell_volume   1896.78366081
_cell_formula_units_Z   8
loop_
 _symmetry_equiv_pos_site_id
 _symmetry_equiv_pos_as_xyz
  1  'x, y, z'
loop_
 _atom_site_type_symbol
 _atom_site_label
 _atom_site_symmetry_multiplicity
 _atom_site_fract_x
 _atom_site_fract_y
 _atom_site_fract_z
 _atom_site_occupancy
 _atom_site_hle17_bader_spin_density
 _atom_site_hle17_ddec_charge
 _atom_site_hle17_ddec_spin_density
 _atom_site_hle17_ddec_sum_bond_order
 _atom_site_hle17_magmom
 _atom_site_hse06_10hf_bader_spin_density
 _atom_site_hse06_10hf_ddec_charge
 _atom_site_hse06_10hf_ddec_spin_density
 _atom_site_hse06_10hf_ddec_sum_bond_order
 _atom_site_hse06_10hf_magmom
 _atom_site_hse06_bader_spin_density
 _atom_site_hse06_ddec_charge
 _atom_site_hse06_ddec_spin_density
 _atom_site_hse06_ddec_sum_bond_order
 _atom_site_hse06_magmom
 _atom_site_pbe_bader_charge
 _atom_site_pbe_bader_spin_density
 _atom_site_pbe_cm5_charge
 _atom_site_pbe_ddec_charge
 _atom_site_pbe_ddec_spin_density
 _atom_site_pbe_ddec_sum_bond_order
 _atom_site_pbe_magmom
Hg  Hg0  1  0.51265442  0.21735808  0.99749945  1  0  0.640474  0  2.139695  0  0  0.493005  0  2.625205  0  0  0.535171  0  2.600523  0  0.743798  0  0.529155  0.463295  0  2.64255  0
Hg  Hg1  1  0.48734562  0.71735830  0.50250161  1  0  0.640463  0  2.139694  0  0  0.492989  0  2.625203  0  0  0.535157  0  2.600519  0  0.743789  0  0.529153  0.463279  0  2.642545  0
Hg  Hg2  1  0.48734463  0.78264236  0.00250145  1  0  0.64045  0  2.139735  0  0  0.492982  0  2.625244  0  0  0.535142  0  2.600566  0  0.743785  0  0.52916  0.463268  0  2.642589  0
Hg  Hg3  1  0.51265442  0.28264214  0.49749945  1  0  0.640458  0  2.139704  0  0  0.49299  0  2.625215  0  0  0.535155  0  2.600537  0  0.743803  0  0.529159  0.463274  0  2.64256  0
Hg  Hg4  1  0.15160154  0.95947383  0.20670065  1  0  0.677344  0  2.107104  0  0  0.528062  0  2.589977  0  0  0.571558  0  2.561403  0  0.756504  0  0.540101  0.498743  0  2.608802  0
Hg  Hg5  1  0.84839949  0.45947618  0.29329933  1  0  0.67733  0  2.107131  0  0  0.528038  0  2.589995  0  0  0.571534  0  2.561426  0  0.756657  0  0.540083  0.498715  0  2.608823  0
Hg  Hg6  1  0.84839850  0.04052404  0.79329855  1  0  0.677335  0  2.107099  0  0  0.528051  0  2.589968  0  0  0.571544  0  2.561398  0  0.756655  0  0.540087  0.498727  0  2.608795  0
Hg  Hg7  1  0.15160253  0.54052597  0.70670081  1  0  0.677374  0  2.107105  0  0  0.528094  0  2.58997  0  0  0.571588  0  2.561399  0  0.756509  0  0.540112  0.498772  0  2.608798  0
H  H8  1  0.61754922  0.70066159  0.84324961  1  0  0.09135  0  0.953555  0  0  0.098223  0  1.019652  0  0  0.100242  0  1.017435  0  0.136667  0  0.118544  0.096812  0  1.021111  0
H  H9  1  0.38245280  0.20066137  0.65675115  1  0  0.091328  0  0.953619  0  0  0.098203  0  1.019711  0  0  0.100221  0  1.017495  0  0.136846  0  0.118546  0.096793  0  1.02117  0
H  H10  1  0.38245181  0.29933885  0.15675099  1  0  0.091339  0  0.953619  0  0  0.098217  0  1.019712  0  0  0.100234  0  1.017496  0  0.136671  0  0.118551  0.096806  0  1.021171  0
H  H11  1  0.61754922  0.79933821  0.34324961  1  0  0.091368  0  0.953551  0  0  0.098237  0  1.019654  0  0  0.100256  0  1.017437  0  0.136665  0  0.11854  0.096826  0  1.021113  0
H  H12  1  0.69034712  0.52061114  0.77637853  1  0  0.11836  0  0.959261  0  0  0.122806  0  1.026596  0  0  0.125717  0  1.027337  0  0.141838  0  0.106108  0.120686  0  1.026315  0
H  H13  1  0.30965490  0.02061092  0.72362223  1  0  0.118361  0  0.959245  0  0  0.122816  0  1.026574  0  0  0.125727  0  1.027316  0  0.141857  0  0.106117  0.120696  0  1.026294  0
H  H14  1  0.30965490  0.47938930  0.22362223  1  0  0.118353  0  0.959262  0  0  0.122802  0  1.026602  0  0  0.125712  0  1.027344  0  0.141845  0  0.106114  0.120682  0  1.026321  0
H  H15  1  0.69034613  0.97938866  0.27637775  1  0  0.118481  0  0.95919  0  0  0.122906  0  1.026532  0  0  0.125817  0  1.027273  0  0.141831  0  0.106157  0.120785  0  1.026252  0
H  H16  1  0.64299154  0.33099118  0.83674189  1  0  0.087908  0  0.949581  0  0  0.095215  0  1.016252  0  0  0.097426  0  1.013579  0  0.144299  0  0.112801  0.093862  0  1.017725  0
H  H17  1  0.35701047  0.83099140  0.66325762  1  0  0.087863  0  0.949656  0  0  0.095192  0  1.016303  0  0  0.097403  0  1.013632  0  0.144308  0  0.1128  0.093839  0  1.017776  0
H  H18  1  0.35700949  0.66900926  0.16325809  1  0  0.087894  0  0.949628  0  0  0.095209  0  1.016274  0  0  0.097421  0  1.013601  0  0.144288  0  0.11281  0.093857  0  1.017746  0
H  H19  1  0.64299055  0.16900904  0.33674111  1  0  0.087907  0  0.94959  0  0  0.0952  0  1.016253  0  0  0.097411  0  1.013581  0  0.144289  0  0.112802  0.093847  0  1.017728  0
H  H20  1  0.02080350  0.70877720  0.11692124  1  0  0.09341  0  0.919824  0  0  0.100841  0  0.983334  0  0  0.103026  0  0.980813  0  0.140636  0  0.121218  0.099174  0  0.98537  0
H  H21  1  0.97919753  0.20877698  0.38307999  1  0  0.093437  0  0.919829  0  0  0.100874  0  0.983337  0  0  0.103059  0  0.980816  0  0.140652  0  0.121226  0.099202  0  0.98538  0
H  H22  1  0.97919654  0.29122152  0.88307983  1  0  0.093427  0  0.919827  0  0  0.100863  0  0.983333  0  0  0.103048  0  0.980813  0  0.140654  0  0.121225  0.099191  0  0.985376  0
H  H23  1  0.02080251  0.79122260  0.61692108  1  0  0.093405  0  0.919833  0  0  0.100837  0  0.98334  0  0  0.103022  0  0.980819  0  0.140625  0  0.121211  0.099171  0  0.985377  0
H  H24  1  0.90534724  0.62097740  0.97388280  1  0  0.128925  0  0.974026  0  0  0.135917  0  1.033856  0  0  0.139086  0  1.03393  0  0.146607  0  0.111497  0.133628  0  1.034144  0
H  H25  1  0.09465378  0.12097804  0.52611718  1  0  0.128948  0  0.973999  0  0  0.135921  0  1.033848  0  0  0.139089  0  1.033921  0  0.146617  0  0.111498  0.133631  0  1.034136  0
H  H26  1  0.09465279  0.37902218  0.02611702  1  0  0.128917  0  0.974094  0  0  0.135936  0  1.033887  0  0  0.139105  0  1.03396  0  0.146609  0  0.111507  0.133645  0  1.034176  0
H  H27  1  0.90534724  0.87902240  0.47388342  1  0  0.128894  0  0.974059  0  0  0.135917  0  1.033855  0  0  0.139086  0  1.033927  0  0.146579  0  0.111496  0.133627  0  1.034144  0
H  H28  1  0.84832828  0.75669676  0.84484913  1  0  0.079804  0  0.967923  0  0  0.08525  0  1.037974  0  0  0.087074  0  1.036385  0  0.119878  0  0.113718  0.08384  0  1.039144  0
H  H29  1  0.15167275  0.25669654  0.65515209  1  0  0.079749  0  0.967921  0  0  0.085232  0  1.037948  0  0  0.087057  0  1.036356  0  0.119862  0  0.113713  0.083823  0  1.039118  0
H  H30  1  0.15167374  0.24330368  0.15515225  1  0  0.079774  0  0.967887  0  0  0.085257  0  1.037911  0  0  0.087086  0  1.036308  0  0.119864  0  0.113717  0.083847  0  1.039084  0
H  H31  1  0.84832729  0.74330390  0.34484835  1  0  0.079767  0  0.96783  0  0  0.085256  0  1.03786  0  0  0.087082  0  1.036267  0  0.11988  0  0.113707  0.083847  0  1.03903  0
C  C32  1  0.60571775  0.61435427  0.86655773  1  0  0.182236  0  3.65575  0  0  0.145299  0  3.912425  0  0  0.15602  0  3.928057  0  0.502209  0  0.072967  0.138398  0  3.901732  0
C  C33  1  0.39428130  0.11435491  0.63344193  1  0  0.182247  0  3.655869  0  0  0.145323  0  3.912523  0  0  0.15605  0  3.928153  0  0.501979  0  0.072957  0.138419  0  3.901828  0
C  C34  1  0.39428130  0.38564617  0.13344256  1  0  0.182215  0  3.655883  0  0  0.145277  0  3.912545  0  0  0.156001  0  3.928177  0  0.502186  0  0.072923  0.138374  0  3.901852  0
C  C35  1  0.60571775  0.88564553  0.36655773  1  0  0.182151  0  3.655843  0  0  0.145209  0  3.912504  0  0  0.155931  0  3.928136  0  0.502213  0  0.072928  0.138309  0  3.90181  0
C  C36  1  0.64418142  0.51619972  0.82995125  1  0  -0.139797  0  3.667935  0  0  -0.149858  0  3.918458  0  0  -0.161019  0  3.939771  0  -0.011821  0  -0.066076  -0.143145  0  3.904505  0
C  C37  1  0.35582060  0.01620036  0.67004826  1  0  -0.139776  0  3.668006  0  0  -0.149856  0  3.918546  0  0  -0.16102  0  3.939858  0  -0.011821  0  -0.066068  -0.143144  0  3.904594  0
C  C38  1  0.35581961  0.48379986  0.17004873  1  0  -0.139714  0  3.668002  0  0  -0.1498  0  3.918525  0  0  -0.160963  0  3.939837  0  -0.011828  0  -0.066051  -0.143087  0  3.904571  0
C  C39  1  0.64418043  0.98380094  0.32995047  1  0  -0.13985  0  3.668014  0  0  -0.149909  0  3.918528  0  0  -0.161071  0  3.93984  0  -0.011815  0  -0.06608  -0.143196  0  3.904575  0
C  C40  1  0.61730591  0.41138946  0.86314096  1  0  0.206407  0  3.629413  0  0  0.170523  0  3.883984  0  0  0.181543  0  3.898412  0  0.534415  0  0.080457  0.163441  0  3.873629  0
C  C41  1  0.38269413  0.91138968  0.63685885  1  0  0.206445  0  3.629511  0  0  0.170548  0  3.884074  0  0  0.181571  0  3.8985  0  0.534233  0  0.08045  0.163466  0  3.873721  0
C  C42  1  0.38269314  0.58861098  0.13685932  1  0  0.206356  0  3.629637  0  0  0.170501  0  3.884145  0  0  0.181524  0  3.89857  0  0.534213  0  0.080443  0.163418  0  3.873794  0
C  C43  1  0.61730492  0.08861076  0.36313956  1  0  0.20636  0  3.629551  0  0  0.170538  0  3.884046  0  0  0.181558  0  3.898475  0  0.53439  0  0.080456  0.163457  0  3.87369  0
C  C44  1  0.52971224  0.50353381  0.96242605  1  0  0.327129  0  3.716639  0  0  0.302032  0  3.969896  0  0  0.315956  0  3.984074  0  1.102384  0  0.263828  0.292527  0  3.960692  0
C  C45  1  0.47028385  0.00353445  0.53757189  1  0  0.327417  0  3.716441  0  0  0.302081  0  3.969908  0  0  0.316005  0  3.984087  0  1.139335  0  0.263872  0.292566  0  3.96072  0
C  C46  1  0.47028385  0.49646663  0.03757189  1  0  0.327461  0  3.716582  0  0  0.302122  0  3.970049  0  0  0.316047  0  3.984227  0  1.139337  0  0.263924  0.292632  0  3.960826  0
C  C47  1  0.52971224  0.99646684  0.46242605  1  0  0.327149  0  3.71674  0  0  0.302055  0  3.969975  0  0  0.315978  0  3.984154  0  1.102388  0  0.263869  0.292552  0  3.960784  0
C  C48  1  0.99108637  0.75986859  0.05832865  1  0  0.194918  0  3.64219  0  0  0.159906  0  3.89921  0  0  0.170394  0  3.914197  0  0.535992  0  0.076961  0.15303  0  3.889475  0
C  C49  1  0.00891268  0.25986837  0.44167226  1  0  0.19489  0  3.642335  0  0  0.159847  0  3.899354  0  0  0.170332  0  3.914343  0  0.535947  0  0.076955  0.152974  0  3.889623  0
C  C50  1  0.00891366  0.24013185  0.94167180  1  0  0.194973  0  3.64217  0  0  0.159931  0  3.899198  0  0  0.170417  0  3.914189  0  0.535942  0  0.076996  0.153059  0  3.889465  0
C  C51  1  0.99108637  0.74013207  0.55832927  1  0  0.194937  0  3.642176  0  0  0.15992  0  3.899202  0  0  0.170407  0  3.91419  0  0.535944  0  0.076988  0.153044  0  3.889467  0
C  C52  1  0.92893206  0.71193189  0.97937487  1  0  -0.143555  0  3.663873  0  0  -0.155327  0  3.913119  0  0  -0.166422  0  3.935493  0  0.01754  0  -0.068693  -0.148487  0  3.898973  0
C  C53  1  0.07106699  0.21193253  0.52062355  1  0  -0.143494  0  3.663814  0  0  -0.155243  0  3.913087  0  0  -0.166336  0  3.935464  0  0.017507  0  -0.068657  -0.148402  0  3.89894  0
C  C54  1  0.07106600  0.28806855  0.02062339  1  0  -0.14349  0  3.663781  0  0  -0.155295  0  3.913067  0  0  -0.16639  0  3.935444  0  0.017984  0  -0.068671  -0.148453  0  3.898919  0
C  C55  1  0.92893305  0.78806791  0.47937689  1  0  -0.143425  0  3.663718  0  0  -0.155216  0  3.912981  0  0  -0.166311  0  3.935355  0  0.018032  0  -0.068628  -0.148374  0  3.898833  0
C  C56  1  0.89645930  0.78584506  0.90941626  1  0  0.185998  0  3.657378  0  0  0.149685  0  3.914887  0  0  0.159502  0  3.931306  0  0.504993  0  0.070063  0.143339  0  3.903742  0
C  C57  1  0.10354074  0.28584655  0.59058480  1  0  0.18604  0  3.657264  0  0  0.149698  0  3.914758  0  0  0.159516  0  3.931179  0  0.505098  0  0.070083  0.143348  0  3.903619  0
C  C58  1  0.10354173  0.21415538  0.09058372  1  0  0.185998  0  3.657124  0  0  0.149653  0  3.914629  0  0  0.159472  0  3.931053  0  0.504587  0  0.07006  0.143304  0  3.903489  0
C  C59  1  0.89645930  0.71415475  0.40941689  1  0  0.186019  0  3.657064  0  0  0.149644  0  3.914627  0  0  0.159461  0  3.931046  0  0.504584  0  0.070053  0.143297  0  3.903483  0
C  C60  1  0.98394614  0.93761303  0.99554994  1  0  0.307346  0  3.75464  0  0  0.280838  0  4.016798  0  0  0.294482  0  4.030944  0  1.104663  0  0.24851  0.271388  0  4.008577  0
C  C61  1  0.01605290  0.43761281  0.50445097  1  0  0.307393  0  3.754776  0  0  0.280752  0  4.017022  0  0  0.294396  0  4.031173  0  1.143597  0  0.248497  0.271304  0  4.008802  0
C  C62  1  0.01605290  0.06238741  0.00445097  1  0  0.307398  0  3.754777  0  0  0.28077  0  4.017022  0  0  0.294416  0  4.031171  0  1.143602  0  0.248497  0.271322  0  4.0088  0
C  C63  1  0.98394713  0.56238677  0.49555010  1  0  0.307423  0  3.754708  0  0  0.280946  0  4.016808  0  0  0.294593  0  4.030948  0  1.104666  0  0.24853  0.271496  0  4.008588  0
C  C64  1  0.75945275  0.19294353  0.16086351  1  0  0.262477  0  3.92939  0  0  0.250729  0  4.235575  0  0  0.26873  0  4.2513  0  0.610828  0  0.131963  0.238324  0  4.224782  0
C  C65  1  0.24054729  0.69294375  0.33913755  1  0  0.262456  0  3.929351  0  0  0.250689  0  4.235554  0  0  0.268694  0  4.251277  0  0.610854  0  0.131934  0.238285  0  4.224762  0
C  C66  1  0.24054729  0.80705434  0.83913631  1  0  0.26245  0  3.929433  0  0  0.250706  0  4.235615  0  0  0.268714  0  4.251331  0  0.610857  0  0.131967  0.238303  0  4.224821  0
C  C67  1  0.75945275  0.30705498  0.66086476  1  0  0.262509  0  3.92943  0  0  0.250743  0  4.235624  0  0  0.268747  0  4.251344  0  0.610876  0  0.131968  0.238338  0  4.224832  0
C  C68  1  0.28637571  0.26375687  0.82813856  1  0  0.257118  0  3.934837  0  0  0.243359  0  4.240384  0  0  0.262114  0  4.255448  0  0.623845  0  0.135818  0.230487  0  4.230248  0
C  C69  1  0.71362432  0.76375709  0.67186250  1  0  0.25715  0  3.934797  0  0  0.243381  0  4.240358  0  0  0.26214  0  4.255416  0  0.623805  0  0.135812  0.23051  0  4.230221  0
C  C70  1  0.71362334  0.73624271  0.17186234  1  0  0.25717  0  3.934826  0  0  0.243412  0  4.240378  0  0  0.262169  0  4.255439  0  0.623922  0  0.135831  0.23054  0  4.230242  0
C  C71  1  0.28637571  0.23624335  0.32813856  1  0  0.257129  0  3.93488  0  0  0.243362  0  4.240436  0  0  0.26212  0  4.255499  0  0.623857  0  0.135826  0.230489  0  4.230299  0
C  C72  1  0.40563802  0.02927003  0.14328216  1  0  0.261514  0  3.949744  0  0  0.240902  0  4.261822  0  0  0.260306  0  4.277386  0  0.646831  0  0.138442  0.22771  0  4.250889  0
C  C73  1  0.59436202  0.52926939  0.35671704  1  0  0.261463  0  3.949659  0  0  0.240852  0  4.261741  0  0  0.260257  0  4.2773  0  0.646889  0  0.138408  0.22766  0  4.250808  0
C  C74  1  0.59436301  0.97073041  0.85671782  1  0  0.261417  0  3.949748  0  0  0.240799  0  4.261838  0  0  0.260203  0  4.2774  0  0.646799  0  0.138395  0.227608  0  4.250905  0
C  C75  1  0.40563802  0.47073019  0.64328216  1  0  0.261477  0  3.949832  0  0  0.240863  0  4.261914  0  0  0.260268  0  4.277474  0  0.646846  0  0.138427  0.227671  0  4.25098  0
C  C76  1  0.09715420  0.97101931  0.38766107  1  0  0.229848  0  3.944231  0  0  0.226616  0  4.245252  0  0  0.241555  0  4.262268  0  0.658793  0  0.130808  0.216428  0  4.233716  0
C  C77  1  0.90284683  0.47101909  0.11233891  1  0  0.229859  0  3.944148  0  0  0.226619  0  4.245174  0  0  0.241558  0  4.26219  0  0.658793  0  0.130794  0.216431  0  4.233638  0
C  C78  1  0.90284683  0.02898113  0.61233767  1  0  0.229847  0  3.944125  0  0  0.226638  0  4.245127  0  0  0.241578  0  4.26214  0  0.658857  0  0.130796  0.21645  0  4.233592  0
C  C79  1  0.09715420  0.52898050  0.88766107  1  0  0.229866  0  3.944163  0  0  0.22663  0  4.245192  0  0  0.241569  0  4.262208  0  0.658784  0  0.13079  0.216441  0  4.233656  0
S  S80  1  0.74330786  0.15424887  0.05958683  1  0  -0.217707  0  2.321491  0  0  -0.190059  0  2.682031  0  0  -0.207755  0  2.680322  0  0.122941  0  -0.113902  -0.177457  0  2.684218  0
S  S81  1  0.25669218  0.65424823  0.44041486  1  0  -0.21768  0  2.321481  0  0  -0.190038  0  2.682007  0  0  -0.207737  0  2.680305  0  0.12288  0  -0.113898  -0.17744  0  2.684203  0
S  S82  1  0.25669119  0.84575072  0.94041346  1  0  -0.217702  0  2.321475  0  0  -0.190053  0  2.682011  0  0  -0.207754  0  2.6803  0  0.122932  0  -0.1139  -0.177453  0  2.6842  0
S  S83  1  0.74330885  0.34574964  0.55958699  1  0  -0.217664  0  2.321447  0  0  -0.190031  0  2.68199  0  0  -0.207732  0  2.680287  0  0.12296  0  -0.113879  -0.177427  0  2.684172  0
S  S84  1  0.31000899  0.14872045  0.89040157  1  0  -0.223607  0  2.291213  0  0  -0.190846  0  2.644106  0  0  -0.208082  0  2.64104  0  0.115237  0  -0.106382  -0.179102  0  2.647026  0
S  S85  1  0.68999105  0.64871981  0.60959949  1  0  -0.22361  0  2.291227  0  0  -0.190843  0  2.644099  0  0  -0.208083  0  2.641032  0  0.115244  0  -0.106372  -0.179101  0  2.647021  0
S  S86  1  0.68999105  0.85127914  0.10959949  1  0  -0.223617  0  2.291278  0  0  -0.190849  0  2.644155  0  0  -0.208089  0  2.64109  0  0.115197  0  -0.106366  -0.179105  0  2.647076  0
S  S87  1  0.31000899  0.35128063  0.39040157  1  0  -0.223599  0  2.291193  0  0  -0.190843  0  2.64408  0  0  -0.208082  0  2.641018  0  0.115217  0  -0.106387  -0.179098  0  2.647002  0
S  S88  1  0.36500132  0.90360840  0.17640612  1  0  -0.217359  0  2.374098  0  0  -0.179284  0  2.74408  0  0  -0.198173  0  2.73864  0  0.129531  0  -0.089689  -0.165918  0  2.746939  0
S  S89  1  0.63499971  0.40360818  0.32359386  1  0  -0.217322  0  2.374043  0  0  -0.179244  0  2.744012  0  0  -0.198135  0  2.738578  0  0.129514  0  -0.089679  -0.165878  0  2.746872  0
S  S90  1  0.63499971  0.09639118  0.82359386  1  0  -0.217358  0  2.374136  0  0  -0.179275  0  2.74411  0  0  -0.198167  0  2.738673  0  0.129578  0  -0.089696  -0.16591  0  2.74697  0
S  S91  1  0.36500231  0.59639054  0.67640628  1  0  -0.217351  0  2.374143  0  0  -0.17928  0  2.744123  0  0  -0.198172  0  2.738689  0  0.129551  0  -0.089687  -0.165914  0  2.746983  0
S  S92  1  0.98858101  0.96245450  0.29268766  1  0  -0.205528  0  2.274022  0  0  -0.168933  0  2.616882  0  0  -0.186091  0  2.612456  0  0.088023  0  -0.092637  -0.156827  0  2.619639  0
S  S93  1  0.01142001  0.46245428  0.20731232  1  0  -0.205531  0  2.274019  0  0  -0.168937  0  2.61688  0  0  -0.186095  0  2.612456  0  0.087861  0  -0.092645  -0.156831  0  2.61964  0
S  S94  1  0.01142100  0.03754594  0.70731248  1  0  -0.205552  0  2.27394  0  0  -0.168954  0  2.616797  0  0  -0.186114  0  2.612372  0  0.087852  0  -0.092651  -0.156848  0  2.619557  0
S  S95  1  0.98858101  0.53754531  0.79268828  1  0  -0.205536  0  2.274033  0  0  -0.168945  0  2.616893  0  0  -0.186102  0  2.612468  0  0.088035  0  -0.092634  -0.156838  0  2.619651  0
N  N96  1  0.55007460  0.60794888  0.93305033  1  0  -0.323065  0  3.156602  0  0  -0.254241  0  3.415815  0  0  -0.275357  0  3.43299  0  -1.18634  0  -0.290326  -0.23975  0  3.403833  0
N  N97  1  0.44992247  0.10794952  0.56694838  1  0  -0.323175  0  3.156574  0  0  -0.254293  0  3.41584  0  0  -0.275413  0  3.433017  0  -1.186332  0  -0.290344  -0.239788  0  3.403854  0
N  N98  1  0.44992247  0.39205156  0.06694838  1  0  -0.323204  0  3.15672  0  0  -0.254312  0  3.415995  0  0  -0.275431  0  3.433171  0  -1.18631  0  -0.290362  -0.239822  0  3.404007  0
N  N99  1  0.55007559  0.89205178  0.43304987  1  0  -0.323082  0  3.156748  0  0  -0.254236  0  3.415931  0  0  -0.275351  0  3.433104  0  -1.186325  0  -0.290354  -0.239744  0  3.403949  0
N  N100  1  0.55875088  0.40539212  0.92823607  1  0  -0.338386  0  3.182018  0  0  -0.275758  0  3.444101  0  0  -0.296879  0  3.461888  0  -1.185206  0  -0.289732  -0.261231  0  3.431956  0
N  N101  1  0.44124718  0.90539234  0.57176156  1  0  -0.338429  0  3.181912  0  0  -0.275742  0  3.444056  0  0  -0.296862  0  3.461845  0  -1.185001  0  -0.289715  -0.261209  0  3.431912  0
N  N102  1  0.44124619  0.59460832  0.07176202  1  0  -0.338429  0  3.18209  0  0  -0.275744  0  3.44421  0  0  -0.296864  0  3.461998  0  -1.184999  0  -0.289736  -0.261218  0  3.432058  0
N  N103  1  0.55875088  0.09460810  0.42823545  1  0  -0.338342  0  3.182021  0  0  -0.275738  0  3.444062  0  0  -0.296858  0  3.461852  0  -1.185194  0  -0.289737  -0.261206  0  3.431912  0
N  N104  1  0.01853156  0.87219181  0.06606161  1  0  -0.356049  0  3.200863  0  0  -0.295783  0  3.469939  0  0  -0.316285  0  3.487261  0  -1.224395  0  -0.300251  -0.282351  0  3.458455  0
N  N105  1  0.98146947  0.37219159  0.43393961  1  0  -0.356156  0  3.201055  0  0  -0.29583  0  3.47015  0  0  -0.316331  0  3.487474  0  -1.224363  0  -0.300275  -0.282394  0  3.458657  0
N  N106  1  0.98146947  0.12780777  0.93393961  1  0  -0.356207  0  3.200905  0  0  -0.295871  0  3.469994  0  0  -0.316375  0  3.487318  0  -1.224358  0  -0.300304  -0.282436  0  3.458501  0
N  N107  1  0.01853057  0.62780799  0.56606083  1  0  -0.356146  0  3.200855  0  0  -0.295887  0  3.469923  0  0  -0.31639  0  3.487245  0  -1.22438  0  -0.300288  -0.282454  0  3.458437  0
N  N108  1  0.92309743  0.89827372  0.91744786  1  0  -0.339119  0  3.162184  0  0  -0.273537  0  3.420519  0  0  -0.293959  0  3.437898  0  -1.211464  0  -0.295583  -0.259875  0  3.409277  0
N  N109  1  0.07690261  0.39827521  0.58255258  1  0  -0.339138  0  3.162307  0  0  -0.273526  0  3.420693  0  0  -0.293944  0  3.438068  0  -1.211518  0  -0.295589  -0.259864  0  3.409451  0
N  N110  1  0.07690261  0.10172501  0.08255258  1  0  -0.3391  0  3.162239  0  0  -0.273494  0  3.420627  0  0  -0.29391  0  3.437989  0  -1.211478  0  -0.295571  -0.259832  0  3.409384  0
N  N111  1  0.92309841  0.60172608  0.41744864  1  0  -0.339192  0  3.162256  0  0  -0.273602  0  3.420587  0  0  -0.294028  0  3.437977  0  -1.211479  0  -0.295608  -0.259938  0  3.409344  0
N  N112  1  0.77629000  0.21858224  0.23376682  1  0  -0.476809  0  2.685526  0  0  -0.445418  0  2.933664  0  0  -0.461286  0  2.943966  0  -1.20466  0  -0.351578  -0.434338  0  2.926352  0
N  N113  1  0.22371103  0.71858246  0.26623441  1  0  -0.476811  0  2.685503  0  0  -0.445388  0  2.93365  0  0  -0.461259  0  2.943952  0  -1.204627  0  -0.351553  -0.43431  0  2.926343  0
N  N114  1  0.22371202  0.78141563  0.76623394  1  0  -0.476785  0  2.685613  0  0  -0.445395  0  2.933738  0  0  -0.461262  0  2.944035  0  -1.204677  0  -0.351583  -0.434314  0  2.926429  0
N  N115  1  0.77628901  0.28141713  0.73376728  1  0  -0.476886  0  2.685633  0  0  -0.445459  0  2.93378  0  0  -0.461326  0  2.944077  0  -1.204724  0  -0.351608  -0.434378  0  2.926469  0
N  N116  1  0.26685507  0.34244665  0.78067157  1  0  -0.458235  0  2.744086  0  0  -0.419061  0  2.997503  0  0  -0.436729  0  3.008551  0  -1.214682  0  -0.346568  -0.406977  0  2.989975  0
N  N117  1  0.73314398  0.84244686  0.71932933  1  0  -0.458267  0  2.744035  0  0  -0.419073  0  2.997457  0  0  -0.436741  0  3.008502  0  -1.214654  0  -0.346564  -0.406989  0  2.989926  0
N  N118  1  0.73314398  0.65755294  0.21932933  1  0  -0.458281  0  2.744044  0  0  -0.419113  0  2.997467  0  0  -0.436781  0  3.008513  0  -1.21472  0  -0.346593  -0.407029  0  2.989939  0
N  N119  1  0.26685507  0.15755357  0.28067157  1  0  -0.458255  0  2.744144  0  0  -0.419071  0  2.997571  0  0  -0.436742  0  3.008618  0  -1.214674  0  -0.346575  -0.406988  0  2.990043  0
N  N120  1  0.43644120  0.11926439  0.12115591  1  0  -0.45587  0  2.791698  0  0  -0.411665  0  3.055525  0  0  -0.43007  0  3.066128  0  -1.226555  0  -0.346361  -0.398869  0  3.048095  0
N  N121  1  0.56355785  0.61926376  0.37884375  1  0  -0.455859  0  2.791668  0  0  -0.411652  0  3.055499  0  0  -0.430056  0  3.066097  0  -1.226599  0  -0.346344  -0.398856  0  3.048067  0
N  N122  1  0.56355884  0.88073605  0.87884453  1  0  -0.455763  0  2.791634  0  0  -0.411555  0  3.055466  0  0  -0.429958  0  3.066069  0  -1.226573  0  -0.346306  -0.398758  0  3.048035  0
N  N123  1  0.43644120  0.38073583  0.62115653  1  0  -0.455837  0  2.791724  0  0  -0.411628  0  3.055553  0  0  -0.430031  0  3.066152  0  -1.2266  0  -0.346351  -0.398831  0  3.048121  0
N  N124  1  0.16896004  0.97819708  0.45668211  1  0  -0.437544  0  2.645095  0  0  -0.419436  0  2.875763  0  0  -0.431793  0  2.890769  0  -1.201277  0  -0.345209  -0.410785  0  2.865749  0
N  N125  1  0.83103901  0.47819600  0.04331817  1  0  -0.437545  0  2.644992  0  0  -0.419421  0  2.875665  0  0  -0.431778  0  2.89067  0  -1.201262  0  -0.345192  -0.410771  0  2.865651  0
N  N126  1  0.83103901  0.02180336  0.54331693  1  0  -0.437507  0  2.64505  0  0  -0.41944  0  2.875709  0  0  -0.431794  0  2.890712  0  -1.201315  0  -0.345187  -0.410788  0  2.865694  0
N  N127  1  0.16896103  0.52180358  0.95668227  1  0  -0.437564  0  2.645009  0  0  -0.419451  0  2.875684  0  0  -0.431811  0  2.890689  0  -1.201287  0  -0.345205  -0.410801  0  2.86567  0
