# generated using pymatgen
data_HgH14C10(SI)2
_symmetry_space_group_name_H-M   'P 1'
_cell_length_a   4.54172259
_cell_length_b   18.17713455
_cell_length_c   18.25340000
_cell_angle_alpha   95.89618542
_cell_angle_beta   90.00000000
_cell_angle_gamma   90.00000000
_symmetry_Int_Tables_number   1
_chemical_formula_structural   HgH14C10(SI)2
_chemical_formula_sum   'Hg4 H56 C40 S8 I8'
_cell_volume   1498.94649832
_cell_formula_units_Z   4
loop_
 _symmetry_equiv_pos_site_id
 _symmetry_equiv_pos_as_xyz
  1  'x, y, z'
loop_
 _atom_site_type_symbol
 _atom_site_label
 _atom_site_symmetry_multiplicity
 _atom_site_fract_x
 _atom_site_fract_y
 _atom_site_fract_z
 _atom_site_occupancy
 _atom_site_hle17_bader_spin_density
 _atom_site_hle17_ddec_charge
 _atom_site_hle17_ddec_spin_density
 _atom_site_hle17_ddec_sum_bond_order
 _atom_site_hle17_magmom
 _atom_site_hse06_10hf_bader_spin_density
 _atom_site_hse06_10hf_ddec_charge
 _atom_site_hse06_10hf_ddec_spin_density
 _atom_site_hse06_10hf_ddec_sum_bond_order
 _atom_site_hse06_10hf_magmom
 _atom_site_hse06_bader_spin_density
 _atom_site_hse06_ddec_charge
 _atom_site_hse06_ddec_spin_density
 _atom_site_hse06_ddec_sum_bond_order
 _atom_site_hse06_magmom
 _atom_site_pbe_bader_charge
 _atom_site_pbe_bader_spin_density
 _atom_site_pbe_cm5_charge
 _atom_site_pbe_ddec_charge
 _atom_site_pbe_ddec_spin_density
 _atom_site_pbe_ddec_sum_bond_order
 _atom_site_pbe_magmom
Hg  Hg0  1  0.70499903  0.75000008  0.25000288  1  0  0.383272  0  2.348455  0  0  0.271217  0  2.839683  0  0  0.305706  0  2.822586  0  0.437945  0  0.326713  0.24836  0  2.851021  0
Hg  Hg1  1  0.29500261  0.25000206  0.74999788  1  0  0.383303  0  2.34839  0  0  0.271247  0  2.839624  0  0  0.305741  0  2.822526  0  0.437945  0  0.326731  0.24839  0  2.850964  0
Hg  Hg2  1  0.33645164  0.74999953  0.74999954  1  0  0.382305  0  2.305217  0  0  0.268428  0  2.792392  0  0  0.30376  0  2.77561  0  0.444518  0  0.325785  0.245075  0  2.803482  0
Hg  Hg3  1  0.66354999  0.24999874  0.24999973  1  0  0.382288  0  2.305228  0  0  0.268404  0  2.792414  0  0  0.303735  0  2.775633  0  0.444568  0  0.32577  0.245052  0  2.803503  0
H  H4  1  0.57663804  0.87599774  0.38736478  1  0  0.092074  0  0.980618  0  0  0.099686  0  1.057562  0  0  0.100986  0  1.057567  0  0.087168  0  0.085856  0.0987  0  1.057654  0
H  H5  1  0.57664024  0.62400243  0.11263387  1  0  0.092115  0  0.980598  0  0  0.099677  0  1.057536  0  0  0.100982  0  1.057539  0  0.087174  0  0.085839  0.098692  0  1.057627  0
H  H6  1  0.42336139  0.12399998  0.61263225  1  0  0.092029  0  0.980608  0  0  0.09962  0  1.057555  0  0  0.100927  0  1.057556  0  0.087195  0  0.085828  0.098634  0  1.057647  0
H  H7  1  0.42335699  0.37599639  0.88736820  1  0  0.092083  0  0.980575  0  0  0.099693  0  1.057511  0  0  0.101  0  1.057513  0  0.087214  0  0.085848  0.098706  0  1.057603  0
H  H8  1  0.85207758  0.82087128  0.42446549  1  0  0.106053  0  0.946477  0  0  0.120336  0  1.009859  0  0  0.122101  0  1.008676  0  0.078469  0  0.091184  0.119015  0  1.010785  0
H  H9  1  0.85206877  0.67913110  0.07553284  1  0  0.106045  0  0.946488  0  0  0.120286  0  1.009889  0  0  0.122054  0  1.008707  0  0.078413  0  0.091133  0.118966  0  1.010817  0
H  H10  1  0.14793066  0.17912865  0.57553286  1  0  0.106094  0  0.946498  0  0  0.120328  0  1.009901  0  0  0.122099  0  1.008716  0  0.0784  0  0.091163  0.119006  0  1.010826  0
H  H11  1  0.14791304  0.32087104  0.92446957  1  0  0.106073  0  0.946494  0  0  0.120326  0  1.009898  0  0  0.122097  0  1.008715  0  0.078337  0  0.091164  0.119005  0  1.010826  0
H  H12  1  0.22949002  0.87713651  0.50863898  1  0  0.093552  0  0.950854  0  0  0.107641  0  1.009118  0  0  0.110127  0  1.008361  0  0.035639  0  0.096449  0.105817  0  1.009777  0
H  H13  1  0.22949883  0.62286366  0.99135858  1  0  0.093545  0  0.950794  0  0  0.107606  0  1.009095  0  0  0.110091  0  1.008339  0  0.035568  0  0.096409  0.105785  0  1.009751  0
H  H14  1  0.77050060  0.12286342  0.49135828  1  0  0.093535  0  0.950815  0  0  0.107603  0  1.009112  0  0  0.110082  0  1.008371  0  0.035568  0  0.096412  0.105777  0  1.009774  0
H  H15  1  0.77050281  0.37713903  0.00864060  1  0  0.093589  0  0.950795  0  0  0.10767  0  1.009067  0  0  0.110149  0  1.00833  0  0.03534  0  0.096458  0.10585  0  1.009723  0
H  H16  1  0.60767032  0.01545824  0.40796973  1  0  0.091206  0  0.965866  0  0  0.10238  0  1.028656  0  0  0.105171  0  1.027853  0  0.060682  0  0.089184  0.100406  0  1.029285  0
H  H17  1  0.60767032  0.48454366  0.09203019  1  0  0.091198  0  0.965737  0  0  0.102408  0  1.028489  0  0  0.105197  0  1.027686  0  0.06076  0  0.089188  0.100411  0  1.029142  0
H  H18  1  0.39232691  0.98454113  0.59202911  1  0  0.091178  0  0.965733  0  0  0.102394  0  1.028493  0  0  0.105182  0  1.027694  0  0.0608  0  0.089181  0.100408  0  1.029134  0
H  H19  1  0.39232251  0.51545793  0.90797052  1  0  0.091182  0  0.965916  0  0  0.10238  0  1.028682  0  0  0.105169  0  1.027882  0  0.060731  0  0.089167  0.100394  0  1.029324  0
H  H20  1  0.96955283  0.99165690  0.29541407  1  0  0.126703  0  0.966981  0  0  0.142453  0  1.034848  0  0  0.144435  0  1.034115  0  0.096121  0  0.082484  0.141006  0  1.035466  0
H  H21  1  0.96955063  0.50834603  0.20458322  1  0  0.126785  0  0.966882  0  0  0.142477  0  1.034809  0  0  0.144459  0  1.034076  0  0.096314  0  0.082502  0.141031  0  1.035426  0
H  H22  1  0.03045100  0.00834579  0.70458621  1  0  0.126753  0  0.967002  0  0  0.142484  0  1.034886  0  0  0.144466  0  1.034152  0  0.096184  0  0.082501  0.141037  0  1.035504  0
H  H23  1  0.03045100  0.49165611  0.79541865  1  0  0.1268  0  0.966798  0  0  0.142474  0  1.034749  0  0  0.144457  0  1.034018  0  0.09627  0  0.082493  0.141027  0  1.035368  0
H  H24  1  0.63415586  0.94135927  0.27204148  1  0  0.126308  0  0.95692  0  0  0.143655  0  1.02077  0  0  0.145233  0  1.020641  0  0.08435  0  0.086013  0.14247  0  1.020926  0
H  H25  1  0.63415146  0.55864200  0.22795728  1  0  0.126264  0  0.956938  0  0  0.143608  0  1.020777  0  0  0.145178  0  1.020657  0  0.084264  0  0.086006  0.142426  0  1.020934  0
H  H26  1  0.36585017  0.05864121  0.72795967  1  0  0.1263  0  0.956901  0  0  0.143649  0  1.020742  0  0  0.145218  0  1.02062  0  0.084321  0  0.086038  0.142466  0  1.020899  0
H  H27  1  0.36584577  0.44135959  0.77204617  1  0  0.126272  0  0.956921  0  0  0.143622  0  1.020751  0  0  0.145202  0  1.020621  0  0.084301  0  0.086017  0.142439  0  1.020908  0
H  H28  1  0.94589000  0.92971112  0.21202032  1  0  0.127908  0  0.970076  0  0  0.144576  0  1.036345  0  0  0.146247  0  1.035987  0  0.113246  0  0.086231  0.143314  0  1.036704  0
H  H29  1  0.94588780  0.57029016  0.28797789  1  0  0.127902  0  0.970057  0  0  0.144555  0  1.03636  0  0  0.146225  0  1.036003  0  0.113303  0  0.086222  0.143293  0  1.036719  0
H  H30  1  0.05410943  0.07029213  0.78797947  1  0  0.12788  0  0.970134  0  0  0.144541  0  1.036426  0  0  0.146212  0  1.036067  0  0.113253  0  0.086209  0.143279  0  1.036783  0
H  H31  1  0.05411383  0.42971198  0.71202506  1  0  0.127942  0  0.970086  0  0  0.144611  0  1.036343  0  0  0.146284  0  1.035986  0  0.112915  0  0.086246  0.143349  0  1.036703  0
H  H32  1  0.44337803  0.60942578  0.62191550  1  0  0.092463  0  0.980412  0  0  0.099168  0  1.058896  0  0  0.100478  0  1.058925  0  0.104571  0  0.086603  0.098164  0  1.058968  0
H  H33  1  0.44338463  0.89057328  0.87808303  1  0  0.092485  0  0.980371  0  0  0.099172  0  1.058834  0  0  0.100481  0  1.058863  0  0.104528  0  0.086588  0.098172  0  1.058899  0
H  H34  1  0.55661700  0.39057028  0.37808245  1  0  0.092485  0  0.980369  0  0  0.099175  0  1.058838  0  0  0.100486  0  1.058866  0  0.104522  0  0.086605  0.098176  0  1.058906  0
H  H35  1  0.55662360  0.10942664  0.12191587  1  0  0.09247  0  0.980402  0  0  0.09917  0  1.058898  0  0  0.100482  0  1.058927  0  0.104584  0  0.086592  0.098166  0  1.058969  0
H  H36  1  0.17871633  0.57087309  0.67886061  1  0  0.109117  0  0.944342  0  0  0.124666  0  1.005934  0  0  0.126065  0  1.005361  0  0.074783  0  0.093751  0.123602  0  1.006421  0
H  H37  1  0.17872514  0.92912652  0.82113908  1  0  0.109098  0  0.944409  0  0  0.124645  0  1.005988  0  0  0.126046  0  1.005413  0  0.074766  0  0.093761  0.12358  0  1.006478  0
H  H38  1  0.82128530  0.42912684  0.32114322  1  0  0.109122  0  0.94432  0  0  0.124662  0  1.005917  0  0  0.126059  0  1.005339  0  0.07482  0  0.093743  0.123598  0  1.006406  0
H  H39  1  0.82128310  0.07087230  0.17885970  1  0  0.109129  0  0.944344  0  0  0.124674  0  1.005939  0  0  0.126074  0  1.005362  0  0.074619  0  0.093747  0.123609  0  1.006429  0
H  H40  1  0.77765868  0.48991726  0.62291287  1  0  0.092736  0  0.950684  0  0  0.10501  0  1.011145  0  0  0.107741  0  1.01002  0  0.075838  0  0.094775  0.103038  0  1.012032  0
H  H41  1  0.77766308  0.01008353  0.87708858  1  0  0.092785  0  0.950551  0  0  0.105049  0  1.011047  0  0  0.107781  0  1.00992  0  0.075902  0  0.094794  0.103074  0  1.011938  0
H  H42  1  0.22232974  0.51007769  0.37708990  1  0  0.092732  0  0.95056  0  0  0.105007  0  1.011047  0  0  0.107737  0  1.009923  0  0.075967  0  0.094789  0.103035  0  1.011932  0
H  H43  1  0.22233855  0.98991529  0.12290911  1  0  0.092827  0  0.950541  0  0  0.105089  0  1.011027  0  0  0.10782  0  1.009901  0  0.075977  0  0.094808  0.103114  0  1.011919  0
H  H44  1  0.40360017  0.58928029  0.48523976  1  0  0.094129  0  0.960218  0  0  0.106656  0  1.019411  0  0  0.109376  0  1.018597  0  0.067397  0  0.090744  0.104673  0  1.020139  0
H  H45  1  0.40360897  0.91071711  0.01475806  1  0  0.094166  0  0.960243  0  0  0.106664  0  1.019455  0  0  0.109385  0  1.01864  0  0.067311  0  0.090744  0.104682  0  1.02018  0
H  H46  1  0.59638825  0.41071632  0.51476318  1  0  0.09416  0  0.960146  0  0  0.106637  0  1.019404  0  0  0.109359  0  1.018586  0  0.067504  0  0.090734  0.104652  0  1.020133  0
H  H47  1  0.59639926  0.08928281  0.98524029  1  0  0.094158  0  0.96022  0  0  0.106673  0  1.01941  0  0  0.109395  0  1.018594  0  0.06734  0  0.09076  0.104691  0  1.020135  0
H  H48  1  0.01574953  0.70003374  0.51278184  1  0  0.129893  0  0.956147  0  0  0.147536  0  1.019258  0  0  0.149374  0  1.018678  0  0.081468  0  0.086442  0.14614  0  1.019827  0
H  H49  1  0.01574953  0.79996587  0.98721894  1  0  0.129866  0  0.956157  0  0  0.147504  0  1.019278  0  0  0.149343  0  1.018697  0  0.081467  0  0.086438  0.14611  0  1.019844  0
H  H50  1  0.98424990  0.29996563  0.48721700  1  0  0.129874  0  0.9562  0  0  0.147515  0  1.019313  0  0  0.149354  0  1.01873  0  0.081487  0  0.086433  0.146119  0  1.019881  0
H  H51  1  0.98426531  0.20003461  0.01278165  1  0  0.129871  0  0.956133  0  0  0.147525  0  1.019249  0  0  0.149363  0  1.018665  0  0.081478  0  0.086431  0.146128  0  1.019819  0
H  H52  1  0.35590020  0.72947962  0.55769421  1  0  0.127785  0  0.950274  0  0  0.146149  0  1.01228  0  0  0.147779  0  1.011995  0  0.063564  0  0.086255  0.144943  0  1.012506  0
H  H53  1  0.35589800  0.77052000  0.94230493  1  0  0.127799  0  0.950277  0  0  0.146167  0  1.012276  0  0  0.147798  0  1.01199  0  0.063569  0  0.086275  0.14496  0  1.012502  0
H  H54  1  0.64410143  0.27051976  0.44230464  1  0  0.127732  0  0.950317  0  0  0.146125  0  1.012293  0  0  0.147756  0  1.012006  0  0.063568  0  0.086252  0.144919  0  1.012519  0
H  H55  1  0.64411023  0.22947993  0.05769506  1  0  0.127755  0  0.9503  0  0  0.146159  0  1.012265  0  0  0.147787  0  1.011979  0  0.063642  0  0.086252  0.144953  0  1.012491  0
H  H56  1  0.03004807  0.78462267  0.57317444  1  0  0.126604  0  0.979049  0  0  0.143794  0  1.045486  0  0  0.145609  0  1.044857  0  0.108449  0  0.084589  0.142405  0  1.046051  0
H  H57  1  0.03004587  0.71537694  0.92682470  1  0  0.12658  0  0.979065  0  0  0.143769  0  1.04551  0  0  0.145585  0  1.044881  0  0.108442  0  0.084596  0.14238  0  1.046075  0
H  H58  1  0.96995576  0.21537560  0.42682593  1  0  0.126537  0  0.979076  0  0  0.143725  0  1.045525  0  0  0.145543  0  1.044893  0  0.108366  0  0.084559  0.142336  0  1.046089  0
H  H59  1  0.96997118  0.28462354  0.07317590  1  0  0.12662  0  0.979034  0  0  0.143823  0  1.045456  0  0  0.145632  0  1.044832  0  0.108361  0  0.08462  0.142434  0  1.04602  0
C  C60  1  0.81130671  0.87340385  0.40136801  1  0  -0.202595  0  3.674926  0  0  -0.243913  0  3.919691  0  0  -0.242732  0  3.929961  0  -0.122902  0  -0.15446  -0.244591  0  3.912682  0
C  C61  1  0.81130010  0.62659853  0.09862758  1  0  -0.202669  0  3.674846  0  0  -0.243823  0  3.919528  0  0  -0.242659  0  3.929825  0  -0.12285  0  -0.154364  -0.244505  0  3.912525  0
C  C62  1  0.18869272  0.12659608  0.59862705  1  0  -0.202708  0  3.675127  0  0  -0.243865  0  3.919626  0  0  -0.242704  0  3.929922  0  -0.122869  0  -0.154403  -0.24454  0  3.912612  0
C  C63  1  0.18869052  0.37340306  0.90137258  1  0  -0.202701  0  3.675125  0  0  -0.243917  0  3.91969  0  0  -0.242761  0  3.929995  0  -0.123015  0  -0.154407  -0.244594  0  3.91268  0
C  C64  1  0.90865083  0.93861938  0.45203227  1  0  0.093125  0  3.774279  0  0  0.117265  0  4.00466  0  0  0.116218  0  4.030166  0  -0.064698  0  -0.02146  0.117969  0  3.987312  0
C  C65  1  0.90864422  0.56138245  0.04796545  1  0  0.093064  0  3.774195  0  0  0.117111  0  4.004659  0  0  0.116065  0  4.030167  0  -0.064663  0  -0.021585  0.117816  0  3.987312  0
C  C66  1  0.09134860  0.06138055  0.54796499  1  0  0.093072  0  3.774427  0  0  0.11725  0  4.004726  0  0  0.11621  0  4.03023  0  -0.064697  0  -0.021505  0.117954  0  3.987377  0
C  C67  1  0.09134420  0.43861914  0.95203307  1  0  0.093086  0  3.774241  0  0  0.117255  0  4.004599  0  0  0.116215  0  4.030108  0  -0.064533  0  -0.021519  0.117959  0  3.987249  0
C  C68  1  0.12729752  0.93098760  0.50489746  1  0  -0.113207  0  3.743483  0  0  -0.135023  0  3.992514  0  0  -0.13755  0  4.01435  0  -0.031352  0  -0.09516  -0.133215  0  3.977702  0
C  C69  1  0.12729311  0.56901478  0.99510032  1  0  -0.113115  0  3.743211  0  0  -0.134876  0  3.992236  0  0  -0.137408  0  4.014085  0  -0.031921  0  -0.09504  -0.13307  0  3.977425  0
C  C70  1  0.87270412  0.06901454  0.49510057  1  0  -0.113072  0  3.743134  0  0  -0.134895  0  3.992138  0  0  -0.13743  0  4.013981  0  -0.031918  0  -0.095078  -0.133087  0  3.977333  0
C  C71  1  0.87269531  0.43098901  0.00489787  1  0  -0.113217  0  3.743412  0  0  -0.135066  0  3.992466  0  0  -0.137591  0  4.014286  0  -0.031098  0  -0.095154  -0.133261  0  3.977651  0
C  C72  1  0.78192799  0.00837676  0.44774846  1  0  -0.106952  0  3.750817  0  0  -0.125464  0  3.995739  0  0  -0.128295  0  4.018444  0  0.020216  0  -0.095103  -0.123494  0  3.98035  0
C  C73  1  0.78193459  0.49162514  0.05224763  1  0  -0.106862  0  3.751049  0  0  -0.125383  0  3.995996  0  0  -0.128209  0  4.018702  0  0.019563  0  -0.095065  -0.123394  0  3.980613  0
C  C74  1  0.21805383  0.99162482  0.55224787  1  0  -0.106859  0  3.751065  0  0  -0.125449  0  3.996001  0  0  -0.128275  0  4.018706  0  0.019585  0  -0.095079  -0.123469  0  3.980614  0
C  C75  1  0.21806924  0.50837756  0.94774936  1  0  -0.106905  0  3.75086  0  0  -0.125459  0  3.995761  0  0  -0.12829  0  4.018466  0  0.020272  0  -0.095082  -0.123479  0  3.980377  0
C  C76  1  0.87534849  0.93969952  0.26964745  1  0  -0.346788  0  3.63919  0  0  -0.418119  0  3.881509  0  0  -0.419056  0  3.888735  0  -0.241686  0  -0.241809  -0.417222  0  3.876501  0
C  C77  1  0.87534849  0.56030231  0.23035082  1  0  -0.34678  0  3.639116  0  0  -0.418038  0  3.881451  0  0  -0.418968  0  3.88868  0  -0.241864  0  -0.241758  -0.417145  0  3.876447  0
C  C78  1  0.12465535  0.06030262  0.73035277  1  0  -0.346792  0  3.63923  0  0  -0.418104  0  3.881536  0  0  -0.419035  0  3.888783  0  -0.24171  0  -0.241813  -0.417211  0  3.876532  0
C  C79  1  0.12465314  0.43969872  0.76965093  1  0  -0.346874  0  3.639111  0  0  -0.418149  0  3.881498  0  0  -0.419079  0  3.888695  0  -0.241468  0  -0.241817  -0.417255  0  3.876497  0
C  C80  1  0.20946678  0.59536071  0.62685413  1  0  -0.202625  0  3.66816  0  0  -0.243756  0  3.914004  0  0  -0.242515  0  3.924434  0  -0.123998  0  -0.152917  -0.244458  0  3.906856  0
C  C81  1  0.20947559  0.90463890  0.87314391  1  0  -0.20277  0  3.668237  0  0  -0.243796  0  3.913931  0  0  -0.242553  0  3.924356  0  -0.123803  0  -0.15296  -0.244499  0  3.906785  0
C  C82  1  0.79052384  0.40463755  0.37314679  1  0  -0.202666  0  3.668199  0  0  -0.243708  0  3.913869  0  0  -0.242457  0  3.924284  0  -0.123987  0  -0.15289  -0.244414  0  3.906728  0
C  C83  1  0.79053265  0.09535992  0.12685432  1  0  -0.202667  0  3.668112  0  0  -0.243784  0  3.913946  0  0  -0.242545  0  3.924378  0  -0.123832  0  -0.152932  -0.244484  0  3.906798  0
C  C84  1  0.10136242  0.54608460  0.56176753  1  0  0.093819  0  3.772641  0  0  0.117197  0  4.003903  0  0  0.116154  0  4.029503  0  -0.032596  0  -0.020863  0.117897  0  3.986472  0
C  C85  1  0.10136903  0.95391280  0.93823358  1  0  0.093793  0  3.772559  0  0  0.117158  0  4.003823  0  0  0.116117  0  4.029422  0  -0.032619  0  -0.020874  0.117857  0  3.986395  0
C  C86  1  0.89863260  0.45391035  0.43823524  1  0  0.093694  0  3.772612  0  0  0.117117  0  4.003793  0  0  0.116073  0  4.029392  0  -0.032265  0  -0.020952  0.117819  0  3.98636  0
C  C87  1  0.89863921  0.04608602  0.06176630  1  0  0.093724  0  3.772626  0  0  0.117057  0  4.003944  0  0  0.116018  0  4.029545  0  -0.032983  0  -0.020905  0.11776  0  3.986508  0
C  C88  1  0.87688975  0.49447288  0.56909148  1  0  -0.113583  0  3.741786  0  0  -0.134173  0  3.990646  0  0  -0.136734  0  4.012318  0  -0.068783  0  -0.09526  -0.13239  0  3.975962  0
C  C89  1  0.87689636  0.00552570  0.93091303  1  0  -0.113519  0  3.741564  0  0  -0.134104  0  3.990434  0  0  -0.136665  0  4.012106  0  -0.068669  0  -0.095246  -0.132319  0  3.975749  0
C  C90  1  0.12309647  0.50552428  0.43091481  1  0  -0.113498  0  3.741844  0  0  -0.134114  0  3.990711  0  0  -0.136676  0  4.012385  0  -0.068959  0  -0.095247  -0.13233  0  3.976027  0
C  C91  1  0.12310747  0.99447146  0.06908558  1  0  -0.11355  0  3.741824  0  0  -0.134102  0  3.990671  0  0  -0.136665  0  4.012346  0  -0.068201  0  -0.095246  -0.132317  0  3.975985  0
C  C92  1  0.22354294  0.55084319  0.49190523  1  0  -0.107123  0  3.750732  0  0  -0.124047  0  3.992804  0  0  -0.126809  0  4.01556  0  -0.035659  0  -0.094749  -0.122107  0  3.977357  0
C  C93  1  0.22354954  0.94915255  0.00809351  1  0  -0.107135  0  3.750828  0  0  -0.12404  0  3.992879  0  0  -0.126808  0  4.015643  0  -0.035803  0  -0.094717  -0.122098  0  3.977431  0
C  C94  1  0.77644769  0.44915120  0.50809858  1  0  -0.107081  0  3.750287  0  0  -0.123974  0  3.992322  0  0  -0.126743  0  4.015089  0  -0.035824  0  -0.094691  -0.122031  0  3.976875  0
C  C95  1  0.77644989  0.05084627  0.99190527  1  0  -0.107139  0  3.750588  0  0  -0.124037  0  3.99267  0  0  -0.1268  0  4.015424  0  -0.035816  0  -0.094748  -0.122095  0  3.977222  0
C  C96  1  0.11549362  0.72804053  0.56282546  1  0  -0.347889  0  3.646904  0  0  -0.420835  0  3.889942  0  0  -0.421704  0  3.897372  0  -0.209079  0  -0.243002  -0.41998  0  3.884826  0
C  C97  1  0.11549362  0.77195963  0.93717428  1  0  -0.34787  0  3.646917  0  0  -0.420819  0  3.88997  0  0  -0.42169  0  3.897398  0  -0.209056  0  -0.243039  -0.419965  0  3.884853  0
C  C98  1  0.88450801  0.27195829  0.43717387  1  0  -0.347757  0  3.646976  0  0  -0.420747  0  3.890057  0  0  -0.421617  0  3.897482  0  -0.209089  0  -0.242975  -0.419892  0  3.884939  0
C  C99  1  0.88451681  0.22804085  0.06282577  1  0  -0.347913  0  3.646933  0  0  -0.420914  0  3.889933  0  0  -0.42177  0  3.897359  0  -0.209122  0  -0.243041  -0.420059  0  3.884816  0
S  S100  1  0.01578476  0.86290608  0.31429315  1  0  0.102689  0  2.683776  0  0  0.14981  0  3.073569  0  0  0.142834  0  3.073871  0  0.051319  0  0.017764  0.154362  0  3.073422  0
S  S101  1  0.01577815  0.63709630  0.18570408  1  0  0.102706  0  2.68383  0  0  0.149813  0  3.073522  0  0  0.142843  0  3.073829  0  0.051353  0  0.01775  0.154365  0  3.073378  0
S  S102  1  0.98422568  0.13709496  0.68570421  1  0  0.10277  0  2.683801  0  0  0.149852  0  3.073542  0  0  0.142886  0  3.073846  0  0.05139  0  0.017771  0.154404  0  3.073397  0
S  S103  1  0.98421687  0.36290418  0.81429597  1  0  0.102759  0  2.683838  0  0  0.149853  0  3.073601  0  0  0.142885  0  3.073912  0  0.051416  0  0.017769  0.154408  0  3.073443  0
S  S104  1  0.00484398  0.68266521  0.64163007  1  0  0.097188  0  2.689771  0  0  0.144307  0  3.081549  0  0  0.136853  0  3.082094  0  0.05618  0  0.015934  0.149247  0  3.081141  0
S  S105  1  0.00484618  0.81733441  0.85836907  1  0  0.097264  0  2.689733  0  0  0.144359  0  3.081478  0  0  0.136903  0  3.082022  0  0.056184  0  0.015961  0.149297  0  3.081074  0
S  S106  1  0.99515545  0.31733417  0.35836987  1  0  0.097238  0  2.689707  0  0  0.144334  0  3.081474  0  0  0.136879  0  3.082016  0  0.05623  0  0.015961  0.149273  0  3.08107  0
S  S107  1  0.99516206  0.18266497  0.14162977  1  0  0.097252  0  2.689699  0  0  0.144372  0  3.081494  0  0  0.136917  0  3.082036  0  0.056254  0  0.015961  0.149311  0  3.081086  0
I  I108  1  0.40943055  0.69148608  0.36425166  1  0  -0.389453  0  1.164489  0  0  -0.351499  0  1.501176  0  0  -0.36914  0  1.485569  0  -0.384926  0  -0.19448  -0.339239  0  1.512037  0
I  I109  1  0.40941294  0.80851740  0.13575609  1  0  -0.38948  0  1.164477  0  0  -0.351535  0  1.501185  0  0  -0.36918  0  1.485582  0  -0.384865  0  -0.194495  -0.339276  0  1.512047  0
I  I110  1  0.59057328  0.30851551  0.63574960  1  0  -0.389463  0  1.164491  0  0  -0.351522  0  1.501207  0  0  -0.369175  0  1.485618  0  -0.384938  0  -0.194495  -0.339263  0  1.512067  0
I  I111  1  0.59058649  0.19148805  0.86424666  1  0  -0.389476  0  1.16446  0  0  -0.351538  0  1.501167  0  0  -0.369191  0  1.485579  0  -0.384855  0  -0.194498  -0.339278  0  1.512028  0
I  I112  1  0.62096263  0.86526823  0.68847116  1  0  -0.375989  0  1.117778  0  0  -0.33537  0  1.444058  0  0  -0.353064  0  1.429662  0  -0.384616  0  -0.191277  -0.323278  0  1.45416  0
I  I113  1  0.62096263  0.63473194  0.81152968  1  0  -0.376007  0  1.117798  0  0  -0.335366  0  1.444039  0  0  -0.353062  0  1.429646  0  -0.384628  0  -0.191279  -0.323275  0  1.454141  0
I  I114  1  0.37903460  0.13473170  0.31152774  1  0  -0.376007  0  1.117829  0  0  -0.335366  0  1.444097  0  0  -0.35306  0  1.429702  0  -0.384623  0  -0.19127  -0.323276  0  1.454201  0
I  I115  1  0.37903680  0.36526688  0.18847184  1  0  -0.376001  0  1.117805  0  0  -0.335369  0  1.444052  0  0  -0.353066  0  1.429652  0  -0.384688  0  -0.191268  -0.323277  0  1.454151  0
