# generated using pymatgen
data_CdH22C30(NO2)3
_symmetry_space_group_name_H-M   'P 1'
_cell_length_a   10.32408956
_cell_length_b   10.25398464
_cell_length_c   14.27929470
_cell_angle_alpha   81.57710504
_cell_angle_beta   74.17192298
_cell_angle_gamma   72.61307363
_symmetry_Int_Tables_number   1
_chemical_formula_structural   CdH22C30(NO2)3
_chemical_formula_sum   'Cd2 H44 C60 N6 O12'
_cell_volume   1384.40436841
_cell_formula_units_Z   2
loop_
 _symmetry_equiv_pos_site_id
 _symmetry_equiv_pos_as_xyz
  1  'x, y, z'
loop_
 _atom_site_type_symbol
 _atom_site_label
 _atom_site_symmetry_multiplicity
 _atom_site_fract_x
 _atom_site_fract_y
 _atom_site_fract_z
 _atom_site_occupancy
 _atom_site_hle17_bader_spin_density
 _atom_site_hle17_ddec_charge
 _atom_site_hle17_ddec_spin_density
 _atom_site_hle17_ddec_sum_bond_order
 _atom_site_hle17_magmom
 _atom_site_hse06_10hf_bader_spin_density
 _atom_site_hse06_10hf_ddec_charge
 _atom_site_hse06_10hf_ddec_spin_density
 _atom_site_hse06_10hf_ddec_sum_bond_order
 _atom_site_hse06_10hf_magmom
 _atom_site_hse06_bader_spin_density
 _atom_site_hse06_ddec_charge
 _atom_site_hse06_ddec_spin_density
 _atom_site_hse06_ddec_sum_bond_order
 _atom_site_hse06_magmom
 _atom_site_pbe_bader_spin_density
 _atom_site_pbe_cm5_charge
 _atom_site_pbe_ddec_charge
 _atom_site_pbe_ddec_spin_density
 _atom_site_pbe_ddec_sum_bond_order
 _atom_site_pbe_magmom
Cd  Cd0  1  0.40648602  0.90904137  0.43358360  1  0  1.116565  0  1.714841  0  0  0.922139  0  2.169549  0  0  0.98066  0  2.116088  0  0  0.778378  0.877337  0  2.209141  0
Cd  Cd1  1  0.59350857  0.09096215  0.56642028  1  0  1.116559  0  1.714903  0  0  0.922153  0  2.169614  0  0  0.980669  0  2.116156  0  0  0.778391  0.877356  0  2.209204  0
H  H2  1  0.00230989  0.72808273  0.95891456  1  0  0.339985  0  0.961647  0  0  0.301082  0  1.052485  0  0  0.314599  0  1.039983  0  0  0.282557  0.291659  0  1.061153  0
H  H3  1  0.99766305  0.27191553  0.04109199  1  0  0.340022  0  0.961631  0  0  0.301161  0  1.052388  0  0  0.314684  0  1.039877  0  0  0.282612  0.291733  0  1.061065  0
H  H4  1  0.27611700  0.23711084  0.39675696  1  0  0.079364  0  0.945825  0  0  0.088646  0  1.009788  0  0  0.090298  0  1.009053  0  0  0.112958  0.087329  0  1.010522  0
H  H5  1  0.72389338  0.76290096  0.60324225  1  0  0.079511  0  0.9458  0  0  0.088741  0  1.009774  0  0  0.09039  0  1.009042  0  0  0.113013  0.087424  0  1.010509  0
H  H6  1  0.24856358  0.41481878  0.25814561  1  0  0.100883  0  0.945817  0  0  0.114089  0  1.003149  0  0  0.116531  0  1.003781  0  0  0.1049  0.112266  0  1.003142  0
H  H7  1  0.75144266  0.58518990  0.74185264  1  0  0.100895  0  0.945916  0  0  0.114108  0  1.003244  0  0  0.116551  0  1.003874  0  0  0.104897  0.112287  0  1.003235  0
H  H8  1  0.52332146  0.10495190  0.06396424  1  0  0.105848  0  0.944585  0  0  0.118853  0  0.997737  0  0  0.122016  0  0.996758  0  0  0.109683  0.116559  0  0.998579  0
H  H9  1  0.47667348  0.89504338  0.93603627  1  0  0.105832  0  0.944703  0  0  0.11883  0  0.997856  0  0  0.121994  0  0.996876  0  0  0.109679  0.116534  0  0.998696  0
H  H10  1  0.53520840  0.94132842  0.21028662  1  0  0.089774  0  0.936414  0  0  0.100081  0  0.995341  0  0  0.102546  0  0.993122  0  0  0.119043  0.098209  0  0.997015  0
H  H11  1  0.46478577  0.05867304  0.78971686  1  0  0.08977  0  0.936408  0  0  0.100074  0  0.995353  0  0  0.10254  0  0.993132  0  0  0.11903  0.098198  0  0.997023  0
H  H12  1  0.30038399  0.48144849  0.08728886  1  0  0.096385  0  0.951302  0  0  0.107816  0  1.01271  0  0  0.11004  0  1.013208  0  0  0.102358  0.106253  0  1.012274  0
H  H13  1  0.69962158  0.51855196  0.91270762  1  0  0.096418  0  0.951282  0  0  0.107869  0  1.012666  0  0  0.110093  0  1.013163  0  0  0.102354  0.106309  0  1.012226  0
H  H14  1  0.49116297  0.25923842  0.94823974  1  0  0.084818  0  0.940082  0  0  0.101004  0  0.993179  0  0  0.103325  0  0.991821  0  0  0.106104  0.099319  0  0.994236  0
H  H15  1  0.50885245  0.74075906  0.05176145  1  0  0.084906  0  0.940054  0  0  0.101021  0  0.993215  0  0  0.103343  0  0.991859  0  0  0.106104  0.09934  0  0.994273  0
H  H16  1  0.33743399  0.56759809  0.92063872  1  0  0.098878  0  0.970947  0  0  0.109865  0  1.033069  0  0  0.112906  0  1.031232  0  0  0.103112  0.107703  0  1.034338  0
H  H17  1  0.66258516  0.43240044  0.07936163  1  0  0.098746  0  0.971002  0  0  0.10975  0  1.033119  0  0  0.11277  0  1.031309  0  0  0.103015  0.107588  0  1.034389  0
H  H18  1  0.53281866  0.34827917  0.77807648  1  0  0.114612  0  0.977862  0  0  0.123662  0  1.040491  0  0  0.127539  0  1.038347  0  0  0.103127  0.120795  0  1.0422  0
H  H19  1  0.46718690  0.65172128  0.22192070  1  0  0.11464  0  0.977846  0  0  0.123697  0  1.040478  0  0  0.127574  0  1.038333  0  0  0.103126  0.120849  0  1.042164  0
H  H20  1  0.29054229  0.71571125  0.80646615  1  0  0.111865  0  0.958633  0  0  0.120115  0  1.021616  0  0  0.123474  0  1.020525  0  0  0.108817  0.117804  0  1.022419  0
H  H21  1  0.70945676  0.28428717  0.19353811  1  0  0.111805  0  0.958694  0  0  0.120086  0  1.021631  0  0  0.123447  0  1.020535  0  0  0.108783  0.117779  0  1.022434  0
H  H22  1  0.27181293  0.88086220  0.66229992  1  0  0.070202  0  0.963965  0  0  0.079638  0  1.029676  0  0  0.080453  0  1.029839  0  0  0.110533  0.078908  0  1.029793  0
H  H23  1  0.72818612  0.11913622  0.33770365  1  0  0.070116  0  0.964044  0  0  0.079572  0  1.029732  0  0  0.080384  0  1.029898  0  0  0.110521  0.078845  0  1.029847  0
H  H24  1  0.58378575  0.61238280  0.47723110  1  0  0.079024  0  0.943439  0  0  0.08863  0  1.004838  0  0  0.090732  0  1.003663  0  0  0.113877  0.087005  0  1.005892  0
H  H25  1  0.41621188  0.38762071  0.52276938  1  0  0.078977  0  0.943493  0  0  0.088579  0  1.00489  0  0  0.09068  0  1.003716  0  0  0.113864  0.086951  0  1.005946  0
H  H26  1  0.60736692  0.42766972  0.61338137  1  0  0.117097  0  0.959251  0  0  0.126833  0  1.018188  0  0  0.13013  0  1.017676  0  0  0.10699  0.124513  0  1.018626  0
H  H27  1  0.39263302  0.57233277  0.38661808  1  0  0.117123  0  0.95928  0  0  0.126861  0  1.018215  0  0  0.130146  0  1.017716  0  0  0.107003  0.124538  0  1.018651  0
H  H28  1  0.92407750  0.90260481  0.43816671  1  0  0.124417  0  0.948059  0  0  0.130349  0  1.017721  0  0  0.135161  0  1.012683  0  0  0.110246  0.126749  0  1.021727  0
H  H29  1  0.07593263  0.09739364  0.56183260  1  0  0.12438  0  0.948126  0  0  0.130334  0  1.017753  0  0  0.135124  0  1.012739  0  0  0.110253  0.126732  0  1.021762  0
H  H30  1  0.81977881  0.79840688  0.19174621  1  0  0.117716  0  0.940368  0  0  0.125049  0  1.003515  0  0  0.129894  0  0.998593  0  0  0.111474  0.121531  0  1.006885  0
H  H31  1  0.18020829  0.20159458  0.80826214  1  0  0.117732  0  0.940397  0  0  0.12513  0  1.003475  0  0  0.129978  0  0.998555  0  0  0.111508  0.12161  0  1.006844  0
H  H32  1  0.24567610  0.78587243  0.17633859  1  0  0.110185  0  0.94784  0  0  0.115711  0  1.017238  0  0  0.12057  0  1.012371  0  0  0.107952  0.112112  0  1.020874  0
H  H33  1  0.75431906  0.21412583  0.82365244  1  0  0.110071  0  0.947974  0  0  0.115647  0  1.01733  0  0  0.120496  0  1.012472  0  0  0.107951  0.112045  0  1.020967  0
H  H34  1  0.96829638  0.90843885  0.80922368  1  0  0.07542  0  0.943594  0  0  0.085645  0  1.004325  0  0  0.086813  0  1.004439  0  0  0.114194  0.085057  0  1.003695  0
H  H35  1  0.03169813  0.09155438  0.19077783  1  0  0.075453  0  0.943685  0  0  0.085709  0  1.004382  0  0  0.086877  0  1.004495  0  0  0.114234  0.08512  0  1.003753  0
H  H36  1  0.98421178  0.86780283  0.63695791  1  0  0.126748  0  0.953549  0  0  0.133928  0  1.01733  0  0  0.137162  0  1.016728  0  0  0.110601  0.131547  0  1.018062  0
H  H37  1  0.01578489  0.13219347  0.36304145  1  0  0.12681  0  0.953619  0  0  0.134015  0  1.017353  0  0  0.137233  0  1.016767  0  0  0.11065  0.131634  0  1.018088  0
H  H38  1  0.10005643  0.43309806  0.72032597  1  0  0.105207  0  0.981204  0  0  0.114726  0  1.0444  0  0  0.11682  0  1.045202  0  0  0.103944  0.113368  0  1.043557  0
H  H39  1  0.89995160  0.56689726  0.27966989  1  0  0.1052  0  0.981288  0  0  0.114732  0  1.044467  0  0  0.11682  0  1.045272  0  0  0.103962  0.113376  0  1.043625  0
H  H40  1  0.07686157  0.49147658  0.88779884  1  0  0.084593  0  0.931678  0  0  0.094165  0  0.992118  0  0  0.096825  0  0.990158  0  0  0.118442  0.092186  0  0.993583  0
H  H41  1  0.92314531  0.50851567  0.11219828  1  0  0.084538  0  0.931758  0  0  0.094149  0  0.992164  0  0  0.096797  0  0.990218  0  0  0.118421  0.092169  0  0.993634  0
H  H42  1  0.04409272  0.70480444  0.51192034  1  0  0.099971  0  0.966485  0  0  0.111432  0  1.028836  0  0  0.113415  0  1.02903  0  0  0.104475  0.110046  0  1.028628  0
H  H43  1  0.95590396  0.29519186  0.48807832  1  0  0.099976  0  0.966478  0  0  0.111432  0  1.02883  0  0  0.113414  0  1.029023  0  0  0.10447  0.110046  0  1.028625  0
H  H44  1  0.99102977  0.42752732  0.60432054  1  0  0.085351  0  0.959139  0  0  0.098842  0  1.019064  0  0  0.100143  0  1.020301  0  0  0.102308  0.097735  0  1.018583  0
H  H45  1  0.00896616  0.57246797  0.39568047  1  0  0.085356  0  0.959176  0  0  0.098874  0  1.01907  0  0  0.100174  0  1.020309  0  0  0.102332  0.097765  0  1.018588  0
C  C46  1  0.32764529  0.21277944  0.32145450  1  0  0.131594  0  3.730375  0  0  0.098777  0  3.986164  0  0  0.10702  0  4.005418  0  0  0.04186  0.093299  0  3.973928  0
C  C47  1  0.67236466  0.78723031  0.67854502  1  0  0.131403  0  3.730173  0  0  0.098704  0  3.985852  0  0  0.10695  0  4.0051  0  0  0.041852  0.093225  0  3.973612  0
C  C48  1  0.31308854  0.31071037  0.24405614  1  0  -0.168366  0  3.714335  0  0  -0.186334  0  3.962459  0  0  -0.195096  0  3.984818  0  0  -0.084035  -0.18116  0  3.948861  0
C  C49  1  0.68691652  0.68929527  0.75594688  1  0  -0.168389  0  3.714387  0  0  -0.186399  0  3.9625  0  0  -0.19516  0  3.984856  0  0  -0.084039  -0.181215  0  3.948898  0
C  C50  1  0.38166807  0.27593704  0.14774184  1  0  0.141659  0  3.804245  0  0  0.156056  0  4.035723  0  0  0.162828  0  4.057636  0  0  0.008641  0.151827  0  4.020807  0
C  C51  1  0.61833313  0.72406446  0.85226097  1  0  0.141733  0  3.804546  0  0  0.156112  0  4.036032  0  0  0.162883  0  4.057951  0  0  0.008646  0.151866  0  4.021131  0
C  C52  1  0.46446352  0.13945882  0.13589124  1  0  -0.159797  0  3.695987  0  0  -0.173805  0  3.934292  0  0  -0.182235  0  3.955662  0  0  -0.081412  -0.168369  0  3.919946  0
C  C53  1  0.53553213  0.86053749  0.86410971  1  0  -0.159738  0  3.696092  0  0  -0.173717  0  3.934382  0  0  -0.182148  0  3.955755  0  0  -0.081378  -0.168279  0  3.920029  0
C  C54  1  0.47295400  0.04766510  0.21682528  1  0  0.120231  0  3.733731  0  0  0.088738  0  3.984441  0  0  0.095633  0  4.005057  0  0  0.039529  0.084348  0  3.970205  0
C  C55  1  0.52704321  0.95233636  0.78317552  1  0  0.120202  0  3.733436  0  0  0.088687  0  3.984201  0  0  0.095582  0  4.004815  0  0  0.039532  0.08431  0  3.969948  0
C  C56  1  0.36518081  0.37893469  0.06752710  1  0  -0.118467  0  3.710223  0  0  -0.138669  0  3.960481  0  0  -0.144369  0  3.983693  0  0  -0.08234  -0.134444  0  3.944195  0
C  C57  1  0.63482574  0.62106577  0.93247058  1  0  -0.118516  0  3.710275  0  0  -0.138714  0  3.96049  0  0  -0.144411  0  3.9837  0  0  -0.082331  -0.134483  0  3.944205  0
C  C58  1  0.42388773  0.35955031  0.97131547  1  0  -0.033304  0  3.763079  0  0  -0.049846  0  4.013568  0  0  -0.05052  0  4.035783  0  0  -0.076566  -0.049405  0  3.998487  0
C  C59  1  0.57612543  0.64044815  0.02868255  1  0  -0.033416  0  3.76311  0  0  -0.049912  0  4.013598  0  0  -0.050586  0  4.035808  0  0  -0.076544  -0.049474  0  3.998524  0
C  C60  1  0.40367415  0.46736651  0.89647200  1  0  -0.051435  0  3.774991  0  0  -0.06746  0  4.027991  0  0  -0.068614  0  4.051568  0  0  -0.081755  -0.066429  0  4.011461  0
C  C61  1  0.59634242  0.53263405  0.10352793  1  0  -0.051305  0  3.774789  0  0  -0.067333  0  4.02778  0  0  -0.068473  0  4.051363  0  0  -0.081664  -0.066301  0  4.011254  0
C  C62  1  0.46498586  0.44878090  0.80040277  1  0  -0.126557  0  3.684068  0  0  -0.145537  0  3.931262  0  0  -0.152571  0  3.953329  0  0  -0.086802  -0.140317  0  3.915524  0
C  C63  1  0.53502398  0.55121859  0.19959719  1  0  -0.126487  0  3.683967  0  0  -0.145511  0  3.931133  0  0  -0.152543  0  3.953192  0  0  -0.086773  -0.140303  0  3.915387  0
C  C64  1  0.44996054  0.55480012  0.72191231  1  0  0.149975  0  3.79616  0  0  0.164375  0  4.026362  0  0  0.171986  0  4.047888  0  0  0.010994  0.159501  0  4.011739  0
C  C65  1  0.55004601  0.44520035  0.27808607  1  0  0.149873  0  3.796287  0  0  0.164387  0  4.026344  0  0  0.171997  0  4.04787  0  0  0.011018  0.159508  0  4.011727  0
C  C66  1  0.35612687  0.68645177  0.73480014  1  0  -0.165406  0  3.69411  0  0  -0.183916  0  3.94244  0  0  -0.192727  0  3.964557  0  0  -0.08455  -0.178514  0  3.928915  0
C  C67  1  0.64387435  0.31354972  0.26520127  1  0  -0.16531  0  3.694143  0  0  -0.183879  0  3.942428  0  0  -0.192687  0  3.96454  0  0  -0.084523  -0.178484  0  3.928913  0
C  C68  1  0.34592594  0.77973888  0.65487841  1  0  0.129054  0  3.737049  0  0  0.097757  0  3.989557  0  0  0.105542  0  4.010033  0  0  0.03898  0.092437  0  3.976629  0
C  C69  1  0.65407498  0.22026364  0.34512365  1  0  0.129178  0  3.736974  0  0  0.097878  0  3.989488  0  0  0.105665  0  4.009964  0  0  0.039049  0.092558  0  3.976564  0
C  C70  1  0.51906951  0.62888459  0.55121103  1  0  0.120642  0  3.745886  0  0  0.090082  0  3.997034  0  0  0.09799  0  4.016135  0  0  0.041149  0.085055  0  3.983771  0
C  C71  1  0.48093026  0.37112202  0.44878941  1  0  0.120689  0  3.745767  0  0  0.090138  0  3.996922  0  0  0.098047  0  4.016018  0  0  0.041101  0.085113  0  3.983657  0
C  C72  1  0.53290186  0.52794740  0.62676209  1  0  -0.170182  0  3.686517  0  0  -0.183826  0  3.927165  0  0  -0.192881  0  3.947477  0  0  -0.083569  -0.177934  0  3.9135  0
C  C73  1  0.46709851  0.47205714  0.37323635  1  0  -0.170197  0  3.686443  0  0  -0.183876  0  3.92704  0  0  -0.192922  0  3.947358  0  0  -0.083539  -0.177971  0  3.913365  0
C  C74  1  0.20370837  0.85833621  0.36064094  1  0  0.607625  0  3.974954  0  0  0.560473  0  4.264188  0  0  0.594201  0  4.259614  0  0  0.183503  0.537823  0  4.265924  0
C  C75  1  0.79629683  0.14166212  0.63935024  1  0  0.607758  0  3.974665  0  0  0.560671  0  4.263824  0  0  0.594399  0  4.259248  0  0  0.183597  0.538021  0  4.265566  0
C  C76  1  0.70940824  0.85808535  0.37876889  1  0  0.639455  0  3.93993  0  0  0.588312  0  4.232199  0  0  0.623363  0  4.22507  0  0  0.196985  0.564279  0  4.23631  0
C  C77  1  0.29059351  0.14191414  0.62123754  1  0  0.639742  0  3.939779  0  0  0.588613  0  4.232011  0  0  0.623664  0  4.224871  0  0  0.197078  0.564589  0  4.236132  0
C  C78  1  0.07932800  0.75889154  0.06662799  1  0  0.641253  0  3.862543  0  0  0.595698  0  4.158091  0  0  0.628198  0  4.150501  0  0  0.220423  0.573601  0  4.162999  0
C  C79  1  0.92065047  0.24110872  0.93336957  1  0  0.641006  0  3.863191  0  0  0.59546  0  4.158627  0  0  0.627961  0  4.151041  0  0  0.220369  0.573365  0  4.163531  0
C  C80  1  0.09651177  0.84295333  0.31295143  1  0  -0.066393  0  3.758314  0  0  -0.040061  0  3.996595  0  0  -0.04981  0  4.018615  0  0  -0.018273  -0.034497  0  3.982646  0
C  C81  1  0.90348941  0.15704498  0.68703983  1  0  -0.066228  0  3.758168  0  0  -0.040023  0  3.996584  0  0  -0.049773  0  4.018597  0  0  -0.01831  -0.034472  0  3.982653  0
C  C82  1  0.95598285  0.86764415  0.36459084  1  0  -0.071071  0  3.677588  0  0  -0.11052  0  3.931505  0  0  -0.105455  0  3.946913  0  0  -0.073385  -0.114116  0  3.922758  0
C  C83  1  0.04402399  0.13235529  0.63540690  1  0  -0.071244  0  3.677648  0  0  -0.110653  0  3.931552  0  0  -0.105572  0  3.946965  0  0  -0.073475  -0.114254  0  3.922812  0
C  C84  1  0.85757315  0.84639351  0.32193189  1  0  -0.083433  0  3.779449  0  0  -0.056688  0  4.020005  0  0  -0.066982  0  4.041989  0  0  -0.023833  -0.050048  0  4.005687  0
C  C85  1  0.14242963  0.15360595  0.67807084  1  0  -0.083277  0  3.77946  0  0  -0.056558  0  4.02005  0  0  -0.066837  0  4.042004  0  0  -0.023744  -0.049919  0  4.00573  0
C  C86  1  0.89778936  0.81153333  0.22499310  1  0  -0.062365  0  3.698447  0  0  -0.101714  0  3.950222  0  0  -0.096251  0  3.965687  0  0  -0.074503  -0.103796  0  3.937953  0
C  C87  1  0.10219921  0.18847015  0.77501125  1  0  -0.062397  0  3.698476  0  0  -0.101871  0  3.950211  0  0  -0.096418  0  3.965681  0  0  -0.074508  -0.103954  0  3.937939  0
C  C88  1  0.03669774  0.79272704  0.17136926  1  0  -0.083961  0  3.779402  0  0  -0.060034  0  4.019545  0  0  -0.070565  0  4.043285  0  0  -0.022053  -0.053588  0  4.002605  0
C  C89  1  0.96328812  0.20727538  0.82863363  1  0  -0.0841  0  3.779595  0  0  -0.059997  0  4.019494  0  0  -0.070529  0  4.043231  0  0  -0.02212  -0.053551  0  4.002547  0
C  C90  1  0.13660455  0.80453049  0.21674054  1  0  -0.063188  0  3.684787  0  0  -0.101731  0  3.93502  0  0  -0.096378  0  3.9502  0  0  -0.073441  -0.104116  0  3.924506  0
C  C91  1  0.86339247  0.19546472  0.78325186  1  0  -0.063032  0  3.684827  0  0  -0.101633  0  3.934974  0  0  -0.096266  0  3.950156  0  0  -0.073404  -0.104014  0  3.924466  0
C  C92  1  0.99599375  0.80465080  0.78621210  1  0  0.126095  0  3.714099  0  0  0.094578  0  3.967608  0  0  0.101524  0  3.985934  0  0  0.049009  0.090223  0  3.955247  0
C  C93  1  0.00400276  0.19534244  0.21378902  1  0  0.126023  0  3.714367  0  0  0.09446  0  3.967902  0  0  0.101415  0  3.986228  0  0  0.048938  0.090105  0  3.955542  0
C  C94  1  0.00572498  0.78188987  0.69067251  1  0  -0.162285  0  3.673681  0  0  -0.178695  0  3.921961  0  0  -0.187144  0  3.943626  0  0  -0.076825  -0.173707  0  3.909143  0
C  C95  1  0.99427125  0.21810439  0.30932785  1  0  -0.162408  0  3.673773  0  0  -0.178805  0  3.922108  0  0  -0.187237  0  3.94377  0  0  -0.076891  -0.173818  0  3.909294  0
C  C96  1  0.03840449  0.64634219  0.66488717  1  0  0.138271  0  3.807716  0  0  0.150071  0  4.040828  0  0  0.156118  0  4.062404  0  0  0.006952  0.146131  0  4.02699  0
C  C97  1  0.96159620  0.35365414  0.33511141  1  0  0.138436  0  3.807397  0  0  0.150129  0  4.040649  0  0  0.156177  0  4.062217  0  0  0.007033  0.146195  0  4.026811  0
C  C98  1  0.06753852  0.54005901  0.73694248  1  0  -0.163276  0  3.692528  0  0  -0.178767  0  3.937382  0  0  -0.186624  0  3.959509  0  0  -0.079996  -0.173958  0  3.922621  0
C  C99  1  0.93246618  0.45993735  0.26305672  1  0  -0.163283  0  3.692528  0  0  -0.178753  0  3.937412  0  0  -0.186604  0  3.95953  0  0  -0.080016  -0.173949  0  3.922659  0
C  C100  1  0.05616685  0.57210585  0.83039398  1  0  0.123343  0  3.715705  0  0  0.090286  0  3.973135  0  0  0.09658  0  3.9914  0  0  0.046022  0.086353  0  3.960551  0
C  C101  1  0.94383554  0.42789153  0.16960625  1  0  0.123454  0  3.715605  0  0  0.09037  0  3.973007  0  0  0.096684  0  3.991279  0  0  0.046069  0.086438  0  3.960428  0
C  C102  1  0.03402788  0.62156542  0.56831139  1  0  -0.112244  0  3.687876  0  0  -0.128231  0  3.930312  0  0  -0.132413  0  3.95102  0  0  -0.079355  -0.125101  0  3.915653  0
C  C103  1  0.96597221  0.37843297  0.43168847  1  0  -0.112277  0  3.687791  0  0  -0.128234  0  3.930269  0  0  -0.132418  0  3.950983  0  0  -0.079359  -0.125108  0  3.915614  0
C  C104  1  0.00680627  0.50892570  0.54715346  1  0  -0.055711  0  3.779605  0  0  -0.069377  0  4.025484  0  0  -0.070452  0  4.047847  0  0  -0.085302  -0.06844  0  4.010204  0
C  C105  1  0.99318880  0.49107266  0.45284739  1  0  -0.055714  0  3.77971  0  0  -0.069397  0  4.025589  0  0  -0.070475  0  4.047953  0  0  -0.085294  -0.068459  0  4.010311  0
N  N106  1  0.40582303  0.08298365  0.30870992  1  0  -0.337762  0  3.255942  0  0  -0.256583  0  3.517047  0  0  -0.278545  0  3.538319  0  0  -0.33357  -0.241617  0  3.502573  0
N  N107  1  0.59417891  0.91702602  0.69128766  1  0  -0.337803  0  3.25582  0  0  -0.256659  0  3.516958  0  0  -0.27862  0  3.538229  0  0  -0.333661  -0.241699  0  3.502484  0
N  N108  1  0.42532248  0.75242233  0.56413538  1  0  -0.346985  0  3.284775  0  0  -0.264287  0  3.549827  0  0  -0.286333  0  3.568969  0  0  -0.339157  -0.249036  0  3.536758  0
N  N109  1  0.57467369  0.24757915  0.43586912  1  0  -0.347063  0  3.284661  0  0  -0.264405  0  3.549776  0  0  -0.286448  0  3.568908  0  0  -0.339234  -0.249156  0  3.536709  0
N  N110  1  0.01919615  0.70219170  0.85534391  1  0  -0.297992  0  3.233807  0  0  -0.232285  0  3.476974  0  0  -0.247224  0  3.493306  0  0  -0.309277  -0.222445  0  3.46591  0
N  N111  1  0.98079705  0.29780256  0.14465914  1  0  -0.298044  0  3.233765  0  0  -0.232348  0  3.476939  0  0  -0.247312  0  3.493287  0  0  -0.309305  -0.222502  0  3.465873  0
O  O112  1  0.33231972  0.80381882  0.32203192  1  0  -0.638171  0  1.985765  0  0  -0.579394  0  2.22324  0  0  -0.606885  0  2.214048  0  0  -0.328549  -0.559416  0  2.230328  0
O  O113  1  0.66768875  0.19617854  0.67796223  1  0  -0.638223  0  1.985754  0  0  -0.579415  0  2.223141  0  0  -0.606908  0  2.213949  0  0  -0.32852  -0.559433  0  2.230225  0
O  O114  1  0.16188644  0.92515257  0.43675578  1  0  -0.62957  0  1.93247  0  0  -0.574301  0  2.17275  0  0  -0.601213  0  2.162775  0  0  -0.331271  -0.554488  0  2.178207  0
O  O115  1  0.83812189  0.07484170  0.56323804  1  0  -0.629721  0  1.932215  0  0  -0.574501  0  2.172511  0  0  -0.601414  0  2.162538  0  0  -0.33141  -0.55469  0  2.177972  0
O  O116  1  0.66455119  0.91514549  0.45918817  1  0  -0.677051  0  2.06416  0  0  -0.612309  0  2.337577  0  0  -0.640631  0  2.323517  0  0  -0.3396  -0.59076  0  2.34546  0
O  O117  1  0.33545757  0.08485406  0.54081969  1  0  -0.677344  0  2.064381  0  0  -0.612614  0  2.337814  0  0  -0.640943  0  2.32375  0  0  -0.33974  -0.59104  0  2.345627  0
O  O118  1  0.63560780  0.80824123  0.34315799  1  0  -0.623273  0  1.96195  0  0  -0.56472  0  2.201615  0  0  -0.591574  0  2.190703  0  0  -0.325832  -0.545112  0  2.2099  0
O  O119  1  0.36439092  0.19176542  0.65684825  1  0  -0.623362  0  1.961839  0  0  -0.564816  0  2.201504  0  0  -0.591673  0  2.190595  0  0  -0.32584  -0.5452  0  2.209759  0
O  O120  1  0.97437364  0.74551149  0.03549507  1  0  -0.562771  0  2.107323  0  0  -0.510626  0  2.326734  0  0  -0.53307  0  2.312224  0  0  -0.341594  -0.49517  0  2.336436  0
O  O121  1  0.02559818  0.25449083  0.96450705  1  0  -0.562666  0  2.107458  0  0  -0.510562  0  2.326817  0  0  -0.533005  0  2.312306  0  0  -0.34154  -0.495116  0  2.33654  0
O  O122  1  0.20038101  0.74526706  0.01647067  1  0  -0.573023  0  1.890437  0  0  -0.537726  0  2.099347  0  0  -0.556405  0  2.09058  0  0  -0.313289  -0.524837  0  2.105119  0
O  O123  1  0.79959435  0.25473722  0.98352004  1  0  -0.572858  0  1.890727  0  0  -0.53761  0  2.099652  0  0  -0.556288  0  2.090882  0  0  -0.313283  -0.524719  0  2.105414  0
