# generated using pymatgen
data_Zn4H4C24S6Cl4O19
_symmetry_space_group_name_H-M   'P 1'
_cell_length_a   19.58661921
_cell_length_b   19.71916344
_cell_length_c   33.20653821
_cell_angle_alpha   79.09800394
_cell_angle_beta   79.49110771
_cell_angle_gamma   64.07985487
_symmetry_Int_Tables_number   1
_chemical_formula_structural   Zn4H4C24S6Cl4O19
_chemical_formula_sum   'Zn16 H16 C96 S24 Cl16 O76'
_cell_volume   11254.61877491
_cell_formula_units_Z   4
loop_
 _symmetry_equiv_pos_site_id
 _symmetry_equiv_pos_as_xyz
  1  'x, y, z'
loop_
 _atom_site_type_symbol
 _atom_site_label
 _atom_site_symmetry_multiplicity
 _atom_site_fract_x
 _atom_site_fract_y
 _atom_site_fract_z
 _atom_site_occupancy
 _atom_site_pbe_bader_charge
 _atom_site_pbe_bader_spin_density
 _atom_site_pbe_cm5_charge
 _atom_site_pbe_ddec_charge
 _atom_site_pbe_ddec_spin_density
 _atom_site_pbe_ddec_sum_bond_order
 _atom_site_pbe_magmom
Zn  Zn0  1  0.05657118  0.39791608  0.47969973  1  1.324428  0  0.6816  0.980155  0  2.323545  0
Zn  Zn1  1  0.98749042  0.48005228  0.56081920  1  1.316616  0  0.682409  0.974184  0  2.363346  0
Zn  Zn2  1  0.05634946  0.56234055  0.48144715  1  1.319996  0  0.683105  0.975986  0  2.335815  0
Zn  Zn3  1  0.90208060  0.55611383  0.47910977  1  1.319997  0  0.683003  0.97654  0  2.332365  0
Zn  Zn4  1  0.69076142  0.34921501  0.27273830  1  1.322623  0  0.681198  0.979327  0  2.326114  0
Zn  Zn5  1  0.68795503  0.19032282  0.26727872  1  1.31848  0  0.681807  0.976576  0  2.345795  0
Zn  Zn6  1  0.77145138  0.26512028  0.19047782  1  1.319177  0  0.683118  0.977276  0  2.327925  0
Zn  Zn7  1  0.84836146  0.19574158  0.27071165  1  1.315267  0  0.683941  0.976035  0  2.343602  0
Zn  Zn8  1  0.26841644  0.76431615  0.68910113  1  1.314512  0  0.683107  0.975224  0  2.360131  0
Zn  Zn9  1  0.35271493  0.69706328  0.76940886  1  1.321326  0  0.682668  0.978725  0  2.338242  0
Zn  Zn10  1  0.19036639  0.84735939  0.77141335  1  1.3185  0  0.681735  0.976304  0  2.322701  0
Zn  Zn11  1  0.19033199  0.69096980  0.76868199  1  1.318145  0  0.68291  0.976338  0  2.335447  0
Zn  Zn12  1  0.55621080  0.06547673  0.98277141  1  1.320765  0  0.68237  0.978018  0  2.341133  0
Zn  Zn13  1  0.40177075  0.05610183  0.97570597  1  1.324421  0  0.683189  0.976196  0  2.354029  0
Zn  Zn14  1  0.55756041  0.90075761  0.98067229  1  1.312174  0  0.68207  0.977554  0  2.321532  0
Zn  Zn15  1  0.48176734  0.98142386  0.05938683  1  1.315217  0  0.682595  0.976442  0  2.333341  0
H  H16  1  0.74809672  0.45067556  0.34943026  1  0.16285  0  0.124972  0.142884  0  0.98939  0
H  H17  1  0.00047716  0.30131770  0.40053619  1  0.181261  0  0.125111  0.142997  0  0.989339  0
H  H18  1  0.19982844  0.70132383  0.60137098  1  0.151086  0  0.124317  0.141933  0  0.990593  0
H  H19  1  0.04955418  0.54893232  0.64894823  1  0.142442  0  0.124385  0.142217  0  0.990632  0
H  H20  1  0.64917579  0.14842849  0.04921343  1  0.135059  0  0.124708  0.142299  0  0.990978  0
H  H21  1  0.60147975  0.10023986  0.20099412  1  0.196644  0  0.12458  0.142457  0  0.990524  0
H  H22  1  0.30197680  0.99888610  0.90072883  1  0.178864  0  0.124113  0.14203  0  0.991906  0
H  H23  1  0.44909594  0.74948978  0.84911390  1  0.175203  0  0.1245  0.142553  0  0.990025  0
H  H24  1  0.84313687  0.57279684  0.39967678  1  0.646522  0  0.313912  0.378559  0  0.93889  0
H  H25  1  0.96449585  0.23808043  0.29145371  1  0.679616  0  0.314008  0.378855  0  0.938006  0
H  H26  1  0.06958210  0.68718812  0.51361929  1  0.649219  0  0.313263  0.378174  0  0.94186  0
H  H27  1  0.06336362  0.67728404  0.73713274  1  0.646189  0  0.314022  0.378711  0  0.939695  0
H  H28  1  0.79520937  0.17705440  0.12160894  1  0.635017  0  0.312925  0.377505  0  0.944025  0
H  H29  1  0.56973558  0.95682982  0.12936021  1  0.653389  0  0.313636  0.378774  0  0.939208  0
H  H30  1  0.17750649  0.90626609  0.84992449  1  0.654046  0  0.312632  0.37649  0  0.944795  0
H  H31  1  0.51658918  0.78448171  0.95783759  1  0.651998  0  0.313304  0.377892  0  0.942427  0
C  C32  1  0.06251212  0.31397079  0.56311738  1  1.545266  0  0.218161  0.625237  0  4.203189  0
C  C33  1  0.06572914  0.57369717  0.56814109  1  1.567808  0  0.241173  0.615895  0  4.12082  0
C  C34  1  0.18171911  0.44057405  0.43937578  1  1.568883  0  0.218788  0.626709  0  4.195251  0
C  C35  1  0.93515628  0.68646130  0.43806994  1  1.566754  0  0.215546  0.621437  0  4.207655  0
C  C36  1  0.93346505  0.43373902  0.42888504  1  1.569044  0  0.24051  0.615727  0  4.119722  0
C  C37  1  0.82050625  0.55915341  0.56193320  1  1.569521  0  0.218003  0.624321  0  4.199382  0
C  C38  1  0.56364612  0.30996169  0.31204030  1  1.575319  0  0.217754  0.626229  0  4.202125  0
C  C39  1  0.68735361  0.17569520  0.18078265  1  1.581489  0  0.24148  0.616136  0  4.120359  0
C  C40  1  0.68988109  0.43071634  0.18856144  1  1.583604  0  0.219397  0.627052  0  4.195369  0
C  C41  1  0.93776961  0.18678352  0.18898500  1  1.551195  0  0.215403  0.622066  0  4.207957  0
C  C42  1  0.82017275  0.32297776  0.31621490  1  1.561602  0  0.241387  0.617475  0  4.120569  0
C  C43  1  0.81150114  0.06857799  0.31106130  1  1.565746  0  0.219442  0.62631  0  4.195188  0
C  C44  1  0.43550959  0.69024450  0.68604858  1  1.576943  0  0.217911  0.623575  0  4.203984  0
C  C45  1  0.31576251  0.81815466  0.82055103  1  1.580134  0  0.241755  0.616403  0  4.121273  0
C  C46  1  0.18758814  0.93045128  0.68869965  1  1.52853  0  0.219546  0.626099  0  4.199893  0
C  C47  1  0.06377129  0.80900594  0.81292916  1  1.562438  0  0.216153  0.62388  0  4.203618  0
C  C48  1  0.17630844  0.68381263  0.68220722  1  1.571268  0  0.241163  0.615985  0  4.12175  0
C  C49  1  0.31573541  0.56859690  0.80994210  1  1.573299  0  0.218945  0.625343  0  4.198049  0
C  C50  1  0.43460593  0.18734859  0.93780029  1  1.569525  0  0.218345  0.624329  0  4.20342  0
C  C51  1  0.43167171  0.92684013  0.93281953  1  1.563197  0  0.241701  0.616886  0  4.119816  0
C  C52  1  0.68135445  0.94301024  0.93979248  1  1.582518  0  0.219379  0.626578  0  4.19857  0
C  C53  1  0.56133557  0.81475248  0.06311614  1  1.571398  0  0.216293  0.624505  0  4.203722  0
C  C54  1  0.57136484  0.06484997  0.06949207  1  1.575312  0  0.241794  0.617789  0  4.119338  0
C  C55  1  0.31671977  0.06085373  0.05885728  1  1.550831  0  0.219207  0.625144  0  4.201405  0
C  C56  1  0.89977539  0.40673895  0.40142918  1  0.009492  0  0.004465  -0.020645  0  3.899367  0
C  C57  1  0.85063780  0.34710241  0.34670286  1  -0.054848  0  0.004542  -0.021044  0  3.898243  0
C  C58  1  0.82723760  0.44804058  0.38721125  1  -0.119582  0  0.001078  -0.086633  0  3.891138  0
C  C59  1  0.92190282  0.30450782  0.36222424  1  -0.153435  0  0.000646  -0.086137  0  3.89052  0
C  C60  1  0.80410245  0.41806605  0.36024940  1  0.067594  0  -0.059891  -0.08127  0  3.905655  0
C  C61  1  0.94526862  0.33473811  0.38892242  1  0.01108  0  -0.060658  -0.082636  0  3.908324  0
C  C62  1  0.09783519  0.60154272  0.59592557  1  -0.00157  0  0.004717  -0.020601  0  3.90218  0
C  C63  1  0.14851795  0.65170725  0.65441207  1  -0.010108  0  0.004362  -0.02125  0  3.900939  0
C  C64  1  0.14167620  0.64416320  0.58278239  1  -0.192539  0  0.001201  -0.085605  0  3.89584  0
C  C65  1  0.10653119  0.60724606  0.66755695  1  -0.170806  0  0.000878  -0.086015  0  3.893348  0
C  C66  1  0.16596436  0.66854835  0.61190062  1  0.108069  0  -0.060242  -0.08194  0  3.90702  0
C  C67  1  0.08187754  0.58324056  0.63842547  1  0.081794  0  -0.059919  -0.082302  0  3.907979  0
C  C68  1  0.30317877  0.45513666  0.40138233  1  0.1379  0  0.014358  0.105132  0  4.081917  0
C  C69  1  0.44214339  0.29563557  0.35010800  1  0.169689  0  0.012406  0.104983  0  4.080344  0
C  C70  1  0.25630012  0.41663529  0.41451109  1  -0.106851  0  -0.029057  -0.190099  0  3.935442  0
C  C71  1  0.48892053  0.33416379  0.33679833  1  -0.090399  0  -0.028537  -0.189701  0  3.93666  0
C  C72  1  0.37421112  0.33999487  0.37350873  1  -0.161155  0  -0.025959  -0.071183  0  4.094779  0
C  C73  1  0.37084194  0.41093535  0.37768351  1  -0.113489  0  -0.024828  -0.071444  0  4.093367  0
C  C74  1  0.72863410  0.57621902  0.62964269  1  0.107713  0  0.012801  0.105635  0  4.081269  0
C  C75  1  0.52727423  0.67172205  0.61814013  1  0.168424  0  0.013399  0.106367  0  4.080108  0
C  C76  1  0.74597969  0.58318014  0.58683065  1  -0.074747  0  -0.028129  -0.191869  0  3.936956  0
C  C77  1  0.50989254  0.66468626  0.66094400  1  -0.135438  0  -0.027716  -0.187672  0  3.933733  0
C  C78  1  0.60720229  0.63889505  0.60673226  1  -0.128105  0  -0.025107  -0.074694  0  4.094408  0
C  C79  1  0.64874680  0.60811630  0.64100648  1  -0.102512  0  -0.025855  -0.071511  0  4.096  0
C  C80  1  0.07879203  0.22234598  0.63121636  1  0.120652  0  0.013476  0.105682  0  4.079636  0
C  C81  1  0.17346642  0.02212441  0.62074869  1  0.132024  0  0.012624  0.105179  0  4.082146  0
C  C82  1  0.08719275  0.23974776  0.58839547  1  -0.06705  0  -0.028476  -0.188372  0  3.934658  0
C  C83  1  0.16494567  0.00471938  0.66357372  1  -0.06182  0  -0.028176  -0.191595  0  3.938392  0
C  C84  1  0.14249429  0.10160294  0.60902335  1  -0.107577  0  -0.026272  -0.072721  0  4.098389  0
C  C85  1  0.11086461  0.14282281  0.64302054  1  -0.129074  0  -0.024745  -0.073239  0  4.093637  0
C  C86  1  0.84118914  0.80381886  0.39594673  1  0.148358  0  0.012317  0.103433  0  4.084651  0
C  C87  1  0.90557591  0.95128524  0.35326724  1  0.213412  0  0.01454  0.105269  0  4.081605  0
C  C88  1  0.90967017  0.76097236  0.41318795  1  -0.107113  0  -0.030194  -0.193056  0  3.94206  0
C  C89  1  0.83725602  0.99388288  0.33582728  1  -0.205893  0  -0.028468  -0.189443  0  3.934316  0
C  C90  1  0.90701605  0.88169896  0.37500952  1  -0.089499  0  -0.024431  -0.070576  0  4.092527  0
C  C91  1  0.83998355  0.87307325  0.37388015  1  -0.140566  0  -0.026007  -0.072264  0  4.098882  0
C  C92  1  0.65678000  0.15102133  0.15057977  1  0.016236  0  0.004306  -0.022531  0  3.900972  0
C  C93  1  0.59712721  0.09440418  0.09964172  1  0.014118  0  0.004357  -0.021702  0  3.900188  0
C  C94  1  0.66876301  0.16543452  0.10719025  1  -0.137519  0  0.000153  -0.086881  0  3.894838  0
C  C95  1  0.58290618  0.08223181  0.14302023  1  -0.154611  0  0.001694  -0.085132  0  3.893616  0
C  C96  1  0.63932814  0.13700807  0.08263954  1  0.050274  0  -0.060188  -0.08161  0  3.907717  0
C  C97  1  0.61284244  0.11014584  0.16757212  1  -0.021045  0  -0.061026  -0.082383  0  3.90931  0
C  C98  1  0.67414429  0.52254134  0.12041361  1  0.134048  0  0.013672  0.102452  0  4.083502  0
C  C99  1  0.57673068  0.72282610  0.13109231  1  0.170411  0  0.012622  0.104153  0  4.082908  0
C  C100  1  0.66541813  0.50494115  0.16323099  1  -0.104973  0  -0.028138  -0.188043  0  3.931583  0
C  C101  1  0.58584217  0.74045983  0.08829454  1  -0.105317  0  -0.030644  -0.194772  0  3.940047  0
C  C102  1  0.60931746  0.64327429  0.14278296  1  -0.171021  0  -0.02541  -0.071175  0  4.094964  0
C  C103  1  0.64203730  0.60217260  0.10879192  1  -0.113823  0  -0.024582  -0.070029  0  4.091897  0
C  C104  1  0.08546811  0.12412086  0.17715821  1  0.144663  0  0.013179  0.104065  0  4.084101  0
C  C105  1  0.16905822  0.12421813  0.07083926  1  0.126221  0  0.012395  0.104623  0  4.080678  0
C  C106  1  0.01252735  0.16185819  0.16437503  1  -0.104984  0  -0.030233  -0.192933  0  3.944006  0
C  C107  1  0.24199011  0.08680917  0.08360470  1  -0.103677  0  -0.027737  -0.190074  0  3.934346  0
C  C108  1  0.11197542  0.13816795  0.10504366  1  -0.081946  0  -0.025903  -0.071908  0  4.095965  0
C  C109  1  0.14261040  0.11082580  0.14294944  1  -0.139345  0  -0.025174  -0.074917  0  4.095612  0
C  C110  1  0.34353083  0.85019518  0.84843573  1  -0.057123  0  0.004316  -0.021516  0  3.901316  0
C  C111  1  0.40608131  0.89669728  0.90291243  1  -0.048088  0  0.004304  -0.022833  0  3.9035  0
C  C112  1  0.30261390  0.92170903  0.86294821  1  -0.102796  0  0.000964  -0.086861  0  3.893741  0
C  C113  1  0.44789131  0.82609775  0.88749099  1  -0.13517  0  0.000829  -0.086148  0  3.893732  0
C  C114  1  0.33409848  0.94356906  0.88976257  1  0.029387  0  -0.0605  -0.082067  0  3.908207  0
C  C115  1  0.41625311  0.80404161  0.86084335  1  0.061585  0  -0.060581  -0.083103  0  3.907863  0
C  C116  1  0.40833476  0.45103091  0.85277625  1  0.046555  0  0.011755  0.103033  0  4.084385  0
C  C117  1  0.34194668  0.30495560  0.89501021  1  0.088524  0  0.012856  0.105178  0  4.080371  0
C  C118  1  0.34079635  0.49386614  0.83468901  1  -0.075606  0  -0.028079  -0.19104  0  3.935809  0
C  C119  1  0.40966118  0.26192806  0.91291744  1  -0.065065  0  -0.028505  -0.188264  0  3.934569  0
C  C120  1  0.34169347  0.37385171  0.87286957  1  -0.09272  0  -0.024825  -0.074136  0  4.094498  0
C  C121  1  0.40879073  0.38193749  0.87463611  1  -0.074048  0  -0.02574  -0.070656  0  4.095693  0
C  C122  1  0.94096654  0.79631237  0.85024161  1  0.168014  0  0.012617  0.102671  0  4.084983  0
C  C123  1  0.80390478  0.95576721  0.90211486  1  0.119418  0  0.011595  0.103382  0  4.082787  0
C  C124  1  0.98895335  0.83368727  0.83756678  1  -0.074661  0  -0.029997  -0.192911  0  3.940399  0
C  C125  1  0.75579272  0.91854237  0.91468369  1  -0.068396  0  -0.027843  -0.191113  0  3.933987  0
C  C126  1  0.87126809  0.91122901  0.87840054  1  -0.138869  0  -0.025382  -0.070942  0  4.095825  0
C  C127  1  0.87316617  0.84117427  0.87361433  1  -0.151095  0  -0.02504  -0.074748  0  4.095225  0
S  S128  1  0.29487296  0.32703337  0.39796331  1  0.311483  0  0.098029  0.165399  0  2.767821  0
S  S129  1  0.44988301  0.42410851  0.35290509  1  0.3157  0  0.102709  0.17107  0  2.766697  0
S  S130  1  0.66496953  0.62805495  0.56065433  1  0.340755  0  0.111573  0.188772  0  2.760933  0
S  S131  1  0.59092215  0.61813597  0.68705815  1  0.31562  0  0.100935  0.169516  0  2.766917  0
S  S132  1  0.13411775  0.15924182  0.56275247  1  0.306676  0  0.101197  0.16971  0  2.766473  0
S  S133  1  0.11984707  0.08519082  0.68930123  1  0.320717  0  0.111967  0.188923  0  2.760516  0
S  S134  1  0.97206490  0.80532323  0.40244857  1  0.318582  0  0.104064  0.175682  0  2.768704  0
S  S135  1  0.77542080  0.94894763  0.34592925  1  0.323607  0  0.098989  0.166314  0  2.768283  0
S  S136  1  0.61820065  0.58536844  0.18899935  1  0.302859  0  0.098243  0.165018  0  2.76621  0
S  S137  1  0.63403150  0.66001778  0.06259142  1  0.311397  0  0.103987  0.175416  0  2.765502  0
S  S138  1  0.01391330  0.18091092  0.11082019  1  0.322588  0  0.102143  0.174282  0  2.769113  0
S  S139  1  0.24070851  0.06931344  0.13715547  1  0.308426  0  0.112223  0.188581  0  2.761211  0
S  S140  1  0.27839360  0.44961236  0.84420803  1  0.325925  0  0.111724  0.189063  0  2.763202  0
S  S141  1  0.47256290  0.30564017  0.90276161  1  0.308534  0  0.100422  0.168863  0  2.766911  0
S  S142  1  0.95121157  0.92322936  0.85411513  1  0.309478  0  0.101835  0.17392  0  2.767688  0
S  S143  1  0.79265861  0.82973773  0.89738799  1  0.319551  0  0.112706  0.189595  0  2.76126  0
S  S144  1  0.75645844  0.53696932  0.40382366  1  3.098444  0  0.532973  1.143651  0  6.047101  0
S  S145  1  0.98549988  0.20826856  0.35296418  1  3.10208  0  0.532857  1.145846  0  6.043244  0
S  S146  1  0.17558744  0.66569187  0.52975746  1  3.130569  0  0.532232  1.143797  0  6.048375  0
S  S147  1  0.08613178  0.57216877  0.72056025  1  3.126792  0  0.533479  1.146517  0  6.047467  0
S  S148  1  0.71497279  0.22497874  0.07950358  1  3.114678  0  0.532293  1.144639  0  6.049347  0
S  S149  1  0.52212336  0.03728505  0.17064697  1  3.105151  0  0.532691  1.144801  0  6.048832  0
S  S150  1  0.21245933  0.99280610  0.84690125  1  3.083475  0  0.533952  1.146988  0  6.049237  0
S  S151  1  0.54466979  0.76182015  0.89684725  1  3.114636  0  0.534514  1.147861  0  6.047034  0
Cl  Cl152  1  0.28540756  0.54321995  0.41131042  1  -0.127118  0  0.032411  0.005742  0  1.525436  0
Cl  Cl153  1  0.46002861  0.20715208  0.34050564  1  -0.14522  0  0.021453  -0.013137  0  1.49123  0
Cl  Cl154  1  0.79187908  0.53505472  0.66550778  1  -0.141616  0  0.020386  -0.014619  0  1.492695  0
Cl  Cl155  1  0.46395265  0.71332865  0.58235600  1  -0.142151  0  0.023115  -0.011693  0  1.492786  0
Cl  Cl156  1  0.03654406  0.28505153  0.66669421  1  -0.145726  0  0.023164  -0.011593  0  1.494609  0
Cl  Cl157  1  0.21532155  0.95935840  0.58525628  1  -0.143778  0  0.020188  -0.014661  0  1.494352  0
Cl  Cl158  1  0.76686474  0.77934792  0.39926791  1  -0.131396  0  0.027286  -0.002123  0  1.521334  0
Cl  Cl159  1  0.97976154  0.97579024  0.34999421  1  -0.128168  0  0.032486  0.005011  0  1.527703  0
Cl  Cl160  1  0.71689668  0.45992905  0.08502647  1  -0.125957  0  0.033136  0.006551  0  1.524392  0
Cl  Cl161  1  0.53385100  0.78555398  0.16651295  1  -0.143151  0  0.026555  -0.002906  0  1.519504  0
Cl  Cl162  1  0.10730028  0.09668712  0.22669255  1  -0.130961  0  0.028396  -0.001204  0  1.524662  0
Cl  Cl163  1  0.14692682  0.15195532  0.02130737  1  -0.136879  0  0.021543  -0.013448  0  1.492618  0
Cl  Cl164  1  0.48306043  0.47477031  0.85009919  1  -0.140531  0  0.02081  -0.013653  0  1.48973  0
Cl  Cl165  1  0.26704209  0.28146762  0.89785029  1  -0.141223  0  0.023218  -0.011663  0  1.492159  0
Cl  Cl166  1  0.95736348  0.70897651  0.83959091  1  -0.131195  0  0.028803  -0.00017  0  1.520365  0
Cl  Cl167  1  0.78770304  0.04329220  0.91249567  1  -0.137399  0  0.021219  -0.013343  0  1.490313  0
O  O168  1  0.00137805  0.49759576  0.50022899  1  -1.223275  0  -0.572811  -1.035993  0  2.530865  0
O  O169  1  0.08131282  0.31295801  0.52405462  1  -1.145922  0  -0.318689  -0.544779  0  2.322007  0
O  O170  1  0.04921845  0.51815325  0.58358496  1  -1.153665  0  -0.290542  -0.505101  0  2.311402  0
O  O171  1  0.15550590  0.50420163  0.45351948  1  -1.156907  0  -0.310985  -0.531732  0  2.375187  0
O  O172  1  0.02469272  0.37266203  0.58178399  1  -1.165904  0  -0.314152  -0.539816  0  2.375223  0
O  O173  1  0.14954580  0.39456119  0.44462163  1  -1.153002  0  -0.321333  -0.551276  0  2.323965  0
O  O174  1  0.05487980  0.60800468  0.53134446  1  -1.183136  0  -0.302408  -0.562431  0  2.398473  0
O  O175  1  0.00363492  0.65864832  0.44773637  1  -1.168138  0  -0.320238  -0.544957  0  2.328155  0
O  O176  1  0.90758983  0.50546540  0.43047915  1  -1.17728  0  -0.304403  -0.564107  0  2.400898  0
O  O177  1  0.88836792  0.65539008  0.44818511  1  -1.161225  0  -0.315186  -0.54251  0  2.363767  0
O  O178  1  0.98749322  0.38323038  0.44813610  1  -1.15241  0  -0.290425  -0.50778  0  2.301232  0
O  O179  1  0.87983994  0.53289324  0.58079950  1  -1.161204  0  -0.314968  -0.543096  0  2.369628  0
O  O180  1  0.81872316  0.56764686  0.52275000  1  -1.162228  0  -0.314626  -0.53433  0  2.338457  0
O  O181  1  0.74792033  0.25116020  0.25056886  1  -1.226189  0  -0.572261  -1.036215  0  2.528009  0
O  O182  1  0.59196337  0.35937776  0.30281325  1  -1.164015  0  -0.319267  -0.545163  0  2.323969  0
O  O183  1  0.65383315  0.17804150  0.21724289  1  -1.154742  0  -0.290503  -0.505727  0  2.307586  0
O  O184  1  0.72053950  0.37172328  0.16977637  1  -1.163348  0  -0.31034  -0.531295  0  2.372423  0
O  O185  1  0.59402403  0.24281445  0.30192712  1  -1.166603  0  -0.313818  -0.54087  0  2.372162  0
O  O186  1  0.67783648  0.43235483  0.22777766  1  -1.13181  0  -0.320848  -0.550476  0  2.325653  0
O  O187  1  0.74587531  0.19094378  0.16870564  1  -1.184208  0  -0.303072  -0.563304  0  2.401799  0
O  O188  1  0.87976535  0.22440172  0.16865884  1  -1.169224  0  -0.320432  -0.546676  0  2.326871  0
O  O189  1  0.86770760  0.27329964  0.29286867  1  -1.183983  0  -0.305606  -0.565744  0  2.400394  0
O  O190  1  0.93584704  0.16944724  0.22807833  1  -1.136338  0  -0.315337  -0.541892  0  2.366173  0
O  O191  1  0.74864976  0.35506143  0.31469921  1  -1.137184  0  -0.2903  -0.50744  0  2.299272  0
O  O192  1  0.74822129  0.09094719  0.29590804  1  -1.161296  0  -0.320612  -0.54862  0  2.327269  0
O  O193  1  0.85337513  0.10469096  0.30680780  1  -1.14564  0  -0.310011  -0.529744  0  2.374729  0
O  O194  1  0.25122680  0.74995869  0.74970220  1  -1.220948  0  -0.572863  -1.036444  0  2.53118  0
O  O195  1  0.37599080  0.72767360  0.66737960  1  -1.159683  0  -0.312894  -0.537642  0  2.368347  0
O  O196  1  0.36649537  0.76604061  0.80065711  1  -1.158876  0  -0.291459  -0.507419  0  2.309007  0
O  O197  1  0.17720255  0.93167244  0.72794291  1  -1.124958  0  -0.315525  -0.535736  0  2.33316  0
O  O198  1  0.43730036  0.67238988  0.72520657  1  -1.167997  0  -0.31903  -0.544907  0  2.32829  0
O  O199  1  0.21466160  0.87182758  0.66980761  1  -1.166645  0  -0.316619  -0.545142  0  2.374036  0
O  O200  1  0.24351076  0.84331619  0.81918448  1  -1.182536  0  -0.303042  -0.562452  0  2.398563  0
O  O201  1  0.09218029  0.85836957  0.80329179  1  -1.170113  0  -0.320735  -0.547463  0  2.325615  0
O  O202  1  0.14290551  0.69278731  0.71914391  1  -1.181143  0  -0.30285  -0.561672  0  2.398072  0
O  O203  1  0.09465598  0.74155271  0.80312953  1  -1.16257  0  -0.315582  -0.543016  0  2.360719  0
O  O204  1  0.23083981  0.70214188  0.66662228  1  -1.156093  0  -0.291234  -0.506787  0  2.313804  0
O  O205  1  0.35843482  0.60392951  0.80491138  1  -1.150253  0  -0.315074  -0.544085  0  2.363625  0
O  O206  1  0.25142232  0.59172492  0.79569602  1  -1.160195  0  -0.315761  -0.536059  0  2.341108  0
O  O207  1  0.49960067  0.00133449  0.99925753  1  -1.225306  0  -0.572547  -1.036488  0  2.530805  0
O  O208  1  0.50239509  0.15998163  0.94834306  1  -1.164137  0  -0.319112  -0.544675  0  2.330413  0
O  O209  1  0.39928864  0.99803916  0.93371248  1  -1.1419  0  -0.291957  -0.506988  0  2.311579  0
O  O210  1  0.64869970  0.89745470  0.94473988  1  -1.166543  0  -0.31555  -0.536472  0  2.336027  0
O  O211  1  0.38793589  0.15610913  0.94683253  1  -1.150329  0  -0.313272  -0.538525  0  2.366324  0
O  O212  1  0.65594836  0.00591524  0.95455632  1  -1.168514  0  -0.315537  -0.545287  0  2.36852  0
O  O213  1  0.48239152  0.87991422  0.95620857  1  -1.185187  0  -0.302339  -0.562817  0  2.398085  0
O  O214  1  0.58224876  0.81397093  0.02415481  1  -1.145101  0  -0.321008  -0.547254  0  2.322358  0
O  O215  1  0.55596286  0.00669263  0.08172183  1  -1.181237  0  -0.303719  -0.563535  0  2.398292  0
O  O216  1  0.52151850  0.87364629  0.08143438  1  -1.167548  0  -0.316436  -0.544734  0  2.36535  0
O  O217  1  0.56840210  0.09873638  0.03299751  1  -1.15597  0  -0.290978  -0.507635  0  2.307345  0
O  O218  1  0.31805636  0.06712546  0.01980926  1  -1.137225  0  -0.315218  -0.543506  0  2.368778  0
O  O219  1  0.37466755  0.03318122  0.07939849  1  -1.161088  0  -0.314696  -0.534453  0  2.336533  0
O  O220  1  0.79600883  0.59322225  0.38518401  1  -1.220075  0  -0.364256  -0.527981  0  2.187041  0
O  O221  1  0.69137298  0.56120071  0.38199160  1  -1.288896  0  -0.306438  -0.501825  0  2.102305  0
O  O222  1  0.74892834  0.52783349  0.44823289  1  -1.251415  0  -0.31809  -0.531305  0  2.127047  0
O  O223  1  0.01261227  0.21864657  0.30493635  1  -1.24525  0  -0.36419  -0.527763  0  2.18692  0
O  O224  1  0.05184096  0.18522869  0.37355865  1  -1.286507  0  -0.306761  -0.502181  0  2.099595  0
O  O225  1  0.94060043  0.16465010  0.36114299  1  -1.265406  0  -0.31745  -0.536242  0  2.155011  0
O  O226  1  0.09807541  0.72002778  0.51063433  1  -1.223514  0  -0.36432  -0.523205  0  2.160796  0
O  O227  1  0.21578497  0.71177410  0.52888082  1  -1.277196  0  -0.307206  -0.503706  0  2.102467  0
O  O228  1  0.21168663  0.59547616  0.51185503  1  -1.289398  0  -0.31763  -0.535822  0  2.147621  0
O  O229  1  0.03092528  0.64850864  0.73970026  1  -1.222089  0  -0.364226  -0.528468  0  2.18795  0
O  O230  1  0.04046020  0.53158257  0.72121257  1  -1.271777  0  -0.307656  -0.504471  0  2.103238  0
O  O231  1  0.15699573  0.53659275  0.73862261  1  -1.288852  0  -0.319007  -0.532196  0  2.123585  0
O  O232  1  0.80015160  0.17827354  0.09080456  1  -1.209452  0  -0.364387  -0.523139  0  2.161903  0
O  O233  1  0.71829092  0.22357806  0.03618429  1  -1.268748  0  -0.306857  -0.503293  0  2.101396  0
O  O234  1  0.67953505  0.29565927  0.09694519  1  -1.287266  0  -0.318319  -0.536694  0  2.148471  0
O  O235  1  0.56854275  0.95234196  0.16011734  1  -1.216663  0  -0.364822  -0.528989  0  2.185229  0
O  O236  1  0.52350806  0.03409750  0.21397418  1  -1.262533  0  -0.307219  -0.503328  0  2.103217  0
O  O237  1  0.45116300  0.07289892  0.15266094  1  -1.292167  0  -0.31864  -0.531996  0  2.124643  0
O  O238  1  0.15656841  0.95248750  0.86478631  1  -1.228718  0  -0.364612  -0.523331  0  2.161146  0
O  O239  1  0.18841115  0.05599259  0.86957217  1  -1.281384  0  -0.307347  -0.505018  0  2.104845  0
O  O240  1  0.22058817  0.00280647  0.80247659  1  -1.242339  0  -0.31879  -0.533143  0  2.122983  0
O  O241  1  0.53499962  0.73618281  0.94513829  1  -1.218371  0  -0.364366  -0.524086  0  2.15976  0
O  O242  1  0.56581680  0.69557001  0.87722351  1  -1.28686  0  -0.306606  -0.504394  0  2.104345  0
O  O243  1  0.58961006  0.80543276  0.88762484  1  -1.271664  0  -0.32018  -0.534077  0  2.120098  0
