# generated using pymatgen
data_Ag3H5C8SO8
_symmetry_space_group_name_H-M   'P 1'
_cell_length_a   7.06760710
_cell_length_b   12.25012021
_cell_length_c   13.47181349
_cell_angle_alpha   107.54441948
_cell_angle_beta   89.99993474
_cell_angle_gamma   90.00009423
_symmetry_Int_Tables_number   1
_chemical_formula_structural   Ag3H5C8SO8
_chemical_formula_sum   'Ag12 H20 C32 S4 O32'
_cell_volume   1112.12091723
_cell_formula_units_Z   4
loop_
 _symmetry_equiv_pos_site_id
 _symmetry_equiv_pos_as_xyz
  1  'x, y, z'
loop_
 _atom_site_type_symbol
 _atom_site_label
 _atom_site_symmetry_multiplicity
 _atom_site_fract_x
 _atom_site_fract_y
 _atom_site_fract_z
 _atom_site_occupancy
 _atom_site_hle17_bader_spin_density
 _atom_site_hle17_ddec_charge
 _atom_site_hle17_ddec_spin_density
 _atom_site_hle17_ddec_sum_bond_order
 _atom_site_hle17_magmom
 _atom_site_hse06_10hf_bader_spin_density
 _atom_site_hse06_10hf_ddec_charge
 _atom_site_hse06_10hf_ddec_spin_density
 _atom_site_hse06_10hf_ddec_sum_bond_order
 _atom_site_hse06_10hf_magmom
 _atom_site_hse06_bader_spin_density
 _atom_site_hse06_ddec_charge
 _atom_site_hse06_ddec_spin_density
 _atom_site_hse06_ddec_sum_bond_order
 _atom_site_hse06_magmom
 _atom_site_pbe_bader_spin_density
 _atom_site_pbe_cm5_charge
 _atom_site_pbe_ddec_charge
 _atom_site_pbe_ddec_spin_density
 _atom_site_pbe_ddec_sum_bond_order
 _atom_site_pbe_magmom
Ag  Ag0  1  0.66506826  0.72287155  0.80258114  1  0  0.685881  0  1.288745  0  0  0.573939  0  1.730698  0  0  0.607199  0  1.67391  0  0  0.451016  0.550084  0  1.770553  0
Ag  Ag1  1  0.16506950  0.77712818  0.19741886  1  0  0.685881  0  1.288737  0  0  0.573925  0  1.730716  0  0  0.607186  0  1.673926  0  0  0.451013  0.550073  0  1.770564  0
Ag  Ag2  1  0.33493533  0.27712760  0.19741923  1  0  0.685859  0  1.288743  0  0  0.573906  0  1.73072  0  0  0.607168  0  1.673928  0  0  0.451001  0.55005  0  1.770573  0
Ag  Ag3  1  0.83493267  0.22287183  0.80258101  1  0  0.685871  0  1.288741  0  0  0.573914  0  1.730709  0  0  0.607175  0  1.673921  0  0  0.451006  0.550057  0  1.770561  0
Ag  Ag4  1  0.18751489  0.50618140  0.46672186  1  0  0.661289  0  1.338515  0  0  0.548895  0  1.790115  0  0  0.584157  0  1.723809  0  0  0.433318  0.523877  0  1.83652  0
Ag  Ag5  1  0.68751501  0.99381836  0.53327814  1  0  0.661299  0  1.338443  0  0  0.548875  0  1.790055  0  0  0.584139  0  1.723752  0  0  0.433315  0.523867  0  1.836459  0
Ag  Ag6  1  0.81248728  0.49381775  0.53327851  1  0  0.661294  0  1.33852  0  0  0.548893  0  1.790121  0  0  0.584155  0  1.723815  0  0  0.433318  0.523879  0  1.836528  0
Ag  Ag7  1  0.31248574  0.00618338  0.46672148  1  0  0.661293  0  1.338479  0  0  0.548897  0  1.790063  0  0  0.584161  0  1.723756  0  0  0.43332  0.523888  0  1.836467  0
Ag  Ag8  1  0.58260506  0.90371047  0.71548078  1  0  0.602698  0  1.369693  0  0  0.483237  0  1.836763  0  0  0.519136  0  1.773907  0  0  0.410131  0.457779  0  1.880786  0
Ag  Ag9  1  0.08260276  0.59628920  0.28451925  1  0  0.602698  0  1.369686  0  0  0.483235  0  1.836758  0  0  0.519137  0  1.773899  0  0  0.41012  0.457777  0  1.880783  0
Ag  Ag10  1  0.41739711  0.09628868  0.28451959  1  0  0.602684  0  1.369725  0  0  0.483234  0  1.836793  0  0  0.519135  0  1.773935  0  0  0.410135  0.457779  0  1.880825  0
Ag  Ag11  1  0.91739658  0.40371167  0.71548086  1  0  0.602725  0  1.369672  0  0  0.483256  0  1.836751  0  0  0.519156  0  1.773892  0  0  0.41014  0.4578  0  1.880778  0
H  H12  1  0.55592700  0.75302881  0.52049772  1  0  0.42893  0  0.848119  0  0  0.400767  0  0.917312  0  0  0.410285  0  0.906046  0  0  0.298567  0.393954  0  0.924201  0
H  H13  1  0.05592613  0.74697254  0.47950354  1  0  0.428925  0  0.84812  0  0  0.400762  0  0.917318  0  0  0.410279  0  0.906053  0  0  0.29856  0.393954  0  0.924199  0
H  H14  1  0.44407375  0.24697205  0.47950313  1  0  0.428932  0  0.848126  0  0  0.40077  0  0.917318  0  0  0.410287  0  0.906045  0  0  0.29857  0.393959  0  0.924201  0
H  H15  1  0.94407463  0.25302747  0.52049707  1  0  0.428951  0  0.848098  0  0  0.400787  0  0.917293  0  0  0.410305  0  0.90602  0  0  0.298568  0.393976  0  0.924178  0
H  H16  1  0.38896939  0.72783778  0.58881860  1  0  0.426436  0  0.869829  0  0  0.395603  0  0.936849  0  0  0.406101  0  0.921927  0  0  0.290855  0.388145  0  0.947417  0
H  H17  1  0.88896915  0.77216299  0.41118230  1  0  0.426439  0  0.869828  0  0  0.395604  0  0.936848  0  0  0.406102  0  0.921924  0  0  0.290866  0.388143  0  0.947422  0
H  H18  1  0.61102995  0.27216308  0.41118225  1  0  0.426448  0  0.869812  0  0  0.395614  0  0.936834  0  0  0.406112  0  0.92191  0  0  0.290869  0.388158  0  0.947398  0
H  H19  1  0.11103019  0.22783787  0.58881855  1  0  0.426443  0  0.869831  0  0  0.395603  0  0.936854  0  0  0.406102  0  0.92193  0  0  0.290856  0.388142  0  0.947426  0
H  H20  1  0.78337187  0.21940249  0.98594745  1  0  0.095615  0  0.995205  0  0  0.102835  0  1.068064  0  0  0.107181  0  1.063141  0  0  0.096313  0.099693  0  1.071684  0
H  H21  1  0.28337353  0.28059605  0.01405182  1  0  0.095659  0  0.995168  0  0  0.102847  0  1.068047  0  0  0.107193  0  1.063125  0  0  0.096315  0.099704  0  1.071667  0
H  H22  1  0.21662889  0.78059838  0.01405266  1  0  0.095621  0  0.995192  0  0  0.102835  0  1.068061  0  0  0.10718  0  1.06314  0  0  0.096312  0.099693  0  1.071679  0
H  H23  1  0.71662581  0.71940395  0.98594879  1  0  0.095663  0  0.995182  0  0  0.102853  0  1.068059  0  0  0.1072  0  1.063135  0  0  0.096313  0.099711  0  1.07168  0
H  H24  1  0.90702585  0.34459207  0.15308884  1  0  0.110455  0  0.95835  0  0  0.118251  0  1.022128  0  0  0.121632  0  1.020204  0  0  0.105998  0.115785  0  1.023739  0
H  H25  1  0.40702814  0.15540744  0.84690989  1  0  0.110462  0  0.958362  0  0  0.118245  0  1.022159  0  0  0.121627  0  1.020231  0  0  0.106004  0.115779  0  1.023771  0
H  H26  1  0.09297349  0.65540708  0.84691153  1  0  0.110464  0  0.958344  0  0  0.118249  0  1.022133  0  0  0.12163  0  1.020207  0  0  0.105996  0.115784  0  1.023746  0
H  H27  1  0.59297261  0.84459343  0.15309096  1  0  0.110455  0  0.958385  0  0  0.118246  0  1.022165  0  0  0.121628  0  1.02024  0  0  0.106006  0.115783  0  1.023785  0
H  H28  1  0.80806256  0.93268673  0.10693373  1  0  0.11429  0  0.968982  0  0  0.123798  0  1.032376  0  0  0.126973  0  1.030367  0  0  0.110581  0.121541  0  1.033827  0
H  H29  1  0.30806591  0.56731313  0.89306548  1  0  0.11427  0  0.969032  0  0  0.123771  0  1.032445  0  0  0.126946  0  1.030437  0  0  0.110578  0.12151  0  1.033898  0
H  H30  1  0.19193536  0.06731330  0.89306392  1  0  0.114291  0  0.968994  0  0  0.123795  0  1.032396  0  0  0.126969  0  1.030388  0  0  0.110579  0.121537  0  1.033844  0
H  H31  1  0.69193625  0.43268772  0.10693685  1  0  0.114272  0  0.969041  0  0  0.123759  0  1.032464  0  0  0.126934  0  1.030457  0  0  0.11057  0.121499  0  1.03391  0
C  C32  1  0.71403839  0.98637174  0.93442885  1  0  0.645589  0  3.897218  0  0  0.594308  0  4.177329  0  0  0.629686  0  4.175063  0  0  0.20584  0.570178  0  4.177884  0
C  C33  1  0.21403917  0.51362804  0.06557039  1  0  0.645601  0  3.897164  0  0  0.59426  0  4.17733  0  0  0.629637  0  4.175064  0  0  0.205799  0.570127  0  4.177886  0
C  C34  1  0.28596236  0.01362915  0.06556978  1  0  0.645578  0  3.89723  0  0  0.594269  0  4.177332  0  0  0.629645  0  4.175065  0  0  0.205806  0.570141  0  4.177883  0
C  C35  1  0.78596159  0.48637110  0.93443072  1  0  0.645516  0  3.89725  0  0  0.594189  0  4.177377  0  0  0.629564  0  4.175113  0  0  0.205809  0.570061  0  4.177921  0
C  C36  1  0.78108337  0.06722392  0.03587817  1  0  -0.037856  0  3.71079  0  0  -0.01427  0  3.94293  0  0  -0.02191  0  3.964676  0  0  -0.010168  -0.009469  0  3.928514  0
C  C37  1  0.28108480  0.43277632  0.96412233  1  0  -0.037905  0  3.710931  0  0  -0.014233  0  3.942941  0  0  -0.021873  0  3.964684  0  0  -0.010159  -0.009435  0  3.928523  0
C  C38  1  0.21891596  0.93277609  0.96412170  1  0  -0.037925  0  3.71096  0  0  -0.014218  0  3.942924  0  0  -0.021853  0  3.964661  0  0  -0.010179  -0.009423  0  3.928509  0
C  C39  1  0.71891595  0.56722540  0.03587802  1  0  -0.037809  0  3.710882  0  0  -0.014113  0  3.942829  0  0  -0.02175  0  3.964568  0  0  -0.010126  -0.009317  0  3.928416  0
C  C40  1  0.81047254  0.18368873  0.04945425  1  0  -0.040489  0  3.671099  0  0  -0.065304  0  3.918615  0  0  -0.063449  0  3.934611  0  0  -0.074369  -0.066448  0  3.907956  0
C  C41  1  0.31047366  0.31631156  0.95054402  1  0  -0.040586  0  3.671261  0  0  -0.06536  0  3.918691  0  0  -0.063507  0  3.934691  0  0  -0.074389  -0.066503  0  3.908032  0
C  C42  1  0.18952821  0.81631215  0.95054512  1  0  -0.040473  0  3.671162  0  0  -0.065321  0  3.918643  0  0  -0.063467  0  3.934639  0  0  -0.074363  -0.066464  0  3.907984  0
C  C43  1  0.68952709  0.68368931  0.04945609  1  0  -0.040657  0  3.671314  0  0  -0.065447  0  3.918749  0  0  -0.063595  0  3.934749  0  0  -0.074414  -0.066589  0  3.908091  0
C  C44  1  0.87604495  0.25511322  0.14419213  1  0  -0.064186  0  3.69499  0  0  -0.083623  0  3.946185  0  0  -0.085529  0  3.963686  0  0  -0.080229  -0.082529  0  3.934677  0
C  C45  1  0.37604748  0.24488627  0.85580587  1  0  -0.064172  0  3.695089  0  0  -0.083602  0  3.946283  0  0  -0.085507  0  3.963782  0  0  -0.080237  -0.082507  0  3.934778  0
C  C46  1  0.12395439  0.74488680  0.85580774  1  0  -0.064202  0  3.695006  0  0  -0.083629  0  3.946212  0  0  -0.085534  0  3.963713  0  0  -0.080228  -0.082532  0  3.934709  0
C  C47  1  0.62395327  0.75511461  0.14419350  1  0  -0.064165  0  3.695113  0  0  -0.083598  0  3.946317  0  0  -0.085505  0  3.963817  0  0  -0.080252  -0.082509  0  3.934825  0
C  C48  1  0.90240732  0.21410600  0.22981100  1  0  -0.055306  0  3.737848  0  0  -0.045474  0  3.978871  0  0  -0.047462  0  3.996134  0  0  -0.008336  -0.044185  0  3.967538  0
C  C49  1  0.40240875  0.28589349  0.77018773  1  0  -0.055279  0  3.737866  0  0  -0.045513  0  3.978958  0  0  -0.047504  0  3.996219  0  0  -0.008349  -0.044233  0  3.967636  0
C  C50  1  0.09759060  0.78589401  0.77018887  1  0  -0.055245  0  3.737785  0  0  -0.045407  0  3.978801  0  0  -0.0474  0  3.996064  0  0  -0.008317  -0.044127  0  3.96748  0
C  C51  1  0.59759059  0.71410738  0.22981238  1  0  -0.055319  0  3.737759  0  0  -0.045539  0  3.978868  0  0  -0.047526  0  3.996128  0  0  -0.008348  -0.044251  0  3.967547  0
C  C52  1  0.87455899  0.09678767  0.21545443  1  0  -0.152117  0  3.748221  0  0  -0.12877  0  3.996418  0  0  -0.135909  0  4.016892  0  0  -0.02181  -0.124291  0  3.982999  0
C  C53  1  0.37456214  0.40321181  0.78454357  1  0  -0.1522  0  3.748168  0  0  -0.128856  0  3.996437  0  0  -0.135997  0  4.016905  0  0  -0.0218  -0.124379  0  3.983022  0
C  C54  1  0.12543752  0.90321149  0.78454446  1  0  -0.152178  0  3.748129  0  0  -0.128872  0  3.996407  0  0  -0.136012  0  4.016877  0  0  -0.021825  -0.124394  0  3.982991  0
C  C55  1  0.62543862  0.59678820  0.21545704  1  0  -0.152069  0  3.748038  0  0  -0.128756  0  3.996334  0  0  -0.135893  0  4.016798  0  0  -0.021742  -0.12428  0  3.982919  0
C  C56  1  0.81945830  0.02409443  0.11883494  1  0  -0.065711  0  3.716596  0  0  -0.104142  0  3.970022  0  0  -0.101904  0  3.988124  0  0  -0.079964  -0.10552  0  3.958063  0
C  C57  1  0.31946145  0.47590585  0.88116480  1  0  -0.065634  0  3.7166  0  0  -0.104089  0  3.969997  0  0  -0.10185  0  3.988101  0  0  -0.079952  -0.105464  0  3.958034  0
C  C58  1  0.18053962  0.97590559  0.88116493  1  0  -0.065708  0  3.716611  0  0  -0.104161  0  3.969993  0  0  -0.101923  0  3.988096  0  0  -0.079961  -0.105533  0  3.958029  0
C  C59  1  0.68054072  0.52409587  0.11883629  1  0  -0.065715  0  3.716612  0  0  -0.104151  0  3.970001  0  0  -0.101912  0  3.988103  0  0  -0.079967  -0.105523  0  3.95803  0
C  C60  1  0.95481263  0.30038918  0.33124189  1  0  0.682881  0  3.847356  0  0  0.623951  0  4.133384  0  0  0.659879  0  4.128064  0  0  0.221269  0.599341  0  4.136176  0
C  C61  1  0.45481403  0.19961207  0.66875804  1  0  0.682818  0  3.847412  0  0  0.623922  0  4.133413  0  0  0.65986  0  4.128075  0  0  0.221246  0.59931  0  4.136206  0
C  C62  1  0.04518530  0.69961168  0.66875896  1  0  0.682871  0  3.847357  0  0  0.623952  0  4.13339  0  0  0.659888  0  4.128053  0  0  0.221296  0.59934  0  4.13619  0
C  C63  1  0.54518390  0.80038880  0.33124207  1  0  0.682848  0  3.847408  0  0  0.62395  0  4.13342  0  0  0.659878  0  4.128096  0  0  0.221258  0.599334  0  4.136217  0
S  S64  1  0.91282633  0.03495589  0.31804337  1  0  1.322279  0  5.589186  0  0  1.219516  0  6.091345  0  0  1.268993  0  6.071923  0  0  0.510094  1.185298  0  6.103639  0
S  S65  1  0.41282989  0.46504361  0.68195536  1  0  1.322388  0  5.588895  0  0  1.219621  0  6.091043  0  0  1.269101  0  6.071623  0  0  0.510114  1.185413  0  6.103321  0
S  S66  1  0.08717159  0.96504328  0.68195478  1  0  1.322382  0  5.588857  0  0  1.219629  0  6.091004  0  0  1.269106  0  6.071582  0  0  0.510117  1.185415  0  6.103293  0
S  S67  1  0.58717228  0.53495725  0.31804549  1  0  1.32239  0  5.588871  0  0  1.219654  0  6.091009  0  0  1.269131  0  6.071589  0  0  0.510137  1.185447  0  6.103286  0
O  O68  1  0.69720511  0.88222189  0.93169614  1  0  -0.638905  0  2.1379  0  0  -0.560062  0  2.408555  0  0  -0.594482  0  2.401379  0  0  -0.319632  -0.535815  0  2.41256  0
O  O69  1  0.19720759  0.61777702  0.06830287  1  0  -0.63891  0  2.137872  0  0  -0.560058  0  2.408557  0  0  -0.594477  0  2.401382  0  0  -0.319642  -0.535807  0  2.412553  0
O  O70  1  0.30279565  0.11777727  0.06830275  1  0  -0.638903  0  2.13794  0  0  -0.560059  0  2.408598  0  0  -0.594479  0  2.401423  0  0  -0.319623  -0.535808  0  2.412592  0
O  O71  1  0.80279316  0.38222299  0.93169774  1  0  -0.638891  0  2.137966  0  0  -0.560048  0  2.40864  0  0  -0.594467  0  2.401466  0  0  -0.319644  -0.535796  0  2.412632  0
O  O72  1  0.67828524  0.02774378  0.85979464  1  0  -0.622735  0  2.108584  0  0  -0.543059  0  2.38774  0  0  -0.577566  0  2.377957  0  0  -0.320402  -0.51882  0  2.393637  0
O  O73  1  0.17828435  0.47225553  0.14020417  1  0  -0.62273  0  2.108579  0  0  -0.543023  0  2.387707  0  0  -0.577531  0  2.377925  0  0  -0.320365  -0.518783  0  2.393602  0
O  O74  1  0.32171551  0.97225623  0.14020523  1  0  -0.622707  0  2.10852  0  0  -0.543046  0  2.387709  0  0  -0.577555  0  2.377928  0  0  -0.320378  -0.518808  0  2.393607  0
O  O75  1  0.82171358  0.52774363  0.85979546  1  0  -0.622687  0  2.108575  0  0  -0.543  0  2.387732  0  0  -0.577508  0  2.377951  0  0  -0.320376  -0.518764  0  2.39363  0
O  O76  1  0.10061130  0.36086716  0.32907446  1  0  -0.62672  0  2.202724  0  0  -0.539209  0  2.498317  0  0  -0.575008  0  2.484289  0  0  -0.310509  -0.514117  0  2.507185  0
O  O77  1  0.60061151  0.13913553  0.67092387  1  0  -0.626696  0  2.20274  0  0  -0.539184  0  2.4983  0  0  -0.574987  0  2.484266  0  0  -0.3105  -0.51409  0  2.507164  0
O  O78  1  0.89938804  0.63913372  0.67092492  1  0  -0.626736  0  2.202737  0  0  -0.53922  0  2.498316  0  0  -0.575023  0  2.484283  0  0  -0.310535  -0.514129  0  2.507189  0
O  O79  1  0.39938641  0.86086534  0.32907624  1  0  -0.626703  0  2.202713  0  0  -0.539206  0  2.498296  0  0  -0.575007  0  2.48427  0  0  -0.310521  -0.514112  0  2.507164  0
O  O80  1  0.84857292  0.31249191  0.41026374  1  0  -0.631552  0  2.11547  0  0  -0.544015  0  2.352133  0  0  -0.575776  0  2.340941  0  0  -0.299431  -0.521774  0  2.359036  0
O  O81  1  0.34857163  0.18750667  0.58973700  1  0  -0.631516  0  2.115443  0  0  -0.543968  0  2.352076  0  0  -0.575735  0  2.340879  0  0  -0.299432  -0.52173  0  2.358989  0
O  O82  1  0.15142642  0.68750809  0.58973761  1  0  -0.631522  0  2.115486  0  0  -0.544006  0  2.352164  0  0  -0.575772  0  2.340971  0  0  -0.299431  -0.521747  0  2.359031  0
O  O83  1  0.65142488  0.81249248  0.41026337  1  0  -0.631527  0  2.11546  0  0  -0.543983  0  2.352101  0  0  -0.575746  0  2.340909  0  0  -0.299438  -0.521748  0  2.359031  0
O  O84  1  0.73797929  0.05856283  0.38086216  1  0  -0.697094  0  2.120888  0  0  -0.62946  0  2.422117  0  0  -0.65594  0  2.402626  0  0  -0.34554  -0.610655  0  2.434843  0
O  O85  1  0.23798432  0.44143484  0.61913393  1  0  -0.697077  0  2.120744  0  0  -0.629461  0  2.422017  0  0  -0.655925  0  2.402481  0  0  -0.345531  -0.610657  0  2.434734  0
O  O86  1  0.26201864  0.94143377  0.61913527  1  0  -0.697099  0  2.120804  0  0  -0.629462  0  2.422024  0  0  -0.655931  0  2.402508  0  0  -0.34555  -0.610655  0  2.434739  0
O  O87  1  0.76201785  0.55856774  0.38086666  1  0  -0.697103  0  2.120775  0  0  -0.629493  0  2.422049  0  0  -0.655967  0  2.402538  0  0  -0.34557  -0.610689  0  2.434765  0
O  O88  1  0.07881989  0.09375182  0.37672700  1  0  -0.682473  0  2.088702  0  0  -0.612226  0  2.377631  0  0  -0.637578  0  2.358914  0  0  -0.342332  -0.594315  0  2.389997  0
O  O89  1  0.57882523  0.40624827  0.62327210  1  0  -0.682517  0  2.0887  0  0  -0.612242  0  2.377606  0  0  -0.637597  0  2.35889  0  0  -0.342331  -0.594338  0  2.389969  0
O  O90  1  0.92117662  0.90624735  0.62327115  1  0  -0.682537  0  2.088665  0  0  -0.612267  0  2.377563  0  0  -0.63762  0  2.358846  0  0  -0.342351  -0.594363  0  2.389931  0
O  O91  1  0.42117552  0.59375174  0.37672851  1  0  -0.682533  0  2.088654  0  0  -0.612277  0  2.377583  0  0  -0.637631  0  2.358866  0  0  -0.342349  -0.594371  0  2.389942  0
O  O92  1  0.94024287  0.91184692  0.26801418  1  0  -0.665176  0  2.122181  0  0  -0.592155  0  2.415514  0  0  -0.618818  0  2.400258  0  0  -0.341375  -0.573281  0  2.425478  0
O  O93  1  0.44024240  0.58815305  0.73198498  1  0  -0.665183  0  2.122059  0  0  -0.592168  0  2.415406  0  0  -0.618832  0  2.400149  0  0  -0.34139  -0.573298  0  2.425362  0
O  O94  1  0.05975788  0.08815141  0.73198299  1  0  -0.665182  0  2.122082  0  0  -0.592175  0  2.415438  0  0  -0.618838  0  2.400181  0  0  -0.341367  -0.573305  0  2.425402  0
O  O95  1  0.55975977  0.41184780  0.26801661  1  0  -0.66515  0  2.122079  0  0  -0.592162  0  2.415447  0  0  -0.618824  0  2.40019  0  0  -0.34137  -0.573294  0  2.425406  0
O  O96  1  0.52713782  0.74307291  0.58865379  1  0  -0.796027  0  1.964206  0  0  -0.72331  0  2.199492  0  0  -0.749877  0  2.166762  0  0  -0.579869  -0.704437  0  2.221242  0
O  O97  1  0.02713712  0.75692671  0.41134627  1  0  -0.796037  0  1.964214  0  0  -0.723316  0  2.199499  0  0  -0.749883  0  2.166769  0  0  -0.579873  -0.704444  0  2.221251  0
O  O98  1  0.47286152  0.25692709  0.41134682  1  0  -0.796031  0  1.964196  0  0  -0.723314  0  2.199486  0  0  -0.74988  0  2.166748  0  0  -0.579883  -0.704441  0  2.221231  0
O  O99  1  0.97286222  0.24307330  0.58865434  1  0  -0.796069  0  1.964201  0  0  -0.723341  0  2.199477  0  0  -0.74991  0  2.16674  0  0  -0.579874  -0.704466  0  2.221229  0
