# generated using pymatgen
data_CuSiH24C28(N2F3)2
_symmetry_space_group_name_H-M   'P 1'
_cell_length_a   8.01609500
_cell_length_b   13.72361088
_cell_length_c   13.72332434
_cell_angle_alpha   90.01349061
_cell_angle_beta   89.86125089
_cell_angle_gamma   89.86180362
_symmetry_Int_Tables_number   1
_chemical_formula_structural   CuSiH24C28(N2F3)2
_chemical_formula_sum   'Cu1 Si1 H24 C28 N4 F6'
_cell_volume   1509.69087095
_cell_formula_units_Z   1
loop_
 _symmetry_equiv_pos_site_id
 _symmetry_equiv_pos_as_xyz
  1  'x, y, z'
loop_
 _atom_site_type_symbol
 _atom_site_label
 _atom_site_symmetry_multiplicity
 _atom_site_fract_x
 _atom_site_fract_y
 _atom_site_fract_z
 _atom_site_occupancy
 _atom_site_pbe_bader_charge
 _atom_site_pbe_bader_spin_density
 _atom_site_pbe_cm5_charge
 _atom_site_pbe_ddec_charge
 _atom_site_pbe_ddec_spin_density
 _atom_site_pbe_ddec_sum_bond_order
 _atom_site_pbe_magmom
Cu  Cu0  1  0.50001463  0.50000622  0.49999267  1  1.079047  0.565657  0.77928  0.692116  0.729403  2.287264  0.563
Si  Si1  1  0.00001858  0.49999872  0.50000260  1  3.180999  -0.000203  0.246862  1.724129  -0.000358  3.94494  0.0
H  H2  1  0.24147002  0.65806025  0.49994294  1  0.187014  0.00222  0.120133  0.110371  0.001048  1.04301  0.002
H  H3  1  0.23750021  0.83979377  0.50002336  1  0.083789  0.001355  0.11252  0.120288  0.000701  0.995948  0.001
H  H4  1  0.76010868  0.65321052  0.49994849  1  0.180568  0.0024  0.119875  0.113338  0.001119  1.048558  0.002
H  H5  1  0.23989598  0.34678590  0.49988749  1  0.180093  0.002399  0.119841  0.113223  0.001119  1.048571  0.002
H  H6  1  0.75853661  0.34193546  0.50014736  1  0.187697  0.002216  0.120183  0.110456  0.001047  1.042774  0.002
H  H7  1  0.76250752  0.16020341  0.50013251  1  0.084464  0.001354  0.112542  0.120465  0.000701  0.995757  0.001
H  H8  1  0.24148243  0.49994264  0.65806530  1  0.187115  0.002218  0.120187  0.110479  0.001047  1.043007  0.002
H  H9  1  0.23751130  0.49994362  0.83979605  1  0.083879  0.001355  0.11254  0.120405  0.000701  0.995732  0.001
H  H10  1  0.76011329  0.50012454  0.65321257  1  0.179916  0.002399  0.119817  0.113264  0.001119  1.048643  0.002
H  H11  1  0.23991564  0.50003583  0.34678810  1  0.180641  0.002398  0.119877  0.113304  0.001119  1.048577  0.002
H  H12  1  0.75855576  0.49995978  0.34193752  1  0.18696  0.00222  0.120108  0.110409  0.001049  1.042739  0.002
H  H13  1  0.76253197  0.49991288  0.16020530  1  0.084151  0.001355  0.112517  0.120386  0.000701  0.995965  0.001
H  H14  1  0.89976572  0.82232173  0.56427477  1  0.055181  8.4e-05  0.103044  0.146228  3.3e-05  0.976162  0.0
H  H15  1  0.81947859  0.92532571  0.49979696  1  0.019819  0.000499  0.089429  0.123584  0.000259  1.021739  0.0
H  H16  1  0.90028171  0.82196149  0.43585567  1  0.054139  8.4e-05  0.103262  0.146677  3.3e-05  0.976339  0.0
H  H17  1  0.10004229  0.17762378  0.56439684  1  0.054413  8.4e-05  0.103323  0.146364  3.3e-05  0.975978  0.0
H  H18  1  0.18053305  0.07466848  0.49968487  1  0.019766  0.000499  0.089425  0.123652  0.000259  1.0215  0.0
H  H19  1  0.09992660  0.17808520  0.43597392  1  0.054796  8.4e-05  0.103087  0.146239  3.3e-05  0.976088  0.0
H  H20  1  0.89995640  0.43559143  0.82236107  1  0.054498  8.4e-05  0.103395  0.146578  3.3e-05  0.975912  0.0
H  H21  1  0.81948778  0.50029161  0.92532748  1  0.019758  0.000498  0.089386  0.123635  0.000259  1.021687  0.0
H  H22  1  0.90011179  0.56401165  0.82191856  1  0.055247  8.4e-05  0.103077  0.146343  3.3e-05  0.976043  0.0
H  H23  1  0.10024696  0.43573674  0.17766283  1  0.055272  8.4e-05  0.103097  0.146324  3.3e-05  0.976105  0.0
H  H24  1  0.18055787  0.50022653  0.07466812  1  0.019714  0.000499  0.089439  0.123637  0.000259  1.021549  0.0
H  H25  1  0.09976565  0.56415751  0.17804637  1  0.054216  8.4e-05  0.103268  0.146598  3.3e-05  0.976222  0.0
C  C26  1  0.35677101  0.69984913  0.49998063  1  0.382598  -0.000451  0.044911  0.080752  -0.000943  3.931795  0.0
C  C27  1  0.35589498  0.80070083  0.50000267  1  0.051456  0.006035  -0.07577  -0.161062  0.004129  3.935966  0.005
C  C28  1  0.50768911  0.85255776  0.50004363  1  0.084589  -0.003339  0.012833  0.099647  -0.003734  4.086757  -0.002
C  C29  1  0.65883436  0.79903754  0.50002593  1  0.006306  0.00634  0.011485  0.106183  0.004196  3.888829  0.005
C  C30  1  0.64708248  0.69741425  0.49996020  1  0.480461  -0.001242  0.051584  0.030401  -0.001562  3.860696  -0.001
C  C31  1  0.50467526  0.95560717  0.50007836  1  -0.060599  -0.001018  -0.030689  -0.088088  -0.00114  4.10505  0.0
C  C32  1  0.49533373  0.04438782  0.50007096  1  -0.294159  -0.001064  -0.030658  -0.088276  -0.001143  4.105101  0.0
C  C33  1  0.49231126  0.14744234  0.50004958  1  0.084694  -0.003338  0.012618  0.099644  -0.003733  4.086848  -0.002
C  C34  1  0.34116500  0.20096036  0.49995871  1  0.006173  0.006337  0.011471  0.105933  0.004194  3.888849  0.005
C  C35  1  0.35293072  0.30258217  0.49996541  1  0.481235  -0.001247  0.051634  0.03086  -0.001562  3.860248  -0.001
C  C36  1  0.64324693  0.30013783  0.50007395  1  0.380649  -0.000448  0.044922  0.080923  -0.000941  3.9317  0.0
C  C37  1  0.64411162  0.19929562  0.50010074  1  0.050641  0.006029  -0.075731  -0.161316  0.004125  3.936289  0.005
C  C38  1  0.35677183  0.49999013  0.69985619  1  0.381274  -0.000449  0.044743  0.080611  -0.000941  3.932334  0.0
C  C39  1  0.35590633  0.49995678  0.80069978  1  0.052299  0.006029  -0.075739  -0.161268  0.004125  3.936077  0.005
C  C40  1  0.50771006  0.49997703  0.85255590  1  0.083589  -0.003339  0.012798  0.099719  -0.003734  4.086596  -0.002
C  C41  1  0.65885807  0.50004865  0.79902831  1  0.006553  0.006335  0.011516  0.105997  0.004193  3.888621  0.005
C  C42  1  0.64708815  0.50005577  0.69740952  1  0.481519  -0.001245  0.051486  0.030639  -0.001561  3.860746  -0.001
C  C43  1  0.50467679  0.49994108  0.95561112  1  -0.061028  -0.00102  -0.030694  -0.088232  -0.001143  4.105585  0.0
C  C44  1  0.49536522  0.49992708  0.04438659  1  -0.293768  -0.001062  -0.030547  -0.087947  -0.001141  4.10531  0.0
C  C45  1  0.49233684  0.49994287  0.14744181  1  0.084647  -0.003341  0.012734  0.099673  -0.003736  4.086188  -0.002
C  C46  1  0.34118489  0.49996452  0.20096723  1  0.005738  0.006338  0.011337  0.106061  0.004194  3.888607  0.005
C  C47  1  0.35293846  0.50001935  0.30258531  1  0.480328  -0.001245  0.051568  0.03049  -0.001562  3.860585  -0.001
C  C48  1  0.64325752  0.49995746  0.30014883  1  0.382328  -0.00045  0.04492  0.080978  -0.000943  3.932475  0.0
C  C49  1  0.64413934  0.49994417  0.19930667  1  0.051463  0.006034  -0.075744  -0.161449  0.004128  3.936767  0.005
C  C50  1  0.82823430  0.84558543  0.49999925  1  -0.018787  0.000956  -0.230814  -0.409112  0.000717  3.961667  0.001
C  C51  1  0.17179003  0.15440807  0.49997444  1  -0.018597  0.000955  -0.230873  -0.408765  0.000716  3.961081  0.001
C  C52  1  0.82824392  0.50001007  0.84558473  1  -0.01936  0.000956  -0.230903  -0.40911  0.000716  3.960991  0.001
C  C53  1  0.17179403  0.50001184  0.15441373  1  -0.018455  0.000956  -0.230771  -0.409103  0.000717  3.961246  0.001
N  N54  1  0.50134751  0.64906238  0.49996859  1  -1.203249  0.095436  -0.335155  -0.209606  0.063655  3.599488  0.084
N  N55  1  0.49866683  0.35093550  0.50001021  1  -1.202177  0.095396  -0.334991  -0.209823  0.063627  3.598965  0.084
N  N56  1  0.50134616  0.50002951  0.64906142  1  -1.202628  0.095392  -0.334948  -0.209532  0.063625  3.599124  0.084
N  N57  1  0.49868682  0.49998439  0.35093777  1  -1.203236  0.095437  -0.33507  -0.209638  0.063656  3.599422  0.084
F  F58  1  0.21560042  0.50203572  0.50203758  1  -0.834105  -0.001712  -0.200371  -0.530088  -0.001854  1.353485  -0.001
F  F59  1  0.78442759  0.49796143  0.49796598  1  -0.834099  -0.001713  -0.200406  -0.530139  -0.001854  1.353394  -0.001
F  F60  1  0.00001556  0.58828214  0.41172462  1  -0.834151  0.000185  -0.253304  -0.54879  0.000173  1.064282  0.0
F  F61  1  0.00001163  0.41171894  0.58827986  1  -0.834143  0.000184  -0.253248  -0.548733  0.000173  1.064245  0.0
F  F62  1  0.99493327  0.58828884  0.58829104  1  -0.83453  0.00019  -0.252818  -0.548465  0.000176  1.065093  0.0
F  F63  1  0.00508850  0.41171196  0.41170889  1  -0.834619  0.00019  -0.252834  -0.548463  0.000176  1.064993  0.0
