# generated using pymatgen
data_Zn4H47C72N20Cl
_symmetry_space_group_name_H-M   'P 1'
_cell_length_a   19.37414890
_cell_length_b   19.95497752
_cell_length_c   21.21873411
_cell_angle_alpha   114.62614956
_cell_angle_beta   94.85299289
_cell_angle_gamma   114.85385769
_symmetry_Int_Tables_number   1
_chemical_formula_structural   Zn4H47C72N20Cl
_chemical_formula_sum   'Zn4 H47 C72 N20 Cl1'
_cell_volume   6422.35703845
_cell_formula_units_Z   1
loop_
 _symmetry_equiv_pos_site_id
 _symmetry_equiv_pos_as_xyz
  1  'x, y, z'
loop_
 _atom_site_type_symbol
 _atom_site_label
 _atom_site_symmetry_multiplicity
 _atom_site_fract_x
 _atom_site_fract_y
 _atom_site_fract_z
 _atom_site_occupancy
 _atom_site_pbe_bader_charge
 _atom_site_pbe_bader_spin_density
 _atom_site_pbe_cm5_charge
 _atom_site_pbe_ddec_charge
 _atom_site_pbe_ddec_spin_density
 _atom_site_pbe_ddec_sum_bond_order
 _atom_site_pbe_magmom
Zn  Zn0  1  0.12195729  0.12574854  0.52021293  1  1.197155  0  0.748047  0.630767  0  2.404781  0
Zn  Zn1  1  0.90213466  0.88387473  0.51122324  1  1.18905  0  0.749188  0.650263  0  2.319993  0
Zn  Zn2  1  0.01992233  0.90379328  0.40456208  1  1.182483  0  0.757741  0.661137  0  2.324782  0
Zn  Zn3  1  0.00352489  0.10857494  0.62723986  1  1.202497  0  0.753539  0.657146  0  2.313153  0
H  H4  1  0.17175022  0.16005661  0.37840627  1  0.097815  0  0.117751  0.103779  0  0.998176  0
H  H5  1  0.90503176  0.72437222  0.53155169  1  0.082431  0  0.119353  0.108301  0  0.989222  0
H  H6  1  0.19369126  0.89462988  0.40268123  1  0.096319  0  0.120514  0.108171  0  0.987382  0
H  H7  1  0.02904817  0.10327137  0.78803509  1  0.093477  0  0.120779  0.108206  0  0.987391  0
H  H8  1  0.02571394  0.88009553  0.62430558  1  0.09456  0  0.112893  0.102085  0  1.056705  0
H  H9  1  0.23580211  0.09581839  0.61585212  1  0.122286  0  0.114416  0.104141  0  1.054013  0
H  H10  1  0.15144147  0.15049914  0.75234599  1  0.094001  0  0.109139  0.090591  0  1.069798  0
H  H11  1  0.11157389  0.82125424  0.46283324  1  0.101595  0  0.110287  0.095237  0  1.052671  0
H  H12  1  0.98724049  0.51520209  0.62441702  1  0.049981  0  0.098422  0.09565  0  1.012654  0
H  H13  1  0.97069835  0.38746374  0.62660400  1  0.041039  0  0.097685  0.096631  0  1.004916  0
H  H14  1  0.15974795  0.39658819  0.53114096  1  0.045618  0  0.096402  0.09483  0  1.006358  0
H  H15  1  0.72101926  0.85197445  0.52896408  1  0.036464  0  0.116713  0.101645  0  1.001536  0
H  H16  1  0.17663764  0.52488137  0.52914990  1  0.05248  0  0.098752  0.096503  0  1.005016  0
H  H17  1  0.11631408  0.56481837  0.46684703  1  0.060306  0  0.099225  0.096924  0  1.009915  0
H  H18  1  0.08963299  0.65964460  0.43613570  1  0.040527  0  0.098155  0.098685  0  0.999283  0
H  H19  1  0.02225248  0.74602881  0.63026899  1  0.038694  0  0.093161  0.088015  0  1.03565  0
H  H20  1  0.05050578  0.65272342  0.66200032  1  0.03236  0  0.10068  0.100286  0  1.002321  0
H  H21  1  0.49505583  0.87066135  0.58081920  1  0.066681  0  0.10017  0.09908  0  1.001934  0
H  H22  1  0.61999685  0.86928969  0.57155349  1  0.041179  0  0.096652  0.094895  0  1.009302  0
H  H23  1  0.72469769  0.11850772  0.59224538  1  0.051396  0  0.098796  0.099606  0  1.001452  0
H  H24  1  0.59995745  0.12007087  0.60261045  1  0.034409  0  0.098761  0.096749  0  1.008987  0
H  H25  1  0.50594525  0.12341023  0.66771725  1  0.046036  0  0.100379  0.099914  0  1.001892  0
H  H26  1  0.88286023  0.74172608  0.24187485  1  0.084237  0  0.118688  0.104055  0  1.000283  0
H  H27  1  0.38011122  0.12318165  0.63706639  1  0.041937  0  0.097019  0.096949  0  1.015339  0
H  H28  1  0.26533222  0.85728186  0.47339004  1  0.045789  0  0.096164  0.093268  0  1.011576  0
H  H29  1  0.39176008  0.85845615  0.50234396  1  0.057667  0  0.099315  0.097607  0  1.007829  0
H  H30  1  0.78472983  0.60781514  0.16475351  1  0.03578  0  0.099188  0.097524  0  1.005885  0
H  H31  1  0.67149088  0.48062959  0.05668056  1  0.095425  0  0.104387  0.105798  0  1.013009  0
H  H32  1  0.53353156  0.36672207  0.85326449  1  0.081794  0  0.104778  0.106461  0  0.997277  0
H  H33  1  0.41881857  0.29293769  0.74082320  1  0.049948  0  0.098082  0.098106  0  1.003978  0
H  H34  1  0.61781974  0.65638459  0.27241209  1  0.046343  0  0.099599  0.101504  0  0.998297  0
H  H35  1  0.36992134  0.31420535  0.97332206  1  0.105272  0  0.104296  0.105915  0  1.010733  0
H  H36  1  0.50484722  0.52540818  0.16466272  1  0.081641  0  0.104779  0.107066  0  0.997322  0
H  H37  1  0.00528356  0.29765990  0.66816684  1  0.079266  0  0.118804  0.107066  0  0.994985  0
H  H38  1  0.25489733  0.23973324  0.86195417  1  0.046456  0  0.096938  0.095358  0  1.014276  0
H  H39  1  0.14811876  0.11230908  0.86457920  1  0.026887  0  0.096806  0.09356  0  1.016605  0
H  H40  1  0.17551706  0.09701810  0.97322588  1  0.105764  0  0.10648  0.108252  0  1.010564  0
H  H41  1  0.24760251  0.10460946  0.16791351  1  0.096077  0  0.108339  0.115346  0  0.987963  0
H  H42  1  0.21285012  0.10968101  0.27911816  1  0.05341  0  0.101534  0.102333  0  1.00291  0
H  H43  1  0.00350502  0.83878309  0.72998354  1  0.065184  0  0.098332  0.098812  0  1.011868  0
H  H44  1  0.00251364  0.91396813  0.03762584  1  0.104071  0  0.107297  0.123366  0  1.012383  0
H  H45  1  0.03150810  0.82454926  0.83932923  1  0.096606  0  0.106827  0.109981  0  0.991191  0
H  H46  1  0.73538207  0.77134541  0.38225101  1  0.094754  0  0.114967  0.100638  0  1.009963  0
H  H47  1  0.07981138  0.23414629  0.47460794  1  0.086603  0  0.116339  0.106318  0  1.005315  0
H  H48  1  0.84931733  0.12027242  0.59537537  1  0.05271  0  0.114526  0.101801  0  1.012997  0
H  H49  1  0.96299677  0.90664339  0.26927402  1  0.110782  0  0.104754  0.095017  0  1.055033  0
H  H50  1  0.30907963  0.27634785  0.65572613  1  0.082037  0  0.120353  0.110032  0  0.989747  0
C  C51  1  0.12062457  0.09861904  0.36281142  1  0.388161  0  0.010495  -0.046264  0  3.976095  0
C  C52  1  0.75371909  0.98868331  0.56793265  1  0.031896  0  -0.036416  -0.039996  0  4.084553  0
C  C53  1  0.77818444  0.72172108  0.28618862  1  0.062398  0  -0.035569  -0.042589  0  4.07884  0
C  C54  1  0.04887575  0.30095659  0.57345148  1  0.025523  0  -0.036644  -0.039762  0  4.086372  0
C  C55  1  0.25965153  0.24074420  0.67030622  1  0.407949  0  0.009654  -0.05084  0  3.987136  0
C  C56  1  0.95072000  0.75539722  0.51120318  1  0.380529  0  0.005848  -0.058501  0  4.011075  0
C  C57  1  0.19269939  0.94398084  0.45027321  1  0.373166  0  0.009533  -0.046221  0  3.999747  0
C  C58  1  0.02351396  0.05066734  0.73867480  1  0.367828  0  0.010524  -0.044621  0  4.00031  0
C  C59  1  0.02049730  0.93594967  0.65486754  1  0.390955  0  0.008387  -0.032714  0  3.951403  0
C  C60  1  0.21438381  0.04732204  0.55875636  1  0.37968  0  0.009661  -0.028894  0  3.938875  0
C  C61  1  0.17879229  0.17693037  0.71960979  1  0.39336  0  0.005749  -0.039085  0  3.973213  0
C  C62  1  0.76384939  0.91731287  0.54487918  1  0.422603  0  0.008219  -0.048008  0  3.982167  0
C  C63  1  0.05563179  0.80425099  0.47535530  1  0.410427  0  0.004912  -0.043454  0  3.972574  0
C  C64  1  0.26051812  0.22912381  0.73137648  1  -0.002552  0  -0.037328  -0.050049  0  4.082829  0
C  C65  1  0.02136280  0.75274726  0.50602346  1  -0.000912  0  -0.03566  -0.041431  0  4.08584  0
C  C66  1  0.24387930  0.99339939  0.52273596  1  0.038034  0  -0.033957  -0.039829  0  4.07216  0
C  C67  1  0.04216929  0.98731810  0.73097141  1  0.05012  0  -0.036678  -0.05037  0  4.08372  0
C  C68  1  0.02645016  0.49046829  0.60498204  1  -0.058276  0  -0.093689  -0.125856  0  4.006277  0
C  C69  1  0.01679046  0.41785751  0.60592914  1  -0.048051  0  -0.097785  -0.1375  0  4.011798  0
C  C70  1  0.06227813  0.38040944  0.57697779  1  0.008649  0  -0.010576  0.087094  0  4.047939  0
C  C71  1  0.12082116  0.42176494  0.55067615  1  -0.052503  0  -0.096129  -0.132564  0  4.000534  0
C  C72  1  0.13042351  0.49444144  0.54971807  1  -0.015693  0  -0.094501  -0.130293  0  4.009278  0
C  C73  1  0.85789726  0.75964943  0.28592497  1  0.37828  0  0.011379  -0.045106  0  3.973139  0
C  C74  1  0.08191628  0.52928428  0.57509167  1  -0.005575  0  -0.013038  0.059846  0  4.014041  0
C  C75  1  0.09683507  0.60540537  0.50374885  1  -0.071288  0  -0.093906  -0.128516  0  3.997176  0
C  C76  1  0.08143577  0.65869406  0.48608483  1  -0.035461  0  -0.095589  -0.133184  0  4.002226  0
C  C77  1  0.04969294  0.70642299  0.52876667  1  0.030993  0  -0.011139  0.086085  0  4.046665  0
C  C78  1  0.04155742  0.70504648  0.59355503  1  -0.058187  0  -0.097799  -0.136536  0  4.009329  0
C  C79  1  0.05752143  0.65236667  0.61141397  1  0.000496  0  -0.094339  -0.128981  0  4.007215  0
C  C80  1  0.08163703  0.59799547  0.56492730  1  -0.024344  0  -0.011092  0.063787  0  4.008926  0
C  C81  1  0.54513905  0.92505259  0.58279101  1  -0.075208  0  -0.09556  -0.131645  0  4.015677  0
C  C82  1  0.61584679  0.92429843  0.57734668  1  -0.058344  0  -0.098318  -0.136542  0  4.006755  0
C  C83  1  0.68175536  0.99268688  0.57889648  1  0.017379  0  -0.012898  0.081283  0  4.056472  0
C  C84  1  0.02184518  0.26971815  0.62028627  1  0.391326  0  0.008317  -0.050757  0  3.978802  0
C  C85  1  0.67499708  0.06411157  0.59056685  1  -0.027622  0  -0.097835  -0.134912  0  4.001295  0
C  C86  1  0.60458123  0.06529583  0.59683772  1  -0.042936  0  -0.094393  -0.128974  0  4.007962  0
C  C87  1  0.53719716  0.99486138  0.59094143  1  -0.000995  0  -0.013427  0.060633  0  4.018456  0
C  C88  1  0.45347962  0.06505544  0.62426427  1  -0.019963  0  -0.093697  -0.131819  0  4.006383  0
C  C89  1  0.38232493  0.06477228  0.60733371  1  -0.056979  0  -0.093826  -0.128194  0  3.991178  0
C  C90  1  0.31432821  0.99131815  0.55015194  1  0.038205  0  -0.012381  0.083085  0  4.049753  0
C  C91  1  0.31827622  0.91623725  0.51570313  1  -0.049513  0  -0.09738  -0.135707  0  4.011946  0
C  C92  1  0.38927965  0.91651849  0.53275642  1  -0.09311  0  -0.094343  -0.128171  0  4.00753  0
C  C93  1  0.45947258  0.99197565  0.58501488  1  0.012425  0  -0.011527  0.063018  0  4.015286  0
C  C94  1  0.32824406  0.26417904  0.79381191  1  0.007107  0  -0.006112  0.093109  0  4.032314  0
C  C95  1  0.78274267  0.77560307  0.35740215  1  0.363793  0  0.006909  -0.045583  0  3.966192  0
C  C96  1  0.31594763  0.26757031  0.85959282  1  -0.016971  0  -0.092222  -0.122945  0  3.980147  0
C  C97  1  0.37967078  0.30879707  0.92200781  1  -0.066824  0  -0.085051  -0.134164  0  3.970022  0
C  C98  1  0.45877257  0.34790872  0.92043686  1  0.344299  0  0.080915  0.165917  0  4.058535  0
C  C99  1  0.47181088  0.33819143  0.85379861  1  -0.005435  0  -0.084197  -0.135929  0  3.97772  0
C  C100  1  0.40750800  0.29759938  0.79160699  1  -0.051625  0  -0.097202  -0.137869  0  3.999251  0
C  C101  1  0.66062189  0.51938052  0.10437493  1  -0.008846  0  -0.086169  -0.134322  0  3.973611  0
C  C102  1  0.72339829  0.59117946  0.16466896  1  -0.026695  0  -0.093293  -0.126959  0  3.985611  0
C  C103  1  0.58103790  0.49656890  0.10362011  1  0.304173  0  0.079673  0.164011  0  4.063805  0
C  C104  1  0.71007616  0.64377456  0.22591621  1  -0.015286  0  -0.003178  0.096635  0  4.031149  0
C  C105  1  0.63031943  0.61781362  0.22585180  1  -0.015832  0  -0.097156  -0.135777  0  3.993685  0
C  C106  1  0.06113539  0.23789872  0.52226566  1  0.388671  0  0.003257  -0.053713  0  3.972874  0
C  C107  1  0.56690625  0.54484359  0.16599203  1  -0.016481  0  -0.085141  -0.13933  0  3.984107  0
C  C108  1  0.08691105  0.01872148  0.22394183  1  -0.046015  0  -0.007881  0.034011  0  4.001375  0
C  C109  1  0.02885014  0.96253081  0.15371350  1  0.053228  0  0.012933  0.113133  0  4.009304  0
C  C110  1  0.04847305  0.95631604  0.09088116  1  0.021883  0  -0.094257  -0.213214  0  3.952119  0
C  C111  1  0.12740106  0.00793877  0.09549329  1  0.3237  0  0.081799  0.176621  0  4.081772  0
C  C112  1  0.18638989  0.06456759  0.16433994  1  -0.046849  0  -0.087974  -0.148894  0  3.993992  0
C  C113  1  0.16614084  0.06790262  0.22620410  1  0.05085  0  -0.093757  -0.120397  0  4.001985  0
C  C114  1  0.13890998  0.04119067  0.91937982  1  -0.01987  0  -0.083894  -0.130325  0  3.960594  0
C  C115  1  0.12258913  0.04900007  0.85881647  1  0.012901  0  -0.091899  -0.126582  0  3.99292  0
C  C116  1  0.10340100  0.95987776  0.91293069  1  0.31252  0  0.081565  0.161155  0  4.058878  0
C  C117  1  0.82909817  0.05382633  0.57812350  1  0.440059  0  0.004463  -0.048789  0  3.970402  0
C  C118  1  0.07107113  0.97673728  0.79004987  1  0.000872  0  -0.002529  0.097963  0  4.022786  0
C  C119  1  0.04267059  0.89546704  0.78283292  1  -0.101379  0  -0.093134  -0.130402  0  3.985625  0
C  C120  1  0.05790252  0.88706957  0.84350961  1  -0.006953  0  -0.081615  -0.134359  0  3.973639  0
C  C121  1  0.01341701  0.96970732  0.30707987  1  0.402286  0  -0.000614  -0.05075  0  3.985484  0
C  C122  1  0.07155763  0.02835743  0.29246421  1  0.056869  0  -0.041199  -0.037339  0  4.076974  0
N  N123  1  0.09424344  0.08134847  0.41366206  1  -0.807422  0  -0.279948  -0.161513  0  3.634549  0
N  N124  1  0.94414364  0.80466610  0.48566755  1  -0.799617  0  -0.291305  -0.185057  0  3.616379  0
N  N125  1  0.13808612  0.96757491  0.44374939  1  -0.792555  0  -0.29822  -0.198344  0  3.587957  0
N  N126  1  0.99262503  0.03700818  0.67246452  1  -0.789575  0  -0.290325  -0.186836  0  3.60027  0
N  N127  1  0.99085858  0.96589851  0.61995478  1  -0.786221  0  -0.268957  -0.217235  0  3.482  0
N  N128  1  0.15129178  0.03204044  0.51133967  1  -0.811824  0  -0.280788  -0.221648  0  3.531406  0
N  N129  1  0.13323381  0.15902460  0.65713526  1  -0.806336  0  -0.26836  -0.209352  0  3.497523  0
N  N130  1  0.00958419  0.83598626  0.46410806  1  -0.77875  0  -0.26532  -0.200872  0  3.491792  0
N  N131  1  0.52751383  0.40363787  0.98246116  1  -0.511543  0  -0.162091  -0.154226  0  3.295691  0
N  N132  1  0.51268956  0.43223548  0.04241179  1  -0.490233  0  -0.163016  -0.155659  0  3.303383  0
N  N133  1  0.14727266  0.01253396  0.03477780  1  -0.47448  0  -0.156466  -0.142103  0  3.291349  0
N  N134  1  0.83923274  0.93951248  0.54331479  1  -0.800314  0  -0.285606  -0.168431  0  3.652637  0
N  N135  1  0.09967741  0.94745370  0.97330414  1  -0.512129  0  -0.156766  -0.144262  0  3.303916  0
N  N136  1  0.90477711  0.82871194  0.35156548  1  -0.783556  0  -0.283101  -0.164805  0  3.649309  0
N  N137  1  0.02002495  0.19514672  0.59874415  1  -0.801376  0  -0.283013  -0.172939  0  3.63702  0
N  N138  1  0.85913115  0.83930112  0.39645596  1  -0.771643  0  -0.267305  -0.202984  0  3.481016  0
N  N139  1  0.04389387  0.17467348  0.53792281  1  -0.769783  0  -0.277018  -0.202078  0  3.518574  0
N  N140  1  0.88015207  0.02389573  0.56358108  1  -0.776018  0  -0.271465  -0.20792  0  3.508761  0
N  N141  1  0.02818648  0.00134671  0.37978057  1  -0.775324  0  -0.277076  -0.218157  0  3.469256  0
N  N142  1  0.18361330  0.19923220  0.62681665  1  -0.787919  0  -0.286337  -0.183089  0  3.573722  0
Cl  Cl143  1  0.92826402  0.90057456  0.14247624  1  -0.231683  0  -0.022009  -0.095723  0  1.455022  0
