# generated using pymatgen
data_MnH28C24(N2O)4
_symmetry_space_group_name_H-M   'P 1'
_cell_length_a   8.48456719
_cell_length_b   9.19729082
_cell_length_c   9.55775146
_cell_angle_alpha   71.78691338
_cell_angle_beta   64.79159613
_cell_angle_gamma   79.56016958
_symmetry_Int_Tables_number   1
_chemical_formula_structural   MnH28C24(N2O)4
_chemical_formula_sum   'Mn1 H28 C24 N8 O4'
_cell_volume   639.99765385
_cell_formula_units_Z   1
loop_
 _symmetry_equiv_pos_site_id
 _symmetry_equiv_pos_as_xyz
  1  'x, y, z'
loop_
 _atom_site_type_symbol
 _atom_site_label
 _atom_site_symmetry_multiplicity
 _atom_site_fract_x
 _atom_site_fract_y
 _atom_site_fract_z
 _atom_site_occupancy
 _atom_site_hle17_ddec_charge
 _atom_site_hle17_ddec_spin_density
 _atom_site_hle17_ddec_sum_bond_order
 _atom_site_hle17_magmom
 _atom_site_hse06_10hf_ddec_charge
 _atom_site_hse06_10hf_ddec_spin_density
 _atom_site_hse06_10hf_ddec_sum_bond_order
 _atom_site_hse06_10hf_magmom
 _atom_site_hse06_ddec_charge
 _atom_site_hse06_ddec_spin_density
 _atom_site_hse06_ddec_sum_bond_order
 _atom_site_hse06_magmom
 _atom_site_pbe_cm5_charge
 _atom_site_pbe_ddec_charge
 _atom_site_pbe_ddec_spin_density
 _atom_site_pbe_ddec_sum_bond_order
 _atom_site_pbe_magmom
Mn  Mn0  1  0.99999898  0.00000079  0.00000281  1  0.631128  1.159462  2.840178  1.126  0.507075  1.093331  3.410683  1.05  0.544567  1.043708  3.3536  0.995  0.651564  0.488897  1.141005  3.438967  1.098
H  H1  1  0.60627989  0.94023602  0.10097529  1  0.29917  -0.000177  0.917077  0.0  0.273023  -0.000116  0.988752  0.0  0.281373  -3.2e-05  0.981537  0.0  0.324967  0.266889  -0.000221  0.994624  0.0
H  H2  1  0.39372276  0.05976581  0.89902242  1  0.299115  -0.000177  0.917181  0.0  0.273038  -0.000116  0.988771  0.0  0.28139  -3.3e-05  0.981553  0.0  0.324964  0.266901  -0.000221  0.994646  0.0
H  H3  1  0.91125723  0.79124845  0.36048552  1  0.102757  -0.000206  0.95623  0.0  0.111081  -0.000217  1.023293  0.0  0.113484  -0.000165  1.020875  0.0  0.118845  0.109151  -0.00026  1.025532  0.0
H  H4  1  0.08873777  0.20875104  0.63951682  1  0.102712  -0.000207  0.956222  0.0  0.111042  -0.000218  1.023281  0.0  0.113445  -0.000165  1.020862  0.0  0.118821  0.109109  -0.000259  1.02552  0.0
H  H5  1  0.39891508  0.78350790  0.36690842  1  0.107627  -0.000311  0.964787  0.0  0.118781  -0.000144  1.028879  0.0  0.121039  -7e-05  1.026907  0.0  0.120547  0.117541  -0.000173  1.029394  0.0
H  H6  1  0.60108196  0.21649963  0.63308968  1  0.107661  -0.000311  0.964734  0.0  0.118808  -0.000144  1.028834  0.0  0.12105  -7e-05  1.026883  0.0  0.120539  0.117567  -0.000173  1.029349  0.0
H  H7  1  0.67722781  0.62184474  0.64813893  1  0.104111  -2.2e-05  0.961074  0.0  0.124793  -6.9e-05  1.023572  0.0  0.124835  -2.9e-05  1.025874  0.0  0.088601  0.124861  -9e-05  1.021805  0.0
H  H8  1  0.32276548  0.37816048  0.35186337  1  0.104054  -2.2e-05  0.961113  0.0  0.124755  -6.9e-05  1.023599  0.0  0.124796  -2.9e-05  1.025901  0.0  0.088588  0.124821  -9e-05  1.021833  0.0
H  H9  1  0.51489215  0.54574463  0.62539495  1  0.099932  6e-06  0.956392  0.0  0.118645  -4.2e-05  1.023363  0.0  0.11903  -3e-05  1.024639  0.0  0.087099  0.118522  -7.4e-05  1.0221  0.0
H  H10  1  0.48510123  0.45425944  0.37460453  1  0.099921  6e-06  0.956338  0.0  0.118633  -4.2e-05  1.023316  0.0  0.119018  -3.1e-05  1.024593  0.0  0.087096  0.11851  -7.4e-05  1.022052  0.0
H  H11  1  0.46822991  0.71600781  0.68801553  1  0.104481  -3.2e-05  0.958344  0.0  0.124148  -2.2e-05  1.020796  0.0  0.124517  -1.5e-05  1.021952  0.0  0.088288  0.123812  -9.4e-05  1.020195  0.0
H  H12  1  0.53176217  0.28399625  0.31198339  1  0.10447  -3.1e-05  0.958322  0.0  0.124128  -2.2e-05  1.020788  0.0  0.124498  -1.5e-05  1.021946  0.0  0.088269  0.123792  -9.4e-05  1.020186  0.0
H  H13  1  0.76313080  0.02126415  0.81795433  1  0.285351  -0.000198  0.977023  0.0  0.261855  -0.000132  1.043564  0.0  0.271158  -8.7e-05  1.036145  0.0  0.313377  0.255155  -0.000171  1.049369  0.0
H  H14  1  0.23687087  0.97873308  0.18204514  1  0.285451  -0.000197  0.976876  0.0  0.261901  -0.000132  1.043503  0.0  0.271207  -8.7e-05  1.036072  0.0  0.313368  0.255194  -0.00017  1.04931  0.0
H  H15  1  0.17737821  0.71828268  0.82670632  1  0.102461  -2e-06  0.985895  0.0  0.109775  -0.000155  1.053669  0.0  0.111992  -0.000133  1.051138  0.0  0.116426  0.108293  -0.000161  1.055467  0.0
H  H16  1  0.82262189  0.28171800  0.17330002  1  0.102489  -2e-06  0.985946  0.0  0.109802  -0.000154  1.053716  0.0  0.11202  -0.000133  1.051183  0.0  0.116432  0.10832  -0.000161  1.055515  0.0
H  H17  1  0.80491407  0.88350244  0.60365193  1  0.107189  6.4e-05  0.95189  0.0  0.120616  -3.4e-05  1.012197  0.0  0.122652  6e-06  1.010695  0.0  0.121607  0.11878  -0.000148  1.013583  0.0
H  H18  1  0.19509541  0.11649483  0.39634564  1  0.107217  6.4e-05  0.951868  0.0  0.120654  -3.4e-05  1.012141  0.0  0.12269  6e-06  1.010641  0.0  0.121638  0.118818  -0.000148  1.013527  0.0
H  H19  1  0.20248560  0.55950768  0.61585363  1  0.110877  1.5e-05  0.949862  0.0  0.134753  -2.6e-05  1.004987  0.0  0.135512  -2.4e-05  1.006166  0.0  0.094302  0.134196  -2.6e-05  1.004113  0.0
H  H20  1  0.79751742  0.44048843  0.38415405  1  0.110896  1.4e-05  0.949871  0.0  0.134784  -2.6e-05  1.004983  0.0  0.135563  -2.4e-05  1.00614  0.0  0.09432  0.134226  -2.6e-05  1.004109  0.0
H  H21  1  0.13470078  0.67083652  0.46032070  1  0.098711  -0.00014  0.952024  0.0  0.118188  -0.000135  1.016343  0.0  0.119187  -8.9e-05  1.015997  0.0  0.087716  0.117611  -9.5e-05  1.01631  0.0
H  H22  1  0.86530616  0.32915961  0.53968341  1  0.098794  -0.000141  0.951935  0.0  0.118242  -0.000135  1.016284  0.0  0.119241  -9e-05  1.015939  0.0  0.087724  0.117665  -9.5e-05  1.016248  0.0
H  H23  1  0.99187735  0.54294501  0.63013037  1  0.105084  0.000102  0.949773  0.0  0.124944  -0.000104  1.013969  0.0  0.125564  -0.000121  1.014615  0.0  0.090684  0.124766  -3.7e-05  1.012991  0.0
H  H24  1  0.00812290  0.45705338  0.36987766  1  0.105101  0.000101  0.949862  0.0  0.124975  -0.000104  1.014025  0.0  0.125593  -0.000121  1.014674  0.0  0.090688  0.124796  -3.7e-05  1.013049  0.0
H  H25  1  0.18576715  0.53348809  0.04516670  1  0.099232  0.000104  0.95026  0.0  0.111001  -1.1e-05  1.00752  0.0  0.115092  -1.7e-05  1.004723  0.0  0.106019  0.107919  3.4e-05  1.009662  0.0
H  H26  1  0.81422949  0.46650682  0.95483223  1  0.099257  0.000104  0.950311  0.0  0.111025  -1.1e-05  1.007555  0.0  0.115117  -1.7e-05  1.004755  0.0  0.106045  0.107941  3.4e-05  1.009699  0.0
H  H27  1  0.64392612  0.70807915  0.00746595  1  0.100724  0.00011  0.966293  0.0  0.104243  -5.9e-05  1.035944  0.0  0.108323  -3.6e-05  1.033896  0.0  0.101872  0.100615  -9.5e-05  1.038586  0.0
H  H28  1  0.35607306  0.29191690  0.99252749  1  0.100691  0.00011  0.966346  0.0  0.104194  -5.9e-05  1.036019  0.0  0.108274  -3.5e-05  1.033968  0.0  0.101865  0.100567  -9.5e-05  1.038658  0.0
C  C29  1  0.79457321  0.80559214  0.33669044  1  -0.032789  -4e-05  3.685648  0.0  -0.079902  0.000998  3.958723  0.001  -0.071697  0.003374  3.97148  0.003  0.011319  -0.085166  -0.000309  3.949845  0.0
C  C30  1  0.20542293  0.19440965  0.66330974  1  -0.032638  -3.6e-05  3.68543  0.0  -0.079709  0.000998  3.958494  0.001  -0.07151  0.003374  3.971242  0.003  0.011394  -0.084971  -0.000309  3.949615  0.0
C  C31  1  0.62924180  0.74687956  0.43715336  1  0.021161  5.9e-05  3.848085  0.0  0.055089  -0.000133  4.092158  0.0  0.047916  -0.001139  4.118799  -0.001  -0.036893  0.059466  0.000216  4.073871  0.0
C  C32  1  0.37075288  0.25312452  0.56284667  1  0.021163  5.9e-05  3.848184  0.0  0.055005  -0.000132  4.092362  0.0  0.047857  -0.001138  4.118966  -0.001  -0.036911  0.059383  0.000216  4.074075  0.0
C  C33  1  0.53226194  0.79965115  0.34264281  1  -0.027644  0.001112  3.673905  0.001  -0.084758  0.002534  3.936347  0.002  -0.076988  0.004817  3.951266  0.003  0.009056  -0.088627  0.001974  3.924495  0.001
C  C34  1  0.46773266  0.20035407  0.65735585  1  -0.027647  0.001114  3.674067  0.001  -0.084719  0.002532  3.936532  0.002  -0.076943  0.004814  3.951463  0.003  0.009108  -0.088586  0.001974  3.924677  0.001
C  C35  1  0.56979161  0.65284910  0.60739095  1  -0.313679  -0.000227  3.775443  0.0  -0.392665  -0.000172  4.010161  0.0  -0.394534  -8.7e-05  4.024449  0.0  -0.240096  -0.390928  -0.000215  3.999776  0.0
C  C36  1  0.43019924  0.34715381  0.39260982  1  -0.313634  -0.00023  3.775425  0.0  -0.392601  -0.000171  4.010189  0.0  -0.394479  -8.5e-05  4.024473  0.0  -0.240085  -0.390865  -0.000215  3.999804  0.0
C  C37  1  0.07597261  0.77727535  0.78582331  1  -0.026589  -0.006014  3.67068  -0.003  -0.072546  -0.00122  3.936739  0.0  -0.064437  0.000718  3.951169  0.001  0.012964  -0.078226  -0.002739  3.92717  -0.001
C  C38  1  0.92403011  0.22272533  0.21417787  1  -0.026861  -0.006014  3.670767  -0.003  -0.072782  -0.00122  3.936889  0.0  -0.064674  0.000719  3.95132  0.001  0.012877  -0.078461  -0.002738  3.927321  -0.001
C  C39  1  0.02229824  0.74927055  0.67619106  1  0.018224  0.001228  3.83481  0.001  0.048927  -0.00049  4.086154  0.0  0.040847  -0.001106  4.114861  -0.001  -0.038959  0.054015  -0.000244  4.066653  0.0
C  C40  1  0.97771083  0.25073246  0.32380702  1  0.018617  0.001228  3.834569  0.001  0.049122  -0.000491  4.086147  0.0  0.041044  -0.001105  4.114856  -0.001  -0.038851  0.054209  -0.000244  4.066644  0.0
C  C41  1  0.88717922  0.85955429  0.67028325  1  -0.031354  -0.005708  3.690998  -0.003  -0.089132  8.7e-05  3.962478  0.0  -0.082507  0.002098  3.979608  0.002  0.008412  -0.092669  -0.001529  3.949867  -0.001
C  C42  1  0.11282757  0.14044412  0.32971604  1  -0.031586  -0.005708  3.69116  -0.003  -0.089333  8.7e-05  3.9627  0.0  -0.082714  0.002098  3.979833  0.002  0.008339  -0.092868  -0.001529  3.950086  -0.001
C  C43  1  0.09133448  0.62522063  0.59118951  1  -0.313066  -0.000195  3.760741  0.0  -0.390577  -0.000153  3.99477  0.0  -0.391806  -0.000149  4.007129  0.0  -0.237288  -0.389326  -0.000141  3.985781  0.0
C  C44  1  0.90867229  0.37477778  0.40881396  1  -0.313261  -0.000193  3.760757  0.0  -0.390708  -0.000153  3.994823  0.0  -0.391955  -0.000149  4.00717  0.0  -0.237331  -0.389456  -0.000141  3.985832  0.0
C  C45  1  0.30874598  0.78564868  0.05152636  1  0.611474  -0.019482  3.881074  -0.01  0.559823  -0.01359  4.179729  -0.007  0.599256  -0.007448  4.166847  -0.004  0.207761  0.532353  -0.018559  4.188706  -0.009
C  C46  1  0.69125293  0.21435083  0.94847242  1  0.611549  -0.019489  3.880844  -0.01  0.559871  -0.013593  4.179518  -0.007  0.599317  -0.007449  4.166639  -0.004  0.207795  0.532399  -0.018564  4.188491  -0.009
C  C47  1  0.40422406  0.63688890  0.02875368  1  -0.065973  -0.00898  3.77402  -0.004  -0.045059  -0.007084  4.008265  -0.003  -0.048421  -0.002444  4.023251  -0.001  -0.021696  -0.045255  -0.012996  4.00103  -0.007
C  C48  1  0.59577755  0.36310946  0.97123920  1  -0.065944  -0.008973  3.773992  -0.004  -0.044979  -0.007083  4.008185  -0.003  -0.048391  -0.002441  4.023236  -0.001  -0.021641  -0.045163  -0.012993  4.000936  -0.007
C  C49  1  0.32358909  0.51855449  0.02460401  1  -0.083507  -0.003258  3.753756  -0.001  -0.10383  -0.002459  3.999474  -0.001  -0.102639  -0.000826  4.014242  0.0  -0.085971  -0.105395  -0.004393  3.992247  -0.002
C  C50  1  0.67641131  0.48144272  0.97538862  1  -0.083442  -0.003264  3.753909  -0.002  -0.103766  -0.002462  3.999597  -0.001  -0.102561  -0.000829  4.014379  0.0  -0.085936  -0.105334  -0.004396  3.992365  -0.002
C  C51  1  0.58161217  0.61631746  0.00446793  1  -0.075729  -0.004065  3.73244  -0.002  -0.096474  -0.003725  3.983155  -0.002  -0.096157  -0.001481  3.999562  -0.001  -0.087084  -0.097016  -0.006196  3.974159  -0.003
C  C52  1  0.41838455  0.38367630  0.99552922  1  -0.075601  -0.00407  3.732287  -0.002  -0.096347  -0.003727  3.982981  -0.002  -0.096015  -0.001484  3.999402  -0.001  -0.087014  -0.096894  -0.006198  3.973984  -0.003
N  N53  1  0.79836053  0.88896984  0.19155599  1  -0.154739  -0.017119  3.26589  -0.013  -0.121402  -0.011779  3.576462  -0.011  -0.133704  -0.012118  3.587749  -0.012  -0.259107  -0.113032  -0.012193  3.565775  -0.011
N  N54  1  0.20163846  0.11102852  0.80844415  1  -0.154839  -0.017123  3.265817  -0.013  -0.121521  -0.011777  3.57643  -0.011  -0.133821  -0.012116  3.587721  -0.012  -0.259175  -0.113153  -0.012191  3.565748  -0.011
N  N55  1  0.63730073  0.88297026  0.19797428  1  -0.146838  -0.004637  3.485818  -0.004  -0.086749  -0.001963  3.73068  -0.001  -0.097807  -0.000846  3.747764  0.0  -0.280801  -0.079463  -0.002649  3.718957  -0.002
N  N56  1  0.36269932  0.11703155  0.80202337  1  -0.146824  -0.004637  3.486022  -0.004  -0.086799  -0.001964  3.730867  -0.001  -0.097866  -0.000845  3.747958  0.0  -0.280799  -0.079514  -0.00265  3.719148  -0.002
N  N57  1  0.97994659  0.89554196  0.84322014  1  -0.164957  -0.009262  3.22324  -0.01  -0.124685  -0.008566  3.526122  -0.01  -0.139396  -0.008903  3.54265  -0.01  -0.24826  -0.115062  -0.009018  3.513813  -0.011
N  N58  1  0.02005620  0.10445758  0.15678345  1  -0.164943  -0.00926  3.22342  -0.01  -0.124634  -0.008565  3.526202  -0.01  -0.139346  -0.008905  3.542734  -0.01  -0.248291  -0.115017  -0.009018  3.513901  -0.011
N  N59  1  0.86688546  0.94470405  0.76996735  1  -0.171846  -0.001778  3.473346  -0.001  -0.114805  -0.001464  3.723152  -0.001  -0.126656  -0.000441  3.742075  0.0  -0.287094  -0.106957  -0.002028  3.710627  -0.001
N  N60  1  0.13311987  0.05529664  0.23003075  1  -0.171791  -0.00178  3.473447  -0.001  -0.114666  -0.001465  3.723116  -0.001  -0.126517  -0.000441  3.742045  0.0  -0.287028  -0.10681  -0.002029  3.710594  -0.001
O  O61  1  0.15886811  0.81217290  0.04265810  1  -0.557523  0.005643  2.158074  0.001  -0.496449  0.009963  2.433629  0.006  -0.531422  0.008424  2.427462  0.005  -0.292619  -0.471369  0.009768  2.435194  0.005
O  O62  1  0.84113095  0.18782432  0.95734340  1  -0.557538  0.005647  2.157972  0.001  -0.496476  0.009967  2.433572  0.006  -0.531446  0.008425  2.427399  0.005  -0.292627  -0.471401  0.009773  2.435149  0.005
O  O63  1  0.38250488  0.88046783  0.07463261  1  -0.628036  -0.006317  2.056629  -0.005  -0.574325  -0.006184  2.289465  -0.005  -0.596019  -0.003456  2.277456  -0.003  -0.319843  -0.560029  -0.007638  2.298871  -0.006
O  O64  1  0.61749695  0.11952711  0.92536750  1  -0.628037  -0.006319  2.056513  -0.005  -0.574343  -0.006185  2.289389  -0.005  -0.596032  -0.003455  2.27737  -0.003  -0.319894  -0.56005  -0.00764  2.298793  -0.006
