# generated using pymatgen
data_CdH16C22N3O4
_symmetry_space_group_name_H-M   'P 1'
_cell_length_a   8.37391555
_cell_length_b   10.04340791
_cell_length_c   11.85762701
_cell_angle_alpha   90.78857594
_cell_angle_beta   105.55239123
_cell_angle_gamma   101.87308820
_symmetry_Int_Tables_number   1
_chemical_formula_structural   CdH16C22N3O4
_chemical_formula_sum   'Cd2 H32 C44 N6 O8'
_cell_volume   937.67342056
_cell_formula_units_Z   2
loop_
 _symmetry_equiv_pos_site_id
 _symmetry_equiv_pos_as_xyz
  1  'x, y, z'
loop_
 _atom_site_type_symbol
 _atom_site_label
 _atom_site_symmetry_multiplicity
 _atom_site_fract_x
 _atom_site_fract_y
 _atom_site_fract_z
 _atom_site_occupancy
 _atom_site_hle17_bader_spin_density
 _atom_site_hle17_ddec_charge
 _atom_site_hle17_ddec_spin_density
 _atom_site_hle17_ddec_sum_bond_order
 _atom_site_hle17_magmom
 _atom_site_hse06_10hf_bader_spin_density
 _atom_site_hse06_10hf_ddec_charge
 _atom_site_hse06_10hf_ddec_spin_density
 _atom_site_hse06_10hf_ddec_sum_bond_order
 _atom_site_hse06_10hf_magmom
 _atom_site_hse06_bader_spin_density
 _atom_site_hse06_ddec_charge
 _atom_site_hse06_ddec_spin_density
 _atom_site_hse06_ddec_sum_bond_order
 _atom_site_hse06_magmom
 _atom_site_pbe_bader_spin_density
 _atom_site_pbe_cm5_charge
 _atom_site_pbe_ddec_charge
 _atom_site_pbe_ddec_spin_density
 _atom_site_pbe_ddec_sum_bond_order
 _atom_site_pbe_magmom
Cd  Cd0  1  0.82575625  0.39402564  0.88441099  1  0  1.114275  0  1.679493  0  0  0.921886  0  2.126194  0  0  0.980728  0  2.07527  0  0  0.769713  0.877158  0  2.162756  0
Cd  Cd1  1  0.17424289  0.60597456  0.11558834  1  0  1.114243  0  1.67952  0  0  0.921843  0  2.126233  0  0  0.980685  0  2.07531  0  0  0.769695  0.877109  0  2.162796  0
H  H2  1  0.86969894  0.87981862  0.89953011  1  0  0.099442  0  0.965758  0  0  0.107703  0  1.034251  0  0  0.110736  0  1.032177  0  0  0.104944  0.105481  0  1.035825  0
H  H3  1  0.13029594  0.12017951  0.10046840  1  0  0.099403  0  0.965809  0  0  0.107656  0  1.034318  0  0  0.110697  0  1.032233  0  0  0.104928  0.105431  0  1.035898  0
H  H4  1  0.20904694  0.75366157  0.72561529  1  0  0.088596  0  0.963389  0  0  0.097072  0  1.031051  0  0  0.099984  0  1.029802  0  0  0.098809  0.09504  0  1.031846  0
H  H5  1  0.79095274  0.24634066  0.27438501  1  0  0.088636  0  0.963314  0  0  0.097088  0  1.03099  0  0  0.100003  0  1.029741  0  0  0.098807  0.095053  0  1.031798  0
H  H6  1  0.31361255  0.99753049  0.68898968  1  0  0.089123  0  0.962746  0  0  0.100824  0  1.019989  0  0  0.103745  0  1.019386  0  0  0.098396  0.098706  0  1.02053  0
H  H7  1  0.68638616  0.00247276  0.31101298  1  0  0.089117  0  0.96266  0  0  0.100835  0  1.019905  0  0  0.10376  0  1.019289  0  0  0.098428  0.098714  0  1.020447  0
H  H8  1  0.17654947  0.17622649  0.74472823  1  0  0.092321  0  0.987018  0  0  0.095582  0  1.061358  0  0  0.099004  0  1.059175  0  0  0.098687  0.093129  0  1.062943  0
H  H9  1  0.82344622  0.82377470  0.25527299  1  0  0.092323  0  0.987006  0  0  0.095599  0  1.061321  0  0  0.09902  0  1.059141  0  0  0.09871  0.093128  0  1.062916  0
H  H10  1  0.56741691  0.17478734  0.95269631  1  0  0.094212  0  0.935484  0  0  0.104579  0  0.995009  0  0  0.107583  0  0.992134  0  0  0.120743  0.102379  0  0.997064  0
H  H11  1  0.43258472  0.82521286  0.04730434  1  0  0.094161  0  0.935575  0  0  0.104566  0  0.99506  0  0  0.107568  0  0.992191  0  0  0.120735  0.102365  0  0.997107  0
H  H12  1  0.36728021  0.12590135  0.07887819  1  0  0.122415  0  0.947822  0  0  0.132132  0  1.004676  0  0  0.136072  0  1.00288  0  0  0.114151  0.129244  0  1.006272  0
H  H13  1  0.63272293  0.87409988  0.92112276  1  0  0.122426  0  0.947807  0  0  0.13213  0  1.004668  0  0  0.136072  0  1.002872  0  0  0.114158  0.129241  0  1.006264  0
H  H14  1  0.36851206  0.31435259  0.22257605  1  0  0.105843  0  0.945081  0  0  0.115776  0  1.006779  0  0  0.118195  0  1.005542  0  0  0.112601  0.114012  0  1.007573  0
H  H15  1  0.63149108  0.68564865  0.77742490  1  0  0.105793  0  0.945136  0  0  0.115733  0  1.006832  0  0  0.118153  0  1.005594  0  0  0.112596  0.113975  0  1.007622  0
H  H16  1  0.76265889  0.57066207  0.10212229  1  0  0.107756  0  0.938861  0  0  0.113867  0  1.005863  0  0  0.117336  0  1.002494  0  0  0.122675  0.111161  0  1.008713  0
H  H17  1  0.23734522  0.42933815  0.89787714  1  0  0.107729  0  0.938934  0  0  0.113884  0  1.005879  0  0  0.117356  0  1.002508  0  0  0.122684  0.111178  0  1.008734  0
H  H18  1  0.85466623  0.78509859  0.57534639  1  0  0.106819  0  0.972568  0  0  0.115998  0  1.03614  0  0  0.11834  0  1.036234  0  0  0.103212  0.114258  0  1.036224  0
H  H19  1  0.14533335  0.21489855  0.42465553  1  0  0.10687  0  0.972505  0  0  0.11604  0  1.036073  0  0  0.118374  0  1.036189  0  0  0.103203  0.114282  0  1.036175  0
H  H20  1  0.67823151  0.90845160  0.65911926  1  0  0.090283  0  0.964963  0  0  0.101392  0  1.025463  0  0  0.103246  0  1.026166  0  0  0.098012  0.100073  0  1.02489  0
H  H21  1  0.32176684  0.09154553  0.34088074  1  0  0.090256  0  0.964974  0  0  0.101362  0  1.025483  0  0  0.103216  0  1.026184  0  0  0.097998  0.10004  0  1.024907  0
H  H22  1  0.37550217  0.89348768  0.55731072  1  0  0.080442  0  0.974911  0  0  0.09365  0  1.033133  0  0  0.095873  0  1.032812  0  0  0.095317  0.092007  0  1.033566  0
H  H23  1  0.62449618  0.10650945  0.44268759  1  0  0.080455  0  0.974914  0  0  0.093659  0  1.033137  0  0  0.095881  0  1.032819  0  0  0.095329  0.092025  0  1.03356  0
H  H24  1  0.23598566  0.75587608  0.36612945  1  0  0.112221  0  0.964875  0  0  0.122988  0  1.023444  0  0  0.125945  0  1.022244  0  0  0.105857  0.12082  0  1.024478  0
H  H25  1  0.76401473  0.24412411  0.63386759  1  0  0.112248  0  0.964845  0  0  0.123019  0  1.023421  0  0  0.125977  0  1.02222  0  0  0.10588  0.120852  0  1.024453  0
H  H26  1  0.95770839  0.70031261  0.41339736  1  0  0.070831  0  0.912146  0  0  0.089941  0  0.971179  0  0  0.090198  0  0.970938  0  0  0.110638  0.089729  0  0.971449  0
H  H27  1  0.04229421  0.29968658  0.58660430  1  0  0.070844  0  0.912154  0  0  0.089917  0  0.971213  0  0  0.090175  0  0.970972  0  0  0.110634  0.089702  0  0.97148  0
H  H28  1  0.89981302  0.56466456  0.30480607  1  0  0.097098  0  0.970447  0  0  0.107519  0  1.039875  0  0  0.109128  0  1.038732  0  0  0.112347  0.106243  0  1.040867  0
H  H29  1  0.10018958  0.43533463  0.69519560  1  0  0.097056  0  0.970473  0  0  0.107475  0  1.039901  0  0  0.109083  0  1.038757  0  0  0.112355  0.106197  0  1.040889  0
H  H30  1  0.83163219  0.39746434  0.44403326  1  0  0.061144  0  0.945268  0  0  0.078916  0  1.009972  0  0  0.079138  0  1.011139  0  0  0.08602  0.078695  0  1.009245  0
H  H31  1  0.16836917  0.60253485  0.55596902  1  0  0.061211  0  0.945334  0  0  0.078968  0  1.009999  0  0  0.079191  0  1.011167  0  0  0.086038  0.078749  0  1.009271  0
H  H32  1  0.86218284  0.52828915  0.55427004  1  0  0.088232  0  0.952162  0  0  0.104336  0  1.013276  0  0  0.105947  0  1.013084  0  0  0.092761  0.103078  0  1.013521  0
H  H33  1  0.13781852  0.47171004  0.44573139  1  0  0.088263  0  0.952111  0  0  0.104336  0  1.013231  0  0  0.105953  0  1.013029  0  0  0.092763  0.103075  0  1.01348  0
C  C34  1  0.91815315  0.14509911  0.84472122  1  0  0.625703  0  3.9498  0  0  0.576673  0  4.241787  0  0  0.611176  0  4.235675  0  0  0.190336  0.553267  0  4.244949  0
C  C35  1  0.08184200  0.85490004  0.15527819  1  0  0.62576  0  3.949741  0  0  0.576737  0  4.241713  0  0  0.611238  0  4.235604  0  0  0.190375  0.553321  0  4.24488  0
C  C36  1  0.00957128  0.03840865  0.82101506  1  0  -0.062795  0  3.753255  0  0  -0.034441  0  3.980905  0  0  -0.043705  0  4.004005  0  0  -0.017612  -0.028808  0  3.965908  0
C  C37  1  0.99042290  0.96159151  0.17898333  1  0  -0.062762  0  3.753173  0  0  -0.03443  0  3.980854  0  0  -0.043692  0  4.003955  0  0  -0.017614  -0.028786  0  3.965841  0
C  C38  1  0.96341685  0.90447704  0.85062575  1  0  -0.061872  0  3.686864  0  0  -0.097776  0  3.932263  0  0  -0.095105  0  3.951203  0  0  -0.074717  -0.099106  0  3.919966  0
C  C39  1  0.03657857  0.09552313  0.14937288  1  0  -0.061784  0  3.686909  0  0  -0.097716  0  3.932279  0  0  -0.09504  0  3.951194  0  0  -0.074704  -0.09905  0  3.919995  0
C  C40  1  0.03385971  0.80210044  0.81533107  1  0  -0.061038  0  3.757133  0  0  -0.033881  0  3.990361  0  0  -0.042325  0  4.012489  0  0  -0.018576  -0.028505  0  3.975527  0
C  C41  1  0.96613722  0.19790075  0.18466954  1  0  -0.061134  0  3.757293  0  0  -0.033845  0  3.990348  0  0  -0.042286  0  4.012475  0  0  -0.018572  -0.028482  0  3.975532  0
C  C42  1  0.15725024  0.83496965  0.75428509  1  0  -0.070026  0  3.740691  0  0  -0.095495  0  3.98741  0  0  -0.093526  0  4.006218  0  0  -0.085308  -0.096545  0  3.974466  0
C  C43  1  0.84274794  0.16503156  0.24571408  1  0  -0.070049  0  3.740707  0  0  -0.095526  0  3.987391  0  0  -0.093559  0  4.006199  0  0  -0.085315  -0.096586  0  3.974455  0
C  C44  1  0.21320168  0.97013100  0.73244421  1  0  -0.085923  0  3.790429  0  0  -0.094188  0  4.037981  0  0  -0.098593  0  4.058747  0  0  -0.094815  -0.091139  0  4.023647  0
C  C45  1  0.78679676  0.02987122  0.26755670  1  0  -0.085866  0  3.790274  0  0  -0.094153  0  4.037842  0  0  -0.098557  0  4.058611  0  0  -0.094832  -0.091102  0  4.023502  0
C  C46  1  0.13806665  0.07104099  0.76434675  1  0  -0.064161  0  3.730483  0  0  -0.089975  0  3.977648  0  0  -0.087716  0  3.996588  0  0  -0.085997  -0.091068  0  3.964771  0
C  C47  1  0.86193002  0.92895919  0.23565381  1  0  -0.064224  0  3.730424  0  0  -0.09004  0  3.977591  0  0  -0.087785  0  3.996538  0  0  -0.086036  -0.091119  0  3.964713  0
C  C48  1  0.97169301  0.65636054  0.83544113  1  0  0.624186  0  3.948443  0  0  0.570532  0  4.243608  0  0  0.60447  0  4.238211  0  0  0.191498  0.547623  0  4.245927  0
C  C49  1  0.02830738  0.34363966  0.16455844  1  0  0.624086  0  3.948573  0  0  0.570366  0  4.243775  0  0  0.604303  0  4.238381  0  0  0.191407  0.547473  0  4.246085  0
C  C50  1  0.56068826  0.25251079  0.01548701  1  0  0.129924  0  3.695359  0  0  0.095818  0  3.947319  0  0  0.103806  0  3.966087  0  0  0.052491  0.090733  0  3.934418  0
C  C51  1  0.43931337  0.74748941  0.98451280  1  0  0.130032  0  3.695499  0  0  0.095892  0  3.94745  0  0  0.103881  0  3.966217  0  0  0.052529  0.090812  0  3.934538  0
C  C52  1  0.45006393  0.22670889  0.08551700  1  0  -0.109255  0  3.707805  0  0  -0.118248  0  3.956561  0  0  -0.126529  0  3.977119  0  0  -0.075134  -0.113321  0  3.943073  0
C  C53  1  0.54993894  0.77329132  0.91448305  1  0  -0.10933  0  3.707805  0  0  -0.118317  0  3.956584  0  0  -0.1266  0  3.977141  0  0  -0.075142  -0.113386  0  3.943083  0
C  C54  1  0.45183273  0.33043067  0.16524416  1  0  -0.014206  0  3.66093  0  0  -0.044222  0  3.90991  0  0  -0.038767  0  3.926527  0  0  -0.054349  -0.047205  0  3.898384  0
C  C55  1  0.54817014  0.66956954  0.83475589  1  0  -0.014086  0  3.660949  0  0  -0.044105  0  3.909888  0  0  -0.038649  0  3.926504  0  0  -0.054319  -0.047088  0  3.898361  0
C  C56  1  0.56584137  0.45675552  0.17428117  1  0  -0.052672  0  3.759405  0  0  -0.028162  0  3.999743  0  0  -0.03681  0  4.022642  0  0  0.00186  -0.02325  0  3.985264  0
C  C57  1  0.43416177  0.54324572  0.82571893  1  0  -0.052624  0  3.759364  0  0  -0.028088  0  3.999674  0  0  -0.036747  0  4.022563  0  0  0.001856  -0.023184  0  3.985217  0
C  C58  1  0.67279053  0.47424848  0.10015778  1  0  0.109546  0  3.644447  0  0  0.066862  0  3.900477  0  0  0.075504  0  3.917468  0  0  0.055126  0.061176  0  3.889187  0
C  C59  1  0.32721234  0.52575173  0.89984142  1  0  0.109497  0  3.644513  0  0  0.0668  0  3.900484  0  0  0.075439  0  3.917476  0  0  0.055127  0.061117  0  3.889198  0
C  C60  1  0.56454158  0.56418088  0.25994599  1  0  0.315739  0  3.702216  0  0  0.275177  0  3.97492  0  0  0.294329  0  3.987975  0  0  0.232802  0.262588  0  3.965964  0
C  C61  1  0.43546031  0.43582034  0.74005304  1  0  0.31576  0  3.702076  0  0  0.275161  0  3.974853  0  0  0.294351  0  3.987855  0  0  0.232819  0.262563  0  3.965917  0
C  C62  1  0.46780652  0.69242755  0.36446208  1  0  0.157389  0  3.840341  0  0  0.15501  0  4.085822  0  0  0.158625  0  4.109322  0  0  0.084895  0.152549  0  4.069824  0
C  C63  1  0.53219662  0.30757369  0.63553718  1  0  0.157407  0  3.840328  0  0  0.155006  0  4.085865  0  0  0.15862  0  4.109367  0  0  0.08486  0.152546  0  4.069867  0
C  C64  1  0.64107338  0.70162724  0.42313143  1  0  0.104116  0  3.783091  0  0  0.09428  0  4.0244  0  0  0.097709  0  4.04713  0  0  0.092982  0.091921  0  4.009148  0
C  C65  1  0.35892674  0.29837194  0.57686808  1  0  0.104196  0  3.783033  0  0  0.094352  0  4.024402  0  0  0.097783  0  4.047128  0  0  0.093009  0.091994  0  4.009149  0
C  C66  1  0.72158744  0.77891690  0.52974909  1  0  -0.148581  0  3.756589  0  0  -0.167947  0  4.010025  0  0  -0.170755  0  4.030796  0  0  -0.096775  -0.166168  0  3.996141  0
C  C67  1  0.27841268  0.22108228  0.47025127  1  0  -0.148628  0  3.756563  0  0  -0.167963  0  4.009998  0  0  -0.170775  0  4.030761  0  0  -0.09673  -0.166171  0  3.996114  0
C  C68  1  0.62133288  0.84639803  0.57635308  1  0  -0.077739  0  3.789254  0  0  -0.093653  0  4.044969  0  0  -0.096173  0  4.068704  0  0  -0.098753  -0.09172  0  4.028767  0
C  C69  1  0.37866573  0.15360012  0.42364613  1  0  -0.077668  0  3.789221  0  0  -0.093578  0  4.044926  0  0  -0.096096  0  4.068659  0  0  -0.098716  -0.091632  0  4.028703  0
C  C70  1  0.44831950  0.83765146  0.51832632  1  0  -0.080193  0  3.806011  0  0  -0.096856  0  4.061246  0  0  -0.099639  0  4.084643  0  0  -0.099797  -0.095079  0  4.04564  0
C  C71  1  0.55168063  0.16234772  0.48167319  1  0  -0.080228  0  3.80604  0  0  -0.096887  0  4.061273  0  0  -0.09967  0  4.084671  0  0  -0.099791  -0.095116  0  4.045662  0
C  C72  1  0.36917460  0.76210420  0.41166888  1  0  -0.136462  0  3.734967  0  0  -0.154177  0  3.983099  0  0  -0.15654  0  4.002955  0  0  -0.09173  -0.152626  0  3.96987  0
C  C73  1  0.63082579  0.23789600  0.58832985  1  0  -0.136509  0  3.734995  0  0  -0.154223  0  3.983136  0  0  -0.156586  0  4.00299  0  0  -0.091759  -0.152677  0  3.969913  0
C  C74  1  0.87299762  0.59959333  0.38411726  1  0  0.00441  0  3.626451  0  0  -0.059962  0  3.890268  0  0  -0.054817  0  3.899771  0  0  -0.057056  -0.063194  0  3.883633  0
C  C75  1  0.12700499  0.40040586  0.61588441  1  0  0.004449  0  3.626599  0  0  -0.059854  0  3.890285  0  0  -0.054716  0  3.89981  0  0  -0.057047  -0.063055  0  3.883613  0
C  C76  1  0.90555272  0.50045715  0.47933174  1  0  -0.126065  0  3.669432  0  0  -0.166216  0  3.92788  0  0  -0.168062  0  3.941123  0  0  -0.166952  -0.164808  0  3.918734  0
C  C77  1  0.09444864  0.49954204  0.52067054  1  0  -0.12627  0  3.6696  0  0  -0.166327  0  3.927974  0  0  -0.168178  0  3.941214  0  0  -0.166976  -0.16493  0  3.918821  0
N  N78  1  0.66840380  0.37399057  0.02222849  1  0  -0.341443  0  3.282593  0  0  -0.263163  0  3.555073  0  0  -0.285319  0  3.575846  0  0  -0.328212  -0.247711  0  3.540129  0
N  N79  1  0.33159783  0.62600964  0.97777132  1  0  -0.341426  0  3.282646  0  0  -0.263168  0  3.555163  0  0  -0.285324  0  3.575932  0  0  -0.328223  -0.247713  0  3.540214  0
N  N80  1  0.42430571  0.60676597  0.26314862  1  0  -0.477738  0  3.143257  0  0  -0.417152  0  3.425309  0  0  -0.439661  0  3.439051  0  0  -0.347729  -0.401555  0  3.41534  0
N  N81  1  0.57569769  0.39323628  0.73684902  1  0  -0.477802  0  3.14322  0  0  -0.417183  0  3.425298  0  0  -0.439706  0  3.439029  0  0  -0.347721  -0.401578  0  3.415328  0
N  N82  1  0.69963669  0.62105540  0.35401878  1  0  -0.149525  0  3.470594  0  0  -0.063398  0  3.693379  0  0  -0.080148  0  3.715715  0  0  -0.23321  -0.052312  0  3.678256  0
N  N83  1  0.30036468  0.37894379  0.64598181  1  0  -0.149613  0  3.47056  0  0  -0.063545  0  3.693458  0  0  -0.080305  0  3.715778  0  0  -0.233321  -0.052468  0  3.678342  0
O  O84  1  0.97918816  0.26750342  0.82207948  1  0  -0.652348  0  2.043192  0  0  -0.58066  0  2.298989  0  0  -0.611424  0  2.288922  0  0  -0.334784  -0.558251  0  2.305948  0
O  O85  1  0.02080975  0.73249676  0.17791963  1  0  -0.652375  0  2.043244  0  0  -0.580681  0  2.299032  0  0  -0.611442  0  2.288966  0  0  -0.334805  -0.558267  0  2.30599  0
O  O86  1  0.78763736  0.11316401  0.88075539  1  0  -0.635442  0  1.893363  0  0  -0.586713  0  2.11865  0  0  -0.611955  0  2.11039  0  0  -0.333837  -0.568686  0  2.123399  0
O  O87  1  0.21235832  0.88683718  0.11924414  1  0  -0.635483  0  1.893352  0  0  -0.586757  0  2.118634  0  0  -0.612001  0  2.110376  0  0  -0.333864  -0.56873  0  2.123386  0
O  O88  1  0.93135310  0.62864346  0.93185719  1  0  -0.677156  0  2.032635  0  0  -0.601844  0  2.293996  0  0  -0.633548  0  2.284288  0  0  -0.339487  -0.578694  0  2.2994  0
O  O89  1  0.06864702  0.37135571  0.06814148  1  0  -0.677082  0  2.032677  0  0  -0.601784  0  2.29411  0  0  -0.633494  0  2.284406  0  0  -0.339433  -0.578605  0  2.299428  0
O  O90  1  0.95758386  0.56579174  0.75672506  1  0  -0.607371  0  1.977978  0  0  -0.550347  0  2.214935  0  0  -0.575661  0  2.207696  0  0  -0.312041  -0.531292  0  2.219681  0
O  O91  1  0.04241804  0.43420948  0.24327481  1  0  -0.607335  0  1.978013  0  0  -0.550296  0  2.214992  0  0  -0.57561  0  2.207758  0  0  -0.312005  -0.531242  0  2.219727  0
