# generated using pymatgen
data_BaH12C8SO11
_symmetry_space_group_name_H-M   'P 1'
_cell_length_a   7.20186313
_cell_length_b   11.18944926
_cell_length_c   16.70440000
_cell_angle_alpha   90.00000000
_cell_angle_beta   90.00000000
_cell_angle_gamma   90.00000000
_symmetry_Int_Tables_number   1
_chemical_formula_structural   BaH12C8SO11
_chemical_formula_sum   'Ba4 H48 C32 S4 O44'
_cell_volume   1346.12210414
_cell_formula_units_Z   4
loop_
 _symmetry_equiv_pos_site_id
 _symmetry_equiv_pos_as_xyz
  1  'x, y, z'
loop_
 _atom_site_type_symbol
 _atom_site_label
 _atom_site_symmetry_multiplicity
 _atom_site_fract_x
 _atom_site_fract_y
 _atom_site_fract_z
 _atom_site_occupancy
 _atom_site_hle17_bader_spin_density
 _atom_site_hle17_ddec_charge
 _atom_site_hle17_ddec_spin_density
 _atom_site_hle17_ddec_sum_bond_order
 _atom_site_hle17_magmom
 _atom_site_hse06_10hf_bader_spin_density
 _atom_site_hse06_10hf_ddec_charge
 _atom_site_hse06_10hf_ddec_spin_density
 _atom_site_hse06_10hf_ddec_sum_bond_order
 _atom_site_hse06_10hf_magmom
 _atom_site_hse06_bader_spin_density
 _atom_site_hse06_ddec_charge
 _atom_site_hse06_ddec_spin_density
 _atom_site_hse06_ddec_sum_bond_order
 _atom_site_hse06_magmom
 _atom_site_pbe_bader_charge
 _atom_site_pbe_bader_spin_density
 _atom_site_pbe_cm5_charge
 _atom_site_pbe_ddec_charge
 _atom_site_pbe_ddec_spin_density
 _atom_site_pbe_ddec_sum_bond_order
 _atom_site_pbe_magmom
Ba  Ba0  1  0.11765567  0.34298292  0.89216494  1  0  1.617979  0  1.111384  0  0  1.469787  0  1.500014  0  0  1.510514  0  1.454432  0  1.68776  0  0.920532  1.439866  0  1.53235  0
Ba  Ba1  1  0.88233279  0.84298072  0.10783746  1  0  1.618017  0  1.111302  0  0  1.469849  0  1.499916  0  0  1.510574  0  1.454337  0  1.687738  0  0.920556  1.439922  0  1.532261  0
Ba  Ba2  1  0.61766517  0.34298113  0.60783865  1  0  1.618041  0  1.111276  0  0  1.469885  0  1.499893  0  0  1.510612  0  1.454311  0  1.687697  0  0.920583  1.439971  0  1.532212  0
Ba  Ba3  1  0.38234412  0.84297983  0.39216614  1  0  1.617984  0  1.111341  0  0  1.469823  0  1.499969  0  0  1.510551  0  1.454385  0  1.687725  0  0.920528  1.439874  0  1.532351  0
H  H4  1  0.34197956  0.86559935  0.91197888  1  0  0.107447  0  0.95183  0  0  0.115334  0  1.018505  0  0  0.119346  0  1.014821  0  0.118955  0  0.114516  0.112288  0  1.021292  0
H  H5  1  0.65799779  0.36559976  0.08802172  1  0  0.10734  0  0.951856  0  0  0.115215  0  1.018573  0  0  0.119237  0  1.014866  0  0.118987  0  0.114418  0.112165  0  1.021368  0
H  H6  1  0.84199878  0.86560292  0.58802591  1  0  0.107373  0  0.951704  0  0  0.115241  0  1.018414  0  0  0.11927  0  1.014712  0  0.119076  0  0.114438  0.11219  0  1.021216  0
H  H7  1  0.15802161  0.36559708  0.41198187  1  0  0.107488  0  0.95177  0  0  0.115372  0  1.018451  0  0  0.119385  0  1.014777  0  0.118909  0  0.114528  0.112326  0  1.021239  0
H  H8  1  0.46911472  0.66936628  0.69594777  1  0  0.127951  0  0.928576  0  0  0.133737  0  0.994219  0  0  0.138206  0  0.990023  0  0.173119  0  0.123171  0.130415  0  0.997468  0
H  H9  1  0.53090290  0.16936401  0.30404684  1  0  0.127998  0  0.928607  0  0  0.13377  0  0.994247  0  0  0.138235  0  0.990057  0  0.173013  0  0.123167  0.130449  0  0.997495  0
H  H10  1  0.96911867  0.66936628  0.80405223  1  0  0.127916  0  0.928631  0  0  0.133705  0  0.994299  0  0  0.138173  0  0.990102  0  0.172986  0  0.123164  0.130385  0  0.997545  0
H  H11  1  0.03089201  0.16936669  0.19594777  1  0  0.127978  0  0.928578  0  0  0.133766  0  0.994226  0  0  0.138231  0  0.990038  0  0.17309  0  0.123156  0.130445  0  0.997474  0
H  H12  1  0.28948204  0.03841208  0.68568401  1  0  0.11183  0  0.968839  0  0  0.120033  0  1.033077  0  0  0.124008  0  1.029457  0  0.126357  0  0.116511  0.11711  0  1.035772  0
H  H13  1  0.71050364  0.53842239  0.31432257  1  0  0.111751  0  0.968817  0  0  0.120007  0  1.033017  0  0  0.123981  0  1.029401  0  0.12636  0  0.116499  0.117084  0  1.03571  0
H  H14  1  0.78948737  0.03842280  0.81432138  1  0  0.111681  0  0.968979  0  0  0.119891  0  1.033227  0  0  0.123862  0  1.029623  0  0.126297  0  0.116469  0.116969  0  1.035922  0
H  H15  1  0.21050942  0.53841077  0.18567743  1  0  0.111749  0  0.968788  0  0  0.119955  0  1.033041  0  0  0.12393  0  1.02942  0  0.126491  0  0.116502  0.117032  0  1.035734  0
H  H16  1  0.31257467  0.02017704  0.57091425  1  0  0.425904  0  0.862528  0  0  0.394471  0  0.938332  0  0  0.407202  0  0.921098  0  0.659569  0  0.313914  0.385444  0  0.948089  0
H  H17  1  0.68741795  0.52017037  0.42909054  1  0  0.425923  0  0.862418  0  0  0.394442  0  0.938314  0  0  0.407167  0  0.921128  0  0.659649  0  0.313939  0.385419  0  0.948068  0
H  H18  1  0.81257584  0.02017794  0.92908814  1  0  0.425948  0  0.862299  0  0  0.39447  0  0.93819  0  0  0.407203  0  0.921058  0  0.659596  0  0.313911  0.385443  0  0.947947  0
H  H19  1  0.18740706  0.52017574  0.07091245  1  0  0.425971  0  0.862467  0  0  0.394496  0  0.938342  0  0  0.40722  0  0.921079  0  0.65961  0  0.313959  0.385474  0  0.948101  0
H  H20  1  0.84929967  0.17474497  0.98296916  1  0  0.436682  0  0.828848  0  0  0.408895  0  0.900172  0  0  0.418315  0  0.889287  0  0.619415  0  0.324277  0.402186  0  0.908018  0
H  H21  1  0.15069850  0.67475350  0.01703384  1  0  0.436721  0  0.828907  0  0  0.408918  0  0.900247  0  0  0.418337  0  0.889362  0  0.61941  0  0.324277  0.402215  0  0.908081  0
H  H22  1  0.34930683  0.17474408  0.51703144  1  0  0.436786  0  0.828855  0  0  0.408993  0  0.900192  0  0  0.418412  0  0.889303  0  0.6194  0  0.324261  0.402285  0  0.908039  0
H  H23  1  0.65070801  0.67474456  0.48296557  1  0  0.436816  0  0.828813  0  0  0.409024  0  0.900138  0  0  0.418443  0  0.889249  0  0.619469  0  0.324305  0.402316  0  0.907983  0
H  H24  1  0.69370938  0.20267485  0.91874476  1  0  0.427794  0  0.867268  0  0  0.399842  0  0.926447  0  0  0.410942  0  0.910361  0  0.646415  0  0.305262  0.391948  0  0.937884  0
H  H25  1  0.30629019  0.70268070  0.08125823  1  0  0.427871  0  0.867099  0  0  0.399882  0  0.926395  0  0  0.410982  0  0.910311  0  0.64641  0  0.305232  0.391983  0  0.937842  0
H  H26  1  0.19371098  0.20268022  0.58124925  1  0  0.42774  0  0.867366  0  0  0.399917  0  0.926357  0  0  0.411017  0  0.910271  0  0.646426  0  0.305265  0.392017  0  0.937806  0
H  H27  1  0.80629691  0.70267533  0.41874057  1  0  0.427783  0  0.867242  0  0  0.399826  0  0.926471  0  0  0.410923  0  0.91039  0  0.646384  0  0.305181  0.391931  0  0.937912  0
H  H28  1  0.74288554  0.50913140  0.90593676  1  0  0.425453  0  0.867396  0  0  0.396779  0  0.931543  0  0  0.406623  0  0.917108  0  0.635924  0  0.307785  0.389759  0  0.94185  0
H  H29  1  0.25710014  0.00912914  0.09406564  1  0  0.425557  0  0.867215  0  0  0.396875  0  0.931389  0  0  0.406724  0  0.916946  0  0.635968  0  0.307811  0.389855  0  0.941697  0
H  H30  1  0.24290242  0.50913498  0.59406264  1  0  0.425523  0  0.867257  0  0  0.396825  0  0.931468  0  0  0.406671  0  0.917031  0  0.636049  0  0.307844  0.389813  0  0.941764  0
H  H31  1  0.75709992  0.00913450  0.40593796  1  0  0.425544  0  0.867227  0  0  0.396848  0  0.931427  0  0  0.406694  0  0.91699  0  0.636037  0  0.307832  0.389831  0  0.941729  0
H  H32  1  0.78589247  0.50615896  0.99923433  1  0  0.44373  0  0.851631  0  0  0.409539  0  0.920865  0  0  0.421119  0  0.903878  0  0.666561  0  0.298917  0.401322  0  0.932904  0
H  H33  1  0.21409182  0.00613524  0.00076806  1  0  0.443703  0  0.851708  0  0  0.409614  0  0.920794  0  0  0.421164  0  0.903831  0  0.666649  0  0.298932  0.401401  0  0.932834  0
H  H34  1  0.28590379  0.50615181  0.50076447  1  0  0.443643  0  0.851754  0  0  0.409489  0  0.920939  0  0  0.421067  0  0.903953  0  0.666547  0  0.298921  0.401272  0  0.93298  0
H  H35  1  0.71409994  0.00614418  0.49923553  1  0  0.443738  0  0.851651  0  0  0.409545  0  0.920878  0  0  0.421125  0  0.903892  0  0.666585  0  0.298936  0.401328  0  0.932919  0
H  H36  1  0.48372205  0.25762930  0.97932820  1  0  0.425445  0  0.884668  0  0  0.394995  0  0.948593  0  0  0.405197  0  0.933701  0  0.659316  0  0.298654  0.387801  0  0.959087  0
H  H37  1  0.51627057  0.75763693  0.02067419  1  0  0.425436  0  0.88472  0  0  0.394963  0  0.948681  0  0  0.405168  0  0.933783  0  0.659474  0  0.298646  0.38777  0  0.959173  0
H  H38  1  0.98373294  0.25764181  0.52066881  1  0  0.425497  0  0.884597  0  0  0.395034  0  0.948542  0  0  0.405231  0  0.933659  0  0.659341  0  0.298702  0.387842  0  0.959033  0
H  H39  1  0.01627634  0.75763604  0.47932700  1  0  0.425442  0  0.88469  0  0  0.39496  0  0.948664  0  0  0.405162  0  0.933772  0  0.659373  0  0.298635  0.387768  0  0.959153  0
H  H40  1  0.59576806  0.36499205  0.93959795  1  0  0.412312  0  0.894683  0  0  0.382853  0  0.957692  0  0  0.393787  0  0.94151  0  0.626497  0  0.294852  0.375069  0  0.969213  0
H  H41  1  0.40422040  0.86499432  0.06040564  1  0  0.412278  0  0.894736  0  0  0.382851  0  0.957683  0  0  0.393783  0  0.941503  0  0.626449  0  0.294862  0.375068  0  0.969203  0
H  H42  1  0.09578494  0.36500188  0.56039786  1  0  0.41208  0  0.894975  0  0  0.382666  0  0.957906  0  0  0.393601  0  0.941722  0  0.626247  0  0.294792  0.374883  0  0.969425  0
H  H43  1  0.90422851  0.86499163  0.43959556  1  0  0.412312  0  0.894684  0  0  0.382872  0  0.957655  0  0  0.393804  0  0.941473  0  0.626485  0  0.29488  0.375089  0  0.969174  0
H  H44  1  0.88459193  0.28878812  0.73667118  1  0  0.42751  0  0.873753  0  0  0.398912  0  0.934372  0  0  0.409138  0  0.919381  0  0.660705  0  0.305381  0.391713  0  0.944895  0
H  H45  1  0.11541041  0.78878592  0.26332763  1  0  0.427505  0  0.873739  0  0  0.398901  0  0.934367  0  0  0.409128  0  0.919377  0  0.660717  0  0.305344  0.3917  0  0.944895  0
H  H46  1  0.38459492  0.28878276  0.76332882  1  0  0.427466  0  0.873791  0  0  0.398857  0  0.934431  0  0  0.409087  0  0.919435  0  0.660694  0  0.305335  0.391654  0  0.944958  0
H  H47  1  0.61540742  0.78878860  0.23667178  1  0  0.427541  0  0.873696  0  0  0.398924  0  0.934349  0  0  0.409151  0  0.919358  0  0.660727  0  0.305391  0.391725  0  0.944872  0
H  H48  1  0.97563920  0.41906888  0.72168171  1  0  0.425151  0  0.875518  0  0  0.395851  0  0.936863  0  0  0.405859  0  0.922252  0  0.622281  0  0.304878  0.388765  0  0.947225  0
H  H49  1  0.02437147  0.91907115  0.27831470  1  0  0.42526  0  0.875405  0  0  0.395937  0  0.936791  0  0  0.405951  0  0.922166  0  0.622315  0  0.304914  0.388852  0  0.947146  0
H  H50  1  0.47562553  0.41906978  0.77831410  1  0  0.425266  0  0.875388  0  0  0.395952  0  0.936761  0  0  0.405968  0  0.922132  0  0.62234  0  0.304906  0.388861  0  0.947128  0
H  H51  1  0.52436153  0.91907383  0.22168471  1  0  0.425212  0  0.875457  0  0  0.395926  0  0.936775  0  0  0.405939  0  0.922153  0  0.622242  0  0.304932  0.38883  0  0.947151  0
C  C52  1  0.42162284  0.75043104  0.72561361  1  0  -0.020448  0  3.658206  0  0  -0.064731  0  3.915418  0  0  -0.05888  0  3.932065  0  -0.030248  0  -0.057978  -0.068569  0  3.904451  0
C  C53  1  0.57837950  0.25043145  0.27438699  1  0  -0.020538  0  3.658156  0  0  -0.06479  0  3.915328  0  0  -0.058943  0  3.931975  0  -0.029994  0  -0.057957  -0.068631  0  3.904368  0
C  C54  1  0.92161846  0.75043104  0.77439238  1  0  -0.020302  0  3.658506  0  0  -0.064725  0  3.915682  0  0  -0.058879  0  3.932333  0  -0.029893  0  -0.057987  -0.068564  0  3.904719  0
C  C55  1  0.07838944  0.25043234  0.22561181  1  0  -0.020477  0  3.658511  0  0  -0.064835  0  3.915669  0  0  -0.05899  0  3.932314  0  -0.030257  0  -0.057972  -0.068674  0  3.904707  0
C  C56  1  0.40542287  0.75619182  0.80846603  1  0  -0.123676  0  3.731985  0  0  -0.092991  0  3.985468  0  0  -0.103262  0  4.007985  0  -0.089266  0  -0.013308  -0.086522  0  3.970315  0
C  C57  1  0.59457947  0.25619313  0.19153397  1  0  -0.123572  0  3.732081  0  0  -0.092891  0  3.985512  0  0  -0.103155  0  4.008032  0  -0.08927  0  -0.013277  -0.086423  0  3.970359  0
C  C58  1  0.90542404  0.75618914  0.69153995  1  0  -0.123789  0  3.732222  0  0  -0.092916  0  3.985508  0  0  -0.103182  0  4.008034  0  -0.088984  0  -0.013294  -0.086446  0  3.970348  0
C  C59  1  0.09458386  0.25619134  0.30846244  1  0  -0.123643  0  3.73216  0  0  -0.092841  0  3.985504  0  0  -0.103105  0  4.00802  0  -0.089291  0  -0.013251  -0.08637  0  3.97034  0
C  C60  1  0.35175481  0.86159737  0.84704808  1  0  -0.037487  0  3.686813  0  0  -0.080314  0  3.939356  0  0  -0.075277  0  3.956144  0  -0.09124  0  -0.066385  -0.082726  0  3.927501  0
C  C61  1  0.64824337  0.36159420  0.15295311  1  0  -0.037395  0  3.686919  0  0  -0.080201  0  3.93944  0  0  -0.075171  0  3.956238  0  -0.091236  0  -0.066363  -0.08261  0  3.927581  0
C  C62  1  0.85176292  0.86159737  0.65295790  1  0  -0.037295  0  3.686739  0  0  -0.080166  0  3.939199  0  0  -0.075146  0  3.956001  0  -0.091389  0  -0.066329  -0.082581  0  3.927347  0
C  C63  1  0.14824636  0.36159331  0.34704928  1  0  -0.037599  0  3.68679  0  0  -0.080434  0  3.939311  0  0  -0.075411  0  3.956103  0  -0.091221  0  -0.066479  -0.082848  0  3.927461  0
C  C64  1  0.31085428  0.96293032  0.80185520  1  0  -0.062214  0  3.747125  0  0  -0.033794  0  3.982594  0  0  -0.043616  0  4.005074  0  0.023687  0  -0.01294  -0.027697  0  3.967421  0
C  C65  1  0.68915361  0.46292895  0.19814540  1  0  -0.062308  0  3.747128  0  0  -0.03391  0  3.982676  0  0  -0.04373  0  4.005157  0  0.023784  0  -0.012926  -0.027812  0  3.967502  0
C  C66  1  0.81085268  0.96292854  0.69814660  1  0  -0.062395  0  3.747168  0  0  -0.03391  0  3.982605  0  0  -0.043729  0  4.005088  0  0.023783  0  -0.012947  -0.027812  0  3.967432  0
C  C67  1  0.18913995  0.46292359  0.30185161  1  0  -0.062256  0  3.74712  0  0  -0.033901  0  3.982708  0  0  -0.043719  0  4.005189  0  0.023756  0  -0.012953  -0.027804  0  3.967534  0
C  C68  1  0.32233326  0.95721423  0.71854422  1  0  -0.047399  0  3.676519  0  0  -0.089395  0  3.927328  0  0  -0.084757  0  3.945343  0  0.007547  0  -0.066623  -0.092409  0  3.915392  0
C  C69  1  0.67766770  0.45721375  0.28145878  1  0  -0.047333  0  3.676637  0  0  -0.089372  0  3.927474  0  0  -0.084737  0  3.945486  0  0.007933  0  -0.06659  -0.092383  0  3.915535  0
C  C70  1  0.82232749  0.95721959  0.78146117  1  0  -0.04706  0  3.676321  0  0  -0.089129  0  3.927096  0  0  -0.084489  0  3.945096  0  0.007465  0  -0.066477  -0.092143  0  3.915159  0
C  C71  1  0.17767625  0.45720838  0.21854422  1  0  -0.047152  0  3.676893  0  0  -0.089164  0  3.927683  0  0  -0.084529  0  3.945703  0  0.007858  0  -0.066556  -0.092175  0  3.915742  0
C  C72  1  0.37834237  0.85236992  0.68032315  1  0  -0.096775  0  3.791408  0  0  -0.070714  0  4.031755  0  0  -0.082885  0  4.056546  0  -0.092437  0  -0.016531  -0.0629  0  4.015347  0
C  C73  1  0.62163636  0.35237838  0.31967805  1  0  -0.096817  0  3.7915  0  0  -0.070708  0  4.031865  0  0  -0.082875  0  4.056658  0  -0.093044  0  -0.016521  -0.062899  0  4.015456  0
C  C74  1  0.87834493  0.85236992  0.81967925  1  0  -0.097072  0  3.791618  0  0  -0.070814  0  4.031846  0  0  -0.082985  0  4.056639  0  -0.09293  0  -0.016553  -0.063003  0  4.015437  0
C  C75  1  0.12166435  0.35237034  0.18032195  1  0  -0.096972  0  3.791961  0  0  -0.07078  0  4.032173  0  0  -0.082948  0  4.056966  0  -0.093052  0  -0.016541  -0.062971  0  4.015764  0
C  C76  1  0.39449930  0.84591473  0.59213740  1  0  0.675251  0  3.794441  0  0  0.624687  0  4.086855  0  0  0.658291  0  4.078391  0  1.530083  0  0.242118  0.601769  0  4.092201  0
C  C77  1  0.60550859  0.34590532  0.40786679  1  0  0.675463  0  3.794332  0  0  0.624743  0  4.086919  0  0  0.658343  0  4.078449  0  1.530853  0  0.242101  0.601834  0  4.092263  0
C  C78  1  0.89448937  0.84591027  0.90786320  1  0  0.675541  0  3.793992  0  0  0.624792  0  4.086557  0  0  0.658392  0  4.078094  0  1.530621  0  0.242174  0.601881  0  4.091899  0
C  C79  1  0.10550464  0.34590979  0.09213560  1  0  0.675326  0  3.794971  0  0  0.624705  0  4.087367  0  0  0.658305  0  4.078899  0  1.530786  0  0.242062  0.601793  0  4.092709  0
C  C80  1  0.25289289  0.07925412  0.83945068  1  0  0.650536  0  3.93901  0  0  0.600629  0  4.230822  0  0  0.633666  0  4.225082  0  1.589008  0  0.205241  0.578412  0  4.233719  0
C  C81  1  0.74709973  0.57925282  0.16054632  1  0  0.65072  0  3.938966  0  0  0.6008  0  4.230791  0  0  0.633837  0  4.225048  0  1.588963  0  0.205358  0.578583  0  4.23369  0
C  C82  1  0.75290239  0.07925770  0.66054991  1  0  0.650584  0  3.939058  0  0  0.600633  0  4.230889  0  0  0.633669  0  4.22515  0  1.588375  0  0.205314  0.578416  0  4.233787  0
C  C83  1  0.24709995  0.57925460  0.33945667  1  0  0.650648  0  3.938889  0  0  0.600759  0  4.230698  0  0  0.633795  0  4.224961  0  1.588961  0  0.205438  0.578544  0  4.233591  0
S  S84  1  0.45144429  0.62840001  0.86853344  1  0  1.313225  0  5.647493  0  0  1.209287  0  6.165587  0  0  1.25777  0  6.141914  0  3.175125  0  0.530619  1.176053  0  6.180635  0
S  S85  1  0.54854278  0.12840310  0.13146656  1  0  1.31305  0  5.648183  0  0  1.209091  0  6.166289  0  0  1.257568  0  6.142625  0  3.175226  0  0.530509  1.175856  0  6.181333  0
S  S86  1  0.95146907  0.62840984  0.63146895  1  0  1.313008  0  5.647949  0  0  1.208915  0  6.166087  0  0  1.257381  0  6.142436  0  3.17539  0  0.530435  1.175714  0  6.181121  0
S  S87  1  0.04854994  0.12840221  0.36852626  1  0  1.313167  0  5.647765  0  0  1.20912  0  6.165876  0  0  1.257594  0  6.142211  0  3.175277  0  0.530492  1.175903  0  6.180921  0
O  O88  1  0.32673906  0.93562871  0.54779220  1  0  -0.621612  0  2.155162  0  0  -0.559633  0  2.384383  0  0  -0.583849  0  2.366254  0  -1.206592  0  -0.366148  -0.542613  0  2.394652  0
O  O89  1  0.67323968  0.43562287  0.45220840  1  0  -0.621787  0  2.155215  0  0  -0.559724  0  2.384528  0  0  -0.583935  0  2.366441  0  -1.207168  0  -0.366179  -0.542712  0  2.394795  0
O  O90  1  0.82674023  0.93562603  0.95220840  1  0  -0.62176  0  2.15494  0  0  -0.559696  0  2.384227  0  0  -0.583916  0  2.366192  0  -1.207183  0  -0.366135  -0.54268  0  2.394494  0
O  O91  1  0.17322601  0.43563181  0.04778980  1  0  -0.621768  0  2.155283  0  0  -0.559723  0  2.384506  0  0  -0.583937  0  2.366354  0  -1.207191  0  -0.366163  -0.542711  0  2.394775  0
O  O92  1  0.46254836  0.75930547  0.55671619  1  0  -0.57467  0  1.955232  0  0  -0.527762  0  2.182562  0  0  -0.548882  0  2.173646  0  -1.162294  0  -0.289155  -0.513338  0  2.188668  0
O  O93  1  0.53749147  0.25930320  0.44329039  1  0  -0.574701  0  1.955354  0  0  -0.527734  0  2.182778  0  0  -0.548848  0  2.173856  0  -1.16255  0  -0.289202  -0.513321  0  2.188886  0
O  O94  1  0.96251482  0.75929742  0.94328500  1  0  -0.574839  0  1.955046  0  0  -0.527829  0  2.182417  0  0  -0.548944  0  2.173498  0  -1.16228  0  -0.289266  -0.513413  0  2.188523  0
O  O95  1  0.03746392  0.25931482  0.05671380  1  0  -0.574599  0  1.955743  0  0  -0.5277  0  2.183111  0  0  -0.548817  0  2.174192  0  -1.162416  0  -0.289161  -0.513283  0  2.189219  0
O  O96  1  0.27084103  0.57215953  0.88515062  1  0  -0.711207  0  1.96034  0  0  -0.655487  0  2.22214  0  0  -0.67798  0  2.206904  0  -1.345156  0  -0.374413  -0.63951  0  2.23223  0
O  O97  1  0.72914049  0.07216530  0.11484160  1  0  -0.711104  0  1.960467  0  0  -0.655433  0  2.22234  0  0  -0.677925  0  2.207111  0  -1.345124  0  -0.37436  -0.639453  0  2.232425  0
O  O98  1  0.77087274  0.57216489  0.61483920  1  0  -0.711142  0  1.960288  0  0  -0.655475  0  2.222191  0  0  -0.677969  0  2.206966  0  -1.34485  0  -0.374454  -0.639493  0  2.232258  0
O  O99  1  0.22915043  0.07215905  0.38514583  1  0  -0.711085  0  1.960244  0  0  -0.655422  0  2.22214  0  0  -0.677915  0  2.206911  0  -1.345193  0  -0.374402  -0.639438  0  2.232217  0
O  O100  1  0.81598329  0.16118935  0.92660616  1  0  -0.823601  0  1.866795  0  0  -0.765171  0  2.043523  0  0  -0.785701  0  2.015818  0  -1.239378  0  -0.563885  -0.750675  0  2.062538  0
O  O101  1  0.18401488  0.66118178  0.07339144  1  0  -0.823685  0  1.866722  0  0  -0.765227  0  2.043552  0  0  -0.785753  0  2.01582  0  -1.239386  0  -0.56386  -0.750732  0  2.062566  0
O  O102  1  0.31597796  0.16117862  0.57338845  1  0  -0.823672  0  1.866919  0  0  -0.765352  0  2.043429  0  0  -0.785881  0  2.015698  0  -1.239358  0  -0.563838  -0.750846  0  2.06243  0
O  O103  1  0.68402161  0.66118357  0.42660676  1  0  -0.823722  0  1.866745  0  0  -0.765283  0  2.043497  0  0  -0.785806  0  2.015778  0  -1.239413  0  -0.563836  -0.750785  0  2.062511  0
O  O104  1  0.79160349  0.45748454  0.94891166  1  0  -0.880066  0  1.842374  0  0  -0.819668  0  2.019989  0  0  -0.841127  0  1.988433  0  -1.298737  0  -0.606426  -0.804467  0  2.042251  0
O  O105  1  0.20838358  0.95747161  0.05109013  1  0  -0.880065  0  1.842417  0  0  -0.819788  0  2.019916  0  0  -0.841209  0  1.988443  0  -1.298883  0  -0.606421  -0.804599  0  2.042165  0
O  O106  1  0.29162315  0.45748275  0.55108774  1  0  -0.87999  0  1.842383  0  0  -0.819656  0  2.019985  0  0  -0.84111  0  1.988443  0  -1.298778  0  -0.60647  -0.804459  0  2.042236  0
O  O107  1  0.70839308  0.95747965  0.44891226  1  0  -0.880145  0  1.842306  0  0  -0.81976  0  2.019994  0  0  -0.841221  0  1.98844  0  -1.298865  0  -0.606494  -0.804554  0  2.042257  0
O  O108  1  0.50694937  0.29891909  0.92735387  1  0  -0.869314  0  1.835663  0  0  -0.812759  0  1.99994  0  0  -0.834042  0  1.970046  0  -1.293719  0  -0.599485  -0.797633  0  2.02081  0
O  O109  1  0.49303770  0.79891778  0.07264793  1  0  -0.869347  0  1.835797  0  0  -0.81277  0  2.000093  0  0  -0.83405  0  1.970201  0  -1.293763  0  -0.599495  -0.797641  0  2.020964  0
O  O110  1  0.00697042  0.29892713  0.57264014  1  0  -0.86911  0  1.835885  0  0  -0.812636  0  2.000171  0  0  -0.833915  0  1.97028  0  -1.293579  0  -0.599458  -0.797509  0  2.02104  0
O  O111  1  0.99304164  0.79891868  0.42735148  1  0  -0.869299  0  1.835734  0  0  -0.812726  0  2.000026  0  0  -0.834004  0  1.970138  0  -1.293766  0  -0.599458  -0.797596  0  2.020895  0
O  O112  1  0.23811200  0.16833179  0.79207634  1  0  -0.69826  0  1.989815  0  0  -0.636138  0  2.217814  0  0  -0.662066  0  2.20812  0  -1.213673  0  -0.376929  -0.617665  0  2.223681  0
O  O113  1  0.76187646  0.66832869  0.20791767  1  0  -0.698244  0  1.989904  0  0  -0.636114  0  2.217915  0  0  -0.662038  0  2.208218  0  -1.213504  0  -0.376928  -0.617642  0  2.223782  0
O  O114  1  0.73812011  0.16833447  0.70791767  1  0  -0.698184  0  1.99005  0  0  -0.636066  0  2.218066  0  0  -0.661987  0  2.208369  0  -1.213411  0  -0.376972  -0.617596  0  2.223935  0
O  O115  1  0.26188501  0.66833316  0.29207993  1  0  -0.698331  0  1.989903  0  0  -0.636207  0  2.21789  0  0  -0.662133  0  2.208196  0  -1.213396  0  -0.377024  -0.617731  0  2.223755  0
O  O116  1  0.21893918  0.08507210  0.91391250  1  0  -0.653245  0  1.968807  0  0  -0.594988  0  2.194881  0  0  -0.620806  0  2.186662  0  -1.200198  0  -0.327631  -0.576876  0  2.199995  0
O  O117  1  0.78105067  0.58507795  0.08608450  1  0  -0.653316  0  1.968724  0  0  -0.59504  0  2.19486  0  0  -0.620867  0  2.186654  0  -1.200339  0  -0.327735  -0.576926  0  2.199973  0
O  O118  1  0.71895285  0.08507210  0.58608331  1  0  -0.65329  0  1.968656  0  0  -0.594998  0  2.194783  0  0  -0.620828  0  2.186582  0  -1.199799  0  -0.327688  -0.576885  0  2.199894  0
O  O119  1  0.28105227  0.58507348  0.41391250  1  0  -0.653217  0  1.968968  0  0  -0.594982  0  2.19513  0  0  -0.620804  0  2.186923  0  -1.200332  0  -0.327717  -0.576869  0  2.200243  0
O  O120  1  0.89988797  0.37023449  0.75866478  1  0  -0.88208  0  1.777186  0  0  -0.822251  0  1.938784  0  0  -0.843262  0  1.909829  0  -1.291409  0  -0.62956  -0.807215  0  1.958985  0
O  O121  1  0.10011021  0.87023586  0.24133222  1  0  -0.882191  0  1.77706  0  0  -0.822349  0  1.938676  0  0  -0.843364  0  1.909709  0  -1.291459  0  -0.629588  -0.80731  0  1.958889  0
O  O122  1  0.39989374  0.37023270  0.74133043  1  0  -0.882146  0  1.777093  0  0  -0.822298  0  1.938703  0  0  -0.843316  0  1.909737  0  -1.291455  0  -0.629558  -0.807263  0  1.958922  0
O  O123  1  0.60010860  0.87023675  0.25866598  1  0  -0.88216  0  1.777104  0  0  -0.822329  0  1.938725  0  0  -0.843345  0  1.909758  0  -1.291382  0  -0.629635  -0.807289  0  1.958945  0
O  O124  1  0.54343576  0.67516013  0.94033368  1  0  -0.680484  0  2.037731  0  0  -0.622023  0  2.286097  0  0  -0.643734  0  2.271838  0  -1.345033  0  -0.328431  -0.60671  0  2.295384  0
O  O125  1  0.45653464  0.17515697  0.05967530  1  0  -0.680378  0  2.038118  0  0  -0.621878  0  2.286414  0  0  -0.643591  0  2.272162  0  -1.345008  0  -0.328303  -0.606564  0  2.295704  0
O  O126  1  0.04348042  0.67517353  0.55968008  1  0  -0.680436  0  2.038029  0  0  -0.621868  0  2.286337  0  0  -0.643577  0  2.27209  0  -1.345273  0  -0.328254  -0.606555  0  2.295612  0
O  O127  1  0.95656219  0.17514892  0.44032530  1  0  -0.680532  0  2.037988  0  0  -0.621977  0  2.286273  0  0  -0.643677  0  2.272019  0  -1.344818  0  -0.328337  -0.606668  0  2.29556  0
O  O128  1  0.57777549  0.55048822  0.82233064  1  0  -0.671679  0  1.979567  0  0  -0.60786  0  2.213724  0  0  -0.629907  0  2.199692  0  -1.329017  0  -0.310809  -0.592429  0  2.222904  0
O  O129  1  0.42222824  0.05049489  0.17767714  1  0  -0.671775  0  1.979752  0  0  -0.607931  0  2.213885  0  0  -0.629979  0  2.199861  0  -1.329078  0  -0.31089  -0.59249  0  2.223058  0
O  O130  1  0.07777987  0.55049626  0.67767774  1  0  -0.671619  0  1.979628  0  0  -0.607702  0  2.213748  0  0  -0.629733  0  2.199707  0  -1.329153  0  -0.310782  -0.592331  0  2.22296  0
O  O131  1  0.92221969  0.05049757  0.32231747  1  0  -0.671753  0  1.979647  0  0  -0.607836  0  2.213774  0  0  -0.629876  0  2.199737  0  -1.329208  0  -0.310792  -0.592441  0  2.222978  0
