# generated using pymatgen
data_LiH12C14SN3O
_symmetry_space_group_name_H-M   'P 1'
_cell_length_a   7.10048058
_cell_length_b   12.33484020
_cell_length_c   16.93520934
_cell_angle_alpha   91.13171168
_cell_angle_beta   90.00010554
_cell_angle_gamma   90.00041878
_symmetry_Int_Tables_number   1
_chemical_formula_structural   LiH12C14SN3O
_chemical_formula_sum   'Li4 H48 C56 S4 N12 O4'
_cell_volume   1482.95207554
_cell_formula_units_Z   4
loop_
 _symmetry_equiv_pos_site_id
 _symmetry_equiv_pos_as_xyz
  1  'x, y, z'
loop_
 _atom_site_type_symbol
 _atom_site_label
 _atom_site_symmetry_multiplicity
 _atom_site_fract_x
 _atom_site_fract_y
 _atom_site_fract_z
 _atom_site_occupancy
 _atom_site_hle17_bader_spin_density
 _atom_site_hle17_ddec_charge
 _atom_site_hle17_ddec_spin_density
 _atom_site_hle17_ddec_sum_bond_order
 _atom_site_hle17_magmom
 _atom_site_hse06_10hf_bader_spin_density
 _atom_site_hse06_10hf_ddec_charge
 _atom_site_hse06_10hf_ddec_spin_density
 _atom_site_hse06_10hf_ddec_sum_bond_order
 _atom_site_hse06_10hf_magmom
 _atom_site_hse06_bader_spin_density
 _atom_site_hse06_ddec_charge
 _atom_site_hse06_ddec_spin_density
 _atom_site_hse06_ddec_sum_bond_order
 _atom_site_hse06_magmom
 _atom_site_pbe_bader_spin_density
 _atom_site_pbe_cm5_charge
 _atom_site_pbe_ddec_charge
 _atom_site_pbe_ddec_spin_density
 _atom_site_pbe_ddec_sum_bond_order
 _atom_site_pbe_magmom
Li  Li0  1  0.12474547  0.50951540  0.58790884  1  0  0.772814  0  0.517943  0  0  0.689909  0  0.682896  0  0  0.703044  0  0.66361  0  0  0.555896  0.680757  0  0.696328  0
Li  Li1  1  0.62475204  0.99048422  0.91209110  1  0  0.77287  0  0.51784  0  0  0.689947  0  0.682816  0  0  0.703093  0  0.663523  0  0  0.555892  0.680796  0  0.696247  0
Li  Li2  1  0.87525469  0.49048624  0.41209329  1  0  0.77281  0  0.517956  0  0  0.689933  0  0.682866  0  0  0.703076  0  0.663574  0  0  0.555892  0.680779  0  0.6963  0
Li  Li3  1  0.37525797  0.00951254  0.08790743  1  0  0.772816  0  0.517952  0  0  0.689927  0  0.682892  0  0  0.70307  0  0.663602  0  0  0.55591  0.680774  0  0.696326  0
H  H4  1  0.36946220  0.67752597  0.52542688  1  0  0.078759  0  0.9319  0  0  0.092542  0  0.991808  0  0  0.09236  0  0.992621  0  0  0.11432  0.092577  0  0.991351  0
H  H5  1  0.86946556  0.82247145  0.97456967  1  0  0.07878  0  0.931892  0  0  0.092545  0  0.99182  0  0  0.092364  0  0.992631  0  0  0.114342  0.09258  0  0.991362  0
H  H6  1  0.63053091  0.32247239  0.47456694  1  0  0.07875  0  0.931861  0  0  0.092542  0  0.991765  0  0  0.092364  0  0.99257  0  0  0.114346  0.092577  0  0.991306  0
H  H7  1  0.13054586  0.17752613  0.02542946  1  0  0.07876  0  0.931828  0  0  0.092519  0  0.991741  0  0  0.09234  0  0.992547  0  0  0.114299  0.092541  0  0.991295  0
H  H8  1  0.61100337  0.63740069  0.53783609  1  0  0.071996  0  0.933224  0  0  0.083813  0  0.998701  0  0  0.08383  0  0.999564  0  0  0.107995  0.083708  0  0.998202  0
H  H9  1  0.11100867  0.86259643  0.96216145  1  0  0.072053  0  0.933251  0  0  0.083867  0  0.998701  0  0  0.083885  0  0.999563  0  0  0.108047  0.083756  0  0.998209  0
H  H10  1  0.38898974  0.36259523  0.46215712  1  0  0.07201  0  0.933227  0  0  0.08383  0  0.998678  0  0  0.083846  0  0.999544  0  0  0.107998  0.083722  0  0.998181  0
H  H11  1  0.88900275  0.13740113  0.03783590  1  0  0.072025  0  0.933257  0  0  0.08383  0  0.998731  0  0  0.083846  0  0.999595  0  0  0.108023  0.08372  0  0.998236  0
H  H12  1  0.32879342  0.54282868  0.41698407  1  0  0.0645  0  0.916939  0  0  0.076613  0  0.984667  0  0  0.077474  0  0.983286  0  0  0.113026  0.07587  0  0.985842  0
H  H13  1  0.82879940  0.95717030  0.08301020  1  0  0.064431  0  0.917159  0  0  0.076624  0  0.984801  0  0  0.077489  0  0.983414  0  0  0.113033  0.075882  0  0.985976  0
H  H14  1  0.67119828  0.45716886  0.58300738  1  0  0.064485  0  0.917188  0  0  0.076631  0  0.984856  0  0  0.077496  0  0.983469  0  0  0.113034  0.075886  0  0.986032  0
H  H15  1  0.17120921  0.04282726  0.91698598  1  0  0.064524  0  0.916983  0  0  0.076641  0  0.984709  0  0  0.077503  0  0.983328  0  0  0.113047  0.075898  0  0.985884  0
H  H16  1  0.52818181  0.62703580  0.39480420  1  0  0.070397  0  0.941841  0  0  0.084372  0  1.00478  0  0  0.083655  0  1.006417  0  0  0.111483  0.084792  0  1.003772  0
H  H17  1  0.02817987  0.87296353  0.10519400  1  0  0.070469  0  0.941821  0  0  0.084456  0  1.004757  0  0  0.083741  0  1.006396  0  0  0.111508  0.084878  0  1.003746  0
H  H18  1  0.47181412  0.37296094  0.60519020  1  0  0.070427  0  0.941903  0  0  0.0844  0  1.004841  0  0  0.083682  0  1.006486  0  0  0.111506  0.08483  0  1.003808  0
H  H19  1  0.97182591  0.12703323  0.89480571  1  0  0.070429  0  0.941796  0  0  0.084396  0  1.004747  0  0  0.083681  0  1.006382  0  0  0.111529  0.084819  0  1.003734  0
H  H20  1  0.83125451  0.50978156  0.22163454  1  0  0.067176  0  0.938463  0  0  0.074988  0  1.003121  0  0  0.077849  0  1.000717  0  0  0.114137  0.072909  0  1.004867  0
H  H21  1  0.33125347  0.99021504  0.27836798  1  0  0.06716  0  0.938459  0  0  0.074956  0  1.003127  0  0  0.077817  0  1.000723  0  0  0.114105  0.072877  0  1.004874  0
H  H22  1  0.16873860  0.49021765  0.77836698  1  0  0.067161  0  0.938437  0  0  0.075013  0  1.003056  0  0  0.077875  0  1.000649  0  0  0.114123  0.072924  0  1.004814  0
H  H23  1  0.66874668  0.00978254  0.72163115  1  0  0.067176  0  0.938393  0  0  0.075015  0  1.003033  0  0  0.077876  0  1.000629  0  0  0.114118  0.072934  0  1.004781  0
H  H24  1  0.74713279  0.66524816  0.13384442  1  0  0.0997  0  0.953199  0  0  0.11091  0  1.009709  0  0  0.114283  0  1.009063  0  0  0.102874  0.108506  0  1.01029  0
H  H25  1  0.24712319  0.83475131  0.36615629  1  0  0.099663  0  0.953288  0  0  0.110896  0  1.009776  0  0  0.11427  0  1.009127  0  0  0.102857  0.108493  0  1.010357  0
H  H26  1  0.25285468  0.33475430  0.86615949  1  0  0.09958  0  0.953299  0  0  0.11082  0  1.009783  0  0  0.114197  0  1.009131  0  0  0.102846  0.108416  0  1.010364  0
H  H27  1  0.75284738  0.16525112  0.63384171  1  0  0.099655  0  0.953282  0  0  0.110884  0  1.009771  0  0  0.11425  0  1.009129  0  0  0.102869  0.108477  0  1.01035  0
H  H28  1  0.72431030  0.85156059  0.19565000  1  0  0.090582  0  0.956548  0  0  0.100603  0  1.01973  0  0  0.103031  0  1.018218  0  0  0.108746  0.098843  0  1.020804  0
H  H29  1  0.22430088  0.64843959  0.30434953  1  0  0.090582  0  0.956556  0  0  0.100629  0  1.019713  0  0  0.103056  0  1.018201  0  0  0.108757  0.098867  0  1.020785  0
H  H30  1  0.27568140  0.14844188  0.80435510  1  0  0.090588  0  0.956687  0  0  0.100669  0  1.019784  0  0  0.103098  0  1.018271  0  0  0.108773  0.098902  0  1.020858  0
H  H31  1  0.77567532  0.35156121  0.69564728  1  0  0.090578  0  0.956688  0  0  0.100651  0  1.01981  0  0  0.103082  0  1.018294  0  0  0.108761  0.098885  0  1.020884  0
H  H32  1  0.79740445  0.87724287  0.33840128  1  0  0.105351  0  0.955191  0  0  0.118002  0  1.012502  0  0  0.121047  0  1.011992  0  0  0.10441  0.115817  0  1.013009  0
H  H33  1  0.29740529  0.62275925  0.16159833  1  0  0.105315  0  0.955042  0  0  0.117985  0  1.012353  0  0  0.121032  0  1.011841  0  0  0.104387  0.115799  0  1.012861  0
H  H34  1  0.20259429  0.12275555  0.66160377  1  0  0.10529  0  0.955161  0  0  0.117972  0  1.012456  0  0  0.121022  0  1.011935  0  0  0.104413  0.115792  0  1.012945  0
H  H35  1  0.70259345  0.37724398  0.83839792  1  0  0.105348  0  0.955214  0  0  0.118019  0  1.012507  0  0  0.121067  0  1.011991  0  0  0.104425  0.115836  0  1.013005  0
H  H36  1  0.91987686  0.89003784  0.47795196  1  0  0.11755  0  0.971362  0  0  0.129563  0  1.030088  0  0  0.132917  0  1.028934  0  0  0.097697  0.1272  0  1.030907  0
H  H37  1  0.41987123  0.60996806  0.02205073  1  0  0.117736  0  0.971479  0  0  0.129748  0  1.030184  0  0  0.1331  0  1.029034  0  0  0.097747  0.127384  0  1.031005  0
H  H38  1  0.08012470  0.10996623  0.52204902  1  0  0.117682  0  0.971402  0  0  0.129695  0  1.030114  0  0  0.133046  0  1.028967  0  0  0.097741  0.127331  0  1.030936  0
H  H39  1  0.58014582  0.39003361  0.97795790  1  0  0.117643  0  0.971288  0  0  0.129642  0  1.030017  0  0  0.133001  0  1.028866  0  0  0.09772  0.127278  0  1.030839  0
H  H40  1  0.91816797  0.96526261  0.63279822  1  0  0.097985  0  0.96199  0  0  0.113298  0  1.018488  0  0  0.115814  0  1.017571  0  0  0.099221  0.111518  0  1.019158  0
H  H41  1  0.41816587  0.53473178  0.86719951  1  0  0.097974  0  0.961954  0  0  0.113278  0  1.018467  0  0  0.115789  0  1.017554  0  0  0.099218  0.111498  0  1.019134  0
H  H42  1  0.08184345  0.03473901  0.36719918  1  0  0.098025  0  0.961989  0  0  0.113297  0  1.018526  0  0  0.115804  0  1.017618  0  0  0.099228  0.111519  0  1.019191  0
H  H43  1  0.58184977  0.46525689  0.13280188  1  0  0.098069  0  0.961922  0  0  0.113336  0  1.018464  0  0  0.115833  0  1.017569  0  0  0.099273  0.111558  0  1.01913  0
H  H44  1  0.06595520  0.00771824  0.77322011  1  0  0.09742  0  0.973867  0  0  0.109415  0  1.035943  0  0  0.111479  0  1.035716  0  0  0.101062  0.107977  0  1.036117  0
H  H45  1  0.56596935  0.49228800  0.72677861  1  0  0.097424  0  0.973944  0  0  0.109438  0  1.035979  0  0  0.111498  0  1.035761  0  0  0.101071  0.107998  0  1.036153  0
H  H46  1  0.93403509  0.99228908  0.22678090  1  0  0.097447  0  0.973893  0  0  0.109451  0  1.035942  0  0  0.111508  0  1.035722  0  0  0.101083  0.108011  0  1.036118  0
H  H47  1  0.43403080  0.50771686  0.27321707  1  0  0.09742  0  0.973939  0  0  0.109426  0  1.035987  0  0  0.111487  0  1.035765  0  0  0.101072  0.107986  0  1.036161  0
H  H48  1  0.28292194  0.84608037  0.82027945  1  0  0.124442  0  0.983222  0  0  0.128318  0  1.054198  0  0  0.13128  0  1.052925  0  0  0.106237  0.126181  0  1.055157  0
H  H49  1  0.78292880  0.65393050  0.67972546  1  0  0.124454  0  0.98325  0  0  0.128362  0  1.054193  0  0  0.131338  0  1.052884  0  0  0.106258  0.126221  0  1.055167  0
H  H50  1  0.71707258  0.15392778  0.17972571  1  0  0.124361  0  0.983119  0  0  0.128267  0  1.054081  0  0  0.131241  0  1.052773  0  0  0.106219  0.126129  0  1.055047  0
H  H51  1  0.21706290  0.34607843  0.32027499  1  0  0.124482  0  0.983102  0  0  0.128356  0  1.054097  0  0  0.131331  0  1.052786  0  0  0.106261  0.126213  0  1.055077  0
C  C52  1  0.46959442  0.61016777  0.51936219  1  0  0.044799  0  3.621388  0  0  -0.01118  0  3.886285  0  0  -0.004648  0  3.891361  0  0  -0.067802  -0.015567  0  3.88281  0
C  C53  1  0.96960006  0.88982844  0.98063324  1  0  0.044795  0  3.621417  0  0  -0.011145  0  3.886344  0  0  -0.00461  0  3.891422  0  0  -0.0678  -0.015533  0  3.882879  0
C  C54  1  0.53039869  0.38982895  0.48062926  1  0  0.044898  0  3.621323  0  0  -0.011104  0  3.886249  0  0  -0.004571  0  3.89133  0  0  -0.067805  -0.015491  0  3.882767  0
C  C55  1  0.03041276  0.11016912  0.01936412  1  0  0.044661  0  3.621419  0  0  -0.011248  0  3.886282  0  0  -0.004713  0  3.891357  0  0  -0.067853  -0.015619  0  3.882804  0
C  C56  1  0.47282189  0.56630682  0.43515153  1  0  0.052338  0  3.624261  0  0  -0.005102  0  3.892394  0  0  0.001803  0  3.897115  0  0  -0.066376  -0.009804  0  3.889217  0
C  C57  1  0.97282608  0.93369035  0.06484400  1  0  0.052144  0  3.624621  0  0  -0.005392  0  3.892843  0  0  0.001502  0  3.897585  0  0  -0.066493  -0.010093  0  3.889666  0
C  C58  1  0.52717263  0.43368828  0.56484048  1  0  0.052032  0  3.624909  0  0  -0.005433  0  3.893006  0  0  0.001463  0  3.897746  0  0  -0.066527  -0.010132  0  3.889824  0
C  C59  1  0.02718393  0.06630560  0.93515393  1  0  0.052229  0  3.624323  0  0  -0.005217  0  3.892488  0  0  0.001684  0  3.897214  0  0  -0.066477  -0.009918  0  3.889305  0
C  C60  1  0.82467102  0.59296757  0.24484116  1  0  0.141444  0  3.755985  0  0  0.115869  0  4.012002  0  0  0.122409  0  4.028211  0  0  0.048996  0.111662  0  4.000962  0
C  C61  1  0.32467587  0.90703793  0.25516205  1  0  0.141675  0  3.755484  0  0  0.116113  0  4.011489  0  0  0.122655  0  4.027694  0  0  0.04915  0.111906  0  4.000452  0
C  C62  1  0.17531786  0.40703490  0.75516394  1  0  0.141386  0  3.756024  0  0  0.115763  0  4.012047  0  0  0.122304  0  4.028251  0  0  0.048997  0.111563  0  4.001009  0
C  C63  1  0.67532287  0.09296614  0.74483893  1  0  0.141457  0  3.756005  0  0  0.115845  0  4.012033  0  0  0.122385  0  4.028239  0  0  0.04902  0.111637  0  4.000996  0
C  C64  1  0.77791264  0.67891481  0.19630218  1  0  -0.145616  0  3.753446  0  0  -0.155944  0  4.001394  0  0  -0.16296  0  4.023027  0  0  -0.096016  -0.151485  0  3.986933  0
C  C65  1  0.27789975  0.82108642  0.30369917  1  0  -0.145731  0  3.753561  0  0  -0.156079  0  4.001521  0  0  -0.163095  0  4.023153  0  0  -0.096074  -0.151619  0  3.987058  0
C  C66  1  0.22208329  0.32108928  0.80370293  1  0  -0.145306  0  3.753714  0  0  -0.15566  0  4.001667  0  0  -0.162676  0  4.023299  0  0  -0.095965  -0.151198  0  3.987195  0
C  C67  1  0.72207646  0.17891195  0.69629761  1  0  -0.145522  0  3.75363  0  0  -0.155862  0  4.001595  0  0  -0.162868  0  4.023233  0  0  -0.096012  -0.151397  0  3.987127  0
C  C68  1  0.76612262  0.78252589  0.23071969  1  0  -0.004448  0  3.755456  0  0  -0.023931  0  4.006927  0  0  -0.020165  0  4.026676  0  0  -0.072537  -0.02611  0  3.993503  0
C  C69  1  0.26612375  0.71747448  0.26928164  1  0  -0.004366  0  3.755588  0  0  -0.02388  0  4.007075  0  0  -0.020113  0  4.026828  0  0  -0.072534  -0.026052  0  3.993645  0
C  C70  1  0.23386908  0.21747253  0.76928713  1  0  -0.00454  0  3.75558  0  0  -0.024073  0  4.007075  0  0  -0.020313  0  4.02684  0  0  -0.072545  -0.026244  0  3.993643  0
C  C71  1  0.73386795  0.28252876  0.73071401  1  0  -0.004416  0  3.755358  0  0  -0.023941  0  4.006836  0  0  -0.020182  0  4.026597  0  0  -0.072515  -0.026114  0  3.993407  0
C  C72  1  0.80517660  0.79693310  0.31061329  1  0  -0.161512  0  3.713876  0  0  -0.178266  0  3.958868  0  0  -0.186009  0  3.980043  0  0  -0.087905  -0.173279  0  3.94478  0
C  C73  1  0.30517012  0.70307312  0.18938813  1  0  -0.161548  0  3.713998  0  0  -0.178366  0  3.959006  0  0  -0.186102  0  3.980161  0  0  -0.087888  -0.17338  0  3.94492  0
C  C74  1  0.19482215  0.20306937  0.68939121  1  0  -0.161472  0  3.713744  0  0  -0.178305  0  3.95879  0  0  -0.186043  0  3.979954  0  0  -0.087905  -0.173316  0  3.944708  0
C  C75  1  0.69482299  0.29693419  0.81061170  1  0  -0.161554  0  3.713785  0  0  -0.1784  0  3.958815  0  0  -0.186145  0  3.979991  0  0  -0.08795  -0.173412  0  3.944729  0
C  C76  1  0.85807819  0.70697709  0.35499462  1  0  0.198652  0  3.809255  0  0  0.198957  0  4.049823  0  0  0.207537  0  4.06716  0  0  0.119797  0.193178  0  4.038043  0
C  C77  1  0.35807686  0.79302123  0.14500557  1  0  0.198811  0  3.809625  0  0  0.199189  0  4.050004  0  0  0.207773  0  4.067337  0  0  0.119869  0.193411  0  4.038231  0
C  C78  1  0.14192196  0.29302050  0.64500865  1  0  0.198708  0  3.809595  0  0  0.199094  0  4.050004  0  0  0.207675  0  4.067343  0  0  0.119783  0.193307  0  4.038229  0
C  C79  1  0.64192329  0.20697796  0.85499240  1  0  0.198578  0  3.809618  0  0  0.199038  0  4.049971  0  0  0.207622  0  4.067301  0  0  0.119767  0.193255  0  4.038192  0
C  C80  1  0.91467461  0.71518718  0.43768850  1  0  0.09057  0  3.877691  0  0  0.088985  0  4.131014  0  0  0.090624  0  4.153913  0  0  0.068753  0.088174  0  4.115121  0
C  C81  1  0.41467559  0.78482276  0.06231718  1  0  0.090237  0  3.878019  0  0  0.088755  0  4.131135  0  0  0.09039  0  4.154039  0  0  0.068629  0.08794  0  4.115246  0
C  C82  1  0.08532835  0.28481934  0.56231723  1  0  0.090376  0  3.87772  0  0  0.088847  0  4.130908  0  0  0.090483  0  4.15381  0  0  0.068697  0.088046  0  4.115003  0
C  C83  1  0.58533442  0.21518213  0.93768676  1  0  0.090506  0  3.877637  0  0  0.088901  0  4.130889  0  0  0.090537  0  4.153792  0  0  0.068776  0.088095  0  4.114984  0
C  C84  1  0.94057636  0.80462632  0.48953968  1  0  -0.291452  0  3.720436  0  0  -0.313353  0  3.967963  0  0  -0.321665  0  3.989412  0  0  -0.129997  -0.307613  0  3.953096  0
C  C85  1  0.44056189  0.69536105  0.01046811  1  0  -0.291701  0  3.719825  0  0  -0.313648  0  3.967356  0  0  -0.321963  0  3.988807  0  0  -0.130151  -0.3079  0  3.952481  0
C  C86  1  0.05942942  0.19536723  0.51046471  1  0  -0.291614  0  3.719895  0  0  -0.313542  0  3.967443  0  0  -0.321855  0  3.988893  0  0  -0.130083  -0.307804  0  3.952576  0
C  C87  1  0.55943967  0.30462441  0.98953973  1  0  -0.291522  0  3.720208  0  0  -0.313407  0  3.967732  0  0  -0.321729  0  3.989191  0  0  -0.129986  -0.307668  0  3.952859  0
C  C88  1  0.00477620  0.75806588  0.55980082  1  0  0.159467  0  3.896346  0  0  0.152838  0  4.155931  0  0  0.157035  0  4.178278  0  0  0.069559  0.150181  0  4.140538  0
C  C89  1  0.50478543  0.74192998  0.94019782  1  0  0.159613  0  3.896008  0  0  0.152971  0  4.155659  0  0  0.157157  0  4.177996  0  0  0.069625  0.150319  0  4.140266  0
C  C90  1  0.99522254  0.24193656  0.44019896  1  0  0.159637  0  3.89602  0  0  0.152987  0  4.155682  0  0  0.157187  0  4.17803  0  0  0.069609  0.150329  0  4.140286  0
C  C91  1  0.49522740  0.25806353  0.05979950  1  0  0.159659  0  3.896003  0  0  0.15304  0  4.155628  0  0  0.157239  0  4.177975  0  0  0.069639  0.150379  0  4.140225  0
C  C92  1  0.06151371  0.80969106  0.63368915  1  0  -0.057187  0  3.801818  0  0  -0.038188  0  4.055678  0  0  -0.036509  0  4.076514  0  0  -0.022041  -0.039382  0  4.041534  0
C  C93  1  0.56150222  0.69030912  0.86631430  1  0  -0.057172  0  3.801937  0  0  -0.038216  0  4.055849  0  0  -0.036487  0  4.07661  0  0  -0.022025  -0.03943  0  4.041732  0
C  C94  1  0.93849630  0.19031301  0.36631183  1  0  -0.057331  0  3.802047  0  0  -0.038363  0  4.05596  0  0  -0.036689  0  4.076799  0  0  -0.022164  -0.039556  0  4.04181  0
C  C95  1  0.43849653  0.30968686  0.13369012  1  0  -0.057305  0  3.801756  0  0  -0.038372  0  4.055721  0  0  -0.036696  0  4.076553  0  0  -0.022183  -0.039554  0  4.041556  0
C  C96  1  0.01239802  0.91099037  0.66379066  1  0  -0.157628  0  3.806294  0  0  -0.181704  0  4.061001  0  0  -0.184885  0  4.081526  0  0  -0.122963  -0.179301  0  4.04682  0
C  C97  1  0.51239638  0.58901039  0.83620803  1  0  -0.157577  0  3.806272  0  0  -0.181614  0  4.060976  0  0  -0.184803  0  4.081486  0  0  -0.122937  -0.179205  0  4.046796  0
C  C98  1  0.98761199  0.08901370  0.33620913  1  0  -0.15762  0  3.806313  0  0  -0.181638  0  4.061005  0  0  -0.184805  0  4.08153  0  0  -0.122869  -0.179235  0  4.04682  0
C  C99  1  0.48760940  0.41098556  0.16379108  1  0  -0.157684  0  3.806311  0  0  -0.181701  0  4.061045  0  0  -0.184862  0  4.081574  0  0  -0.122932  -0.179305  0  4.046856  0
C  C100  1  0.09333794  0.93402848  0.73898003  1  0  -0.091807  0  3.849936  0  0  -0.111088  0  4.112204  0  0  -0.112733  0  4.133522  0  0  -0.118441  -0.109895  0  4.097469  0
C  C101  1  0.59333846  0.56597101  0.76101989  1  0  -0.091832  0  3.849708  0  0  -0.111122  0  4.111993  0  0  -0.112769  0  4.133315  0  0  -0.118475  -0.109927  0  4.097253  0
C  C102  1  0.90665939  0.06597721  0.26101978  1  0  -0.091761  0  3.849832  0  0  -0.111033  0  4.112089  0  0  -0.112672  0  4.133396  0  0  -0.118449  -0.109839  0  4.097354  0
C  C103  1  0.40666450  0.43402413  0.23897980  1  0  -0.091771  0  3.849854  0  0  -0.111034  0  4.112084  0  0  -0.112678  0  4.1334  0  0  -0.118467  -0.109836  0  4.097343  0
C  C104  1  0.20518062  0.85109378  0.76521397  1  0  -0.190547  0  3.728815  0  0  -0.206466  0  4.009142  0  0  -0.206665  0  4.027062  0  0  -0.110786  -0.206064  0  3.996808  0
C  C105  1  0.70518769  0.64891269  0.73478789  1  0  -0.190544  0  3.728531  0  0  -0.206528  0  4.008904  0  0  -0.206726  0  4.026836  0  0  -0.110807  -0.20613  0  3.996562  0
C  C106  1  0.79481953  0.14891193  0.23479117  1  0  -0.190514  0  3.728752  0  0  -0.206494  0  4.009165  0  0  -0.20669  0  4.027098  0  0  -0.110789  -0.206093  0  3.996822  0
C  C107  1  0.29481951  0.35108894  0.26521188  1  0  -0.190605  0  3.72864  0  0  -0.206539  0  4.009001  0  0  -0.206736  0  4.026935  0  0  -0.110798  -0.206142  0  3.996657  0
S  S108  1  0.21153288  0.74469783  0.69841425  1  0  0.129315  0  2.646605  0  0  0.136777  0  2.97322  0  0  0.133919  0  2.981171  0  0  0.09675  0.138458  0  2.967899  0
S  S109  1  0.71152893  0.75530381  0.80158991  1  0  0.129268  0  2.646572  0  0  0.136757  0  2.973213  0  0  0.133883  0  2.981148  0  0  0.09673  0.138443  0  2.9679  0
S  S110  1  0.78847431  0.25530625  0.30158850  1  0  0.129362  0  2.646675  0  0  0.136843  0  2.973319  0  0  0.133983  0  2.981275  0  0  0.096764  0.138523  0  2.967997  0
S  S111  1  0.28846840  0.24469460  0.19841277  1  0  0.129322  0  2.646584  0  0  0.136812  0  2.973222  0  0  0.133953  0  2.981177  0  0  0.096746  0.138489  0  2.967895  0
N  N112  1  0.86338275  0.60541750  0.32192871  1  0  -0.44033  0  3.158254  0  0  -0.390712  0  3.421565  0  0  -0.402244  0  3.432878  0  0  -0.386471  -0.383019  0  3.41396  0
N  N113  1  0.36338003  0.89458084  0.17806912  1  0  -0.44048  0  3.158033  0  0  -0.390891  0  3.42132  0  0  -0.402425  0  3.432629  0  0  -0.386545  -0.383201  0  3.413722  0
N  N114  1  0.13662022  0.39458172  0.67807339  1  0  -0.440308  0  3.158262  0  0  -0.390703  0  3.421549  0  0  -0.402233  0  3.432861  0  0  -0.386434  -0.38301  0  3.413942  0
N  N115  1  0.63661589  0.10541916  0.82192768  1  0  -0.440321  0  3.158412  0  0  -0.390736  0  3.421678  0  0  -0.402268  0  3.43299  0  0  -0.386462  -0.383045  0  3.414077  0
N  N116  1  0.95938236  0.62210185  0.47537281  1  0  -0.375717  0  3.191824  0  0  -0.341929  0  3.482691  0  0  -0.349243  0  3.496763  0  0  -0.341123  -0.336894  0  3.47308  0
N  N117  1  0.45938855  0.87789853  0.02462689  1  0  -0.375546  0  3.192066  0  0  -0.341795  0  3.482886  0  0  -0.349109  0  3.496962  0  0  -0.341036  -0.336758  0  3.473276  0
N  N118  1  0.04061497  0.37789899  0.52462931  1  0  -0.37566  0  3.191676  0  0  -0.341894  0  3.482539  0  0  -0.349206  0  3.496615  0  0  -0.341107  -0.336863  0  3.472926  0
N  N119  1  0.54062568  0.12209743  0.97537400  1  0  -0.375727  0  3.191763  0  0  -0.341942  0  3.482655  0  0  -0.349254  0  3.496726  0  0  -0.341156  -0.33691  0  3.473041  0
N  N120  1  0.01321858  0.64781613  0.54978203  1  0  -0.388248  0  3.152262  0  0  -0.349001  0  3.443923  0  0  -0.358268  0  3.456754  0  0  -0.34303  -0.342553  0  3.435126  0
N  N121  1  0.51322079  0.85217898  0.95021897  1  0  -0.38826  0  3.152272  0  0  -0.349003  0  3.443951  0  0  -0.358273  0  3.456781  0  0  -0.343006  -0.342555  0  3.435151  0
N  N122  1  0.98678298  0.35218471  0.45022009  1  0  -0.388301  0  3.152129  0  0  -0.349056  0  3.443808  0  0  -0.358327  0  3.456636  0  0  -0.343049  -0.342606  0  3.435009  0
N  N123  1  0.48678218  0.14781455  0.04978189  1  0  -0.388333  0  3.152182  0  0  -0.349098  0  3.443864  0  0  -0.358368  0  3.456691  0  0  -0.34308  -0.34265  0  3.435065  0
O  O124  1  0.40565751  0.52699360  0.57177023  1  0  -0.370588  0  2.28304  0  0  -0.298751  0  2.541565  0  0  -0.315252  0  2.542784  0  0  -0.275374  -0.287184  0  2.540481  0
O  O125  1  0.90566394  0.97300234  0.92822515  1  0  -0.370671  0  2.282874  0  0  -0.298849  0  2.541381  0  0  -0.315357  0  2.542595  0  0  -0.275437  -0.287279  0  2.540296  0
O  O126  1  0.59433983  0.47300151  0.42822179  1  0  -0.370773  0  2.282863  0  0  -0.298922  0  2.541382  0  0  -0.315431  0  2.542596  0  0  -0.275447  -0.287349  0  2.540289  0
O  O127  1  0.09434607  0.02699603  0.07177222  1  0  -0.370594  0  2.283012  0  0  -0.298765  0  2.541561  0  0  -0.31527  0  2.542778  0  0  -0.275411  -0.287195  0  2.540469  0
