# generated using pymatgen
data_Ho2H14C18S3O16
_symmetry_space_group_name_H-M   'P 1'
_cell_length_a   5.74056065
_cell_length_b   12.85985538
_cell_length_c   15.94247109
_cell_angle_alpha   80.59887332
_cell_angle_beta   79.67488956
_cell_angle_gamma   77.10921733
_symmetry_Int_Tables_number   1
_chemical_formula_structural   Ho2H14C18S3O16
_chemical_formula_sum   'Ho4 H28 C36 S6 O32'
_cell_volume   1119.30119461
_cell_formula_units_Z   2
loop_
 _symmetry_equiv_pos_site_id
 _symmetry_equiv_pos_as_xyz
  1  'x, y, z'
loop_
 _atom_site_type_symbol
 _atom_site_label
 _atom_site_symmetry_multiplicity
 _atom_site_fract_x
 _atom_site_fract_y
 _atom_site_fract_z
 _atom_site_occupancy
 _atom_site_hle17_bader_spin_density
 _atom_site_hle17_ddec_charge
 _atom_site_hle17_ddec_spin_density
 _atom_site_hle17_ddec_sum_bond_order
 _atom_site_hle17_magmom
 _atom_site_hse06_10hf_bader_spin_density
 _atom_site_hse06_10hf_ddec_charge
 _atom_site_hse06_10hf_ddec_spin_density
 _atom_site_hse06_10hf_ddec_sum_bond_order
 _atom_site_hse06_10hf_magmom
 _atom_site_hse06_bader_spin_density
 _atom_site_hse06_ddec_charge
 _atom_site_hse06_ddec_spin_density
 _atom_site_hse06_ddec_sum_bond_order
 _atom_site_hse06_magmom
 _atom_site_pbe_bader_charge
 _atom_site_pbe_bader_spin_density
 _atom_site_pbe_cm5_charge
 _atom_site_pbe_ddec_charge
 _atom_site_pbe_ddec_spin_density
 _atom_site_pbe_ddec_sum_bond_order
 _atom_site_pbe_magmom
Ho  Ho0  1  0.97566963  0.84762086  0.88743300  1  0  2.293053  0  1.591762  0  0  2.231187  0  1.910169  0  0  2.277702  0  1.868445  0  2.19768  0  1.516114  2.118915  0  2.085921  0
Ho  Ho1  1  0.71026116  0.65245946  0.61263884  1  0  2.293075  0  1.591144  0  0  2.231374  0  1.909489  0  0  2.277928  0  1.867747  0  2.199554  0  1.516746  2.118532  0  2.086105  0
Ho  Ho2  1  0.02432844  0.15237852  0.11256678  1  0  2.293055  0  1.591726  0  0  2.231178  0  1.910131  0  0  2.27769  0  1.868408  0  2.197654  0  1.516075  2.118863  0  2.085949  0
Ho  Ho3  1  0.28973542  0.34754234  0.38735932  1  0  2.293037  0  1.591199  0  0  2.231299  0  1.909548  0  0  2.277848  0  1.867817  0  2.199496  0  1.516694  2.118394  0  2.086257  0
H  H4  1  0.05583782  0.68064889  0.08776284  1  0  0.109254  0  0.955374  0  0  0.114945  0  1.026929  0  0  0.118445  0  1.023663  0  0.124052  0  0.107231  0.112982  0  1.02802  0
H  H5  1  0.82313228  0.81973066  0.41217969  1  0  0.109055  0  0.954362  0  0  0.114401  0  1.026398  0  0  0.117959  0  1.023081  0  0.076384  0  0.106911  0.112389  0  1.027546  0
H  H6  1  0.94416570  0.31935210  0.91224123  1  0  0.109287  0  0.955364  0  0  0.114988  0  1.026902  0  0  0.118489  0  1.023635  0  0.123968  0  0.107238  0.113018  0  1.027999  0
H  H7  1  0.17686502  0.18026952  0.58781864  1  0  0.109007  0  0.954393  0  0  0.114393  0  1.02638  0  0  0.117953  0  1.02306  0  0.076392  0  0.106919  0.11238  0  1.027531  0
H  H8  1  0.13073773  0.49372697  0.18917749  1  0  0.134003  0  0.96699  0  0  0.143799  0  1.026053  0  0  0.147279  0  1.0238  0  0.144973  0  0.110048  0.141089  0  1.027901  0
H  H9  1  0.81316115  0.00650278  0.31070498  1  0  0.134828  0  0.96661  0  0  0.144642  0  1.025425  0  0  0.148105  0  1.023243  0  0.149974  0  0.110043  0.141999  0  1.027156  0
H  H10  1  0.86927761  0.50627402  0.81082538  1  0  0.13391  0  0.96708  0  0  0.143746  0  1.026083  0  0  0.14719  0  1.023897  0  0.144901  0  0.110031  0.141034  0  1.027928  0
H  H11  1  0.18684148  0.99349660  0.68929377  1  0  0.134869  0  0.966578  0  0  0.144674  0  1.025397  0  0  0.148137  0  1.023214  0  0.149998  0  0.110044  0.142025  0  1.027137  0
H  H12  1  0.24165806  0.15240426  0.79506960  1  0  0.121869  0  0.968604  0  0  0.128365  0  1.034483  0  0  0.132262  0  1.031369  0  0.114579  0  0.10592  0.125149  0  1.037614  0
H  H13  1  0.18868219  0.34803624  0.70499076  1  0  0.121923  0  0.968593  0  0  0.127734  0  1.035397  0  0  0.131647  0  1.032181  0  0.130699  0  0.105964  0.124585  0  1.038473  0
H  H14  1  0.75833928  0.84759673  0.20493001  1  0  0.121881  0  0.968638  0  0  0.128356  0  1.034543  0  0  0.132263  0  1.031414  0  0.114582  0  0.105906  0.12514  0  1.037674  0
H  H15  1  0.81131448  0.65196395  0.29500819  1  0  0.121922  0  0.968593  0  0  0.127756  0  1.035376  0  0  0.131666  0  1.032164  0  0.130455  0  0.105977  0.124613  0  1.038435  0
H  H16  1  0.43958570  0.91101331  0.81658877  1  0  0.442943  0  0.850874  0  0  0.410928  0  0.917081  0  0  0.421313  0  0.901696  0  0.634355  0  0.308723  0.403701  0  0.927286  0
H  H17  1  0.16683993  0.58893268  0.68354212  1  0  0.442231  0  0.851545  0  0  0.409986  0  0.918313  0  0  0.420383  0  0.902897  0  0.642033  0  0.308419  0.40275  0  0.928529  0
H  H18  1  0.56040904  0.08898929  0.18341256  1  0  0.442924  0  0.850908  0  0  0.410913  0  0.917104  0  0  0.421297  0  0.901722  0  0.634515  0  0.308747  0.403686  0  0.927309  0
H  H19  1  0.83316334  0.41106349  0.31645423  1  0  0.442273  0  0.8515  0  0  0.410008  0  0.918284  0  0  0.420405  0  0.902869  0  0.641876  0  0.308455  0.402771  0  0.928501  0
H  H20  1  0.42098070  0.81604651  0.76565746  1  0  0.444404  0  0.839555  0  0  0.413201  0  0.911127  0  0  0.423755  0  0.895549  0  0.632535  0  0.312758  0.40557  0  0.921999  0
H  H21  1  0.00258179  0.68370964  0.73462210  1  0  0.444212  0  0.839387  0  0  0.413126  0  0.91101  0  0  0.423687  0  0.895416  0  0.664042  0  0.312567  0.405496  0  0.921879  0
H  H22  1  0.57901126  0.18395770  0.23434222  1  0  0.444449  0  0.839477  0  0  0.413232  0  0.911077  0  0  0.423786  0  0.895504  0  0.632495  0  0.312769  0.405597  0  0.921957  0
H  H23  1  0.99743062  0.31628411  0.26537707  1  0  0.44429  0  0.839383  0  0  0.413202  0  0.910936  0  0  0.423762  0  0.895345  0  0.663981  0  0.3126  0.405571  0  0.921807  0
H  H24  1  0.94541919  0.91631592  0.06069549  1  0  0.446878  0  0.843684  0  0  0.417396  0  0.90603  0  0  0.427314  0  0.891248  0  0.648025  0  0.309599  0.410182  0  0.916394  0
H  H25  1  0.92202095  0.58381267  0.43946968  1  0  0.445986  0  0.844825  0  0  0.416613  0  0.906975  0  0  0.426527  0  0.8922  0  0.64939  0  0.309343  0.409397  0  0.917335  0
H  H26  1  0.05457230  0.08368427  0.93930511  1  0  0.447016  0  0.843514  0  0  0.41755  0  0.905823  0  0  0.427468  0  0.891042  0  0.648547  0  0.309649  0.410338  0  0.916184  0
H  H27  1  0.07796808  0.41618511  0.56053294  1  0  0.446324  0  0.844362  0  0  0.416886  0  0.906653  0  0  0.426802  0  0.891873  0  0.649406  0  0.309464  0.409661  0  0.917037  0
H  H28  1  0.67385315  0.95370127  0.04909489  1  0  0.452519  0  0.824004  0  0  0.427965  0  0.877855  0  0  0.437112  0  0.864652  0  0.645499  0  0.313771  0.420698  0  0.888242  0
H  H29  1  0.67672258  0.54611038  0.45084064  1  0  0.452348  0  0.824045  0  0  0.427838  0  0.878138  0  0  0.436991  0  0.864926  0  0.641515  0  0.313964  0.420541  0  0.888587  0
H  H30  1  0.32614079  0.04630133  0.95090369  1  0  0.45254  0  0.824003  0  0  0.427989  0  0.87783  0  0  0.437136  0  0.864626  0  0.645527  0  0.313754  0.420721  0  0.888218  0
H  H31  1  0.32326380  0.45388820  0.54916240  1  0  0.452241  0  0.824134  0  0  0.427761  0  0.878218  0  0  0.436911  0  0.86501  0  0.64152  0  0.313942  0.420467  0  0.888658  0
C  C32  1  0.47012153  0.74782524  0.98134244  1  0  0.75147  0  3.867597  0  0  0.705833  0  4.159076  0  0  0.74252  0  4.145786  0  1.616494  0  0.231261  0.679967  0  4.163582  0
C  C33  1  0.19855946  0.75231139  0.51877696  1  0  0.749625  0  3.866552  0  0  0.704763  0  4.157172  0  0  0.741414  0  4.143902  0  1.602317  0  0.230615  0.678842  0  4.161705  0
C  C34  1  0.52987779  0.25217414  0.01865608  1  0  0.751391  0  3.867746  0  0  0.705755  0  4.15922  0  0  0.742428  0  4.145923  0  1.616566  0  0.231303  0.67989  0  4.163727  0
C  C35  1  0.80144820  0.24768558  0.48122164  1  0  0.749634  0  3.866165  0  0  0.704784  0  4.156774  0  0  0.741419  0  4.143515  0  1.602321  0  0.230599  0.678859  0  4.161309  0
C  C36  1  0.44310458  0.65145959  0.04339639  1  0  -0.175428  0  3.733411  0  0  -0.158722  0  3.999156  0  0  -0.166885  0  4.020094  0  -0.247586  0  -0.024619  -0.153802  0  3.986784  0
C  C37  1  0.13731294  0.84861591  0.45662993  1  0  -0.174886  0  3.731815  0  0  -0.158915  0  3.998063  0  0  -0.167069  0  4.018979  0  -0.247185  0  -0.024711  -0.153913  0  3.985618  0
C  C38  1  0.55690068  0.34854221  0.95660372  1  0  -0.175451  0  3.733247  0  0  -0.158752  0  3.999007  0  0  -0.166856  0  4.019867  0  -0.247287  0  -0.024682  -0.153835  0  3.986638  0
C  C39  1  0.86268642  0.15138428  0.54336987  1  0  -0.174976  0  3.73182  0  0  -0.159014  0  3.998092  0  0  -0.16716  0  4.019008  0  -0.247196  0  -0.024754  -0.154011  0  3.985653  0
C  C40  1  0.23098890  0.62765655  0.09199762  1  0  -0.094946  0  3.818673  0  0  -0.131312  0  4.098219  0  0  -0.129799  0  4.115878  0  1.9e-05  0  -0.099978  -0.13179  0  4.085337  0
C  C41  1  0.94983415  0.87256534  0.40798574  1  0  -0.093963  0  3.815911  0  0  -0.129755  0  4.095506  0  0  -0.128247  0  4.113025  0  0.069269  0  -0.099071  -0.130239  0  4.082698  0
C  C42  1  0.76902693  0.37234283  0.90800742  1  0  -0.095003  0  3.818314  0  0  -0.131374  0  4.097887  0  0  -0.129872  0  4.115512  0  -1e-06  0  -0.099995  -0.131839  0  4.084988  0
C  C43  1  0.05016454  0.12743404  0.59201341  1  0  -0.093859  0  3.815926  0  0  -0.129683  0  4.095522  0  0  -0.128176  0  4.113042  0  0.0693  0  -0.099066  -0.130165  0  4.082707  0
C  C44  1  0.26972330  0.52911901  0.14577660  1  0  -0.084337  0  3.741525  0  0  -0.120125  0  4.013703  0  0  -0.119972  0  4.032037  0  0.078779  0  -0.100043  -0.120023  0  4.00168  0
C  C45  1  0.94411410  0.97105140  0.35416646  1  0  -0.084853  0  3.741063  0  0  -0.120855  0  4.013424  0  0  -0.120732  0  4.031774  0  0.02048  0  -0.100033  -0.120782  0  4.001353  0
C  C46  1  0.73029181  0.47088198  0.85422827  1  0  -0.084213  0  3.741278  0  0  -0.120045  0  4.01356  0  0  -0.119883  0  4.031908  0  0.078806  0  -0.100035  -0.119939  0  4.001527  0
C  C47  1  0.05588320  0.02894879  0.64583187  1  0  -0.084926  0  3.741172  0  0  -0.120918  0  4.013498  0  0  -0.120797  0  4.031851  0  0.020498  0  -0.10002  -0.120839  0  4.001429  0
C  C48  1  0.51165783  0.47849322  0.13666302  1  0  -0.162082  0  3.697199  0  0  -0.146863  0  3.96752  0  0  -0.154327  0  3.987922  0  -0.300135  0  -0.023528  -0.142323  0  3.955521  0
C  C49  1  0.12672552  0.02148556  0.36327621  1  0  -0.161332  0  3.697641  0  0  -0.146232  0  3.967399  0  0  -0.153702  0  3.987833  0  -0.259396  0  -0.023112  -0.141697  0  3.955414  0
C  C50  1  0.48835083  0.52151018  0.86333989  1  0  -0.162045  0  3.697077  0  0  -0.146868  0  3.967462  0  0  -0.154329  0  3.987858  0  -0.3  0  -0.023478  -0.142327  0  3.95546  0
C  C51  1  0.87327420  0.97851383  0.63672368  1  0  -0.161348  0  3.697696  0  0  -0.146166  0  3.967401  0  0  -0.153635  0  3.987833  0  -0.259399  0  -0.023092  -0.14163  0  3.955411  0
C  C52  1  0.62081886  0.37178458  0.17768638  1  0  0.737175  0  3.858445  0  0  0.693023  0  4.146559  0  0  0.729251  0  4.133797  0  1.589938  0  0.231147  0.6669  0  4.152473  0
C  C53  1  0.17052471  0.12816122  0.32225729  1  0  0.735483  0  3.860017  0  0  0.692233  0  4.146562  0  0  0.728523  0  4.133734  0  1.57819  0  0.231598  0.666067  0  4.152511  0
C  C54  1  0.37918135  0.62821642  0.82231746  1  0  0.737071  0  3.858517  0  0  0.692905  0  4.146679  0  0  0.729134  0  4.133914  0  1.589867  0  0.231056  0.666784  0  4.152588  0
C  C55  1  0.82947393  0.87184058  0.67774235  1  0  0.735593  0  3.860035  0  0  0.692252  0  4.146707  0  0  0.728541  0  4.133878  0  1.57808  0  0.231622  0.666088  0  4.152655  0
C  C56  1  0.72109017  0.05852662  0.83981918  1  0  0.657102  0  3.951043  0  0  0.604568  0  4.253598  0  0  0.639182  0  4.244479  0  1.531533  0  0.199125  0.582414  0  4.250773  0
C  C57  1  0.61953178  0.44158890  0.65998362  1  0  0.656402  0  3.951578  0  0  0.604133  0  4.253891  0  0  0.638683  0  4.244754  0  1.525557  0  0.199017  0.58202  0  4.250999  0
C  C58  1  0.27891077  0.94146954  0.16018304  1  0  0.657002  0  3.951205  0  0  0.60444  0  4.253799  0  0  0.639053  0  4.244683  0  1.531457  0  0.199047  0.582288  0  4.250971  0
C  C59  1  0.38046122  0.55841209  0.34001501  1  0  0.656368  0  3.951627  0  0  0.604051  0  4.253971  0  0  0.6386  0  4.24484  0  1.525533  0  0.198947  0.58194  0  4.251074  0
C  C60  1  0.61763184  0.16085048  0.79257607  1  0  -0.141596  0  3.705925  0  0  -0.125823  0  3.972243  0  0  -0.133229  0  3.993304  0  -0.180455  0  -0.020708  -0.121878  0  3.959743  0
C  C61  1  0.57104354  0.33931331  0.70714957  1  0  -0.141885  0  3.707016  0  0  -0.125938  0  3.972733  0  0  -0.133156  0  3.993481  0  -0.190336  0  -0.020219  -0.122084  0  3.960407  0
C  C62  1  0.38237021  0.83914971  0.20742460  1  0  -0.141649  0  3.705977  0  0  -0.125872  0  3.972301  0  0  -0.133284  0  3.99337  0  -0.180452  0  -0.020709  -0.121928  0  3.959803  0
C  C63  1  0.42894515  0.66069170  0.29285116  1  0  -0.141823  0  3.707001  0  0  -0.125843  0  3.972704  0  0  -0.133058  0  3.99345  0  -0.190101  0  -0.020174  -0.121994  0  3.960383  0
C  C64  1  0.38306869  0.19888015  0.77413114  1  0  -0.068363  0  3.69887  0  0  -0.101834  0  3.9676  0  0  -0.101125  0  3.985189  0  0.033166  0  -0.092025  -0.102317  0  3.956752  0
C  C65  1  0.35585870  0.30147026  0.72580687  1  0  -0.068314  0  3.699266  0  0  -0.101273  0  3.968171  0  0  -0.100488  0  3.985673  0  -0.037304  0  -0.092438  -0.101848  0  3.957319  0
C  C66  1  0.61692942  0.80112004  0.22586993  1  0  -0.068353  0  3.699036  0  0  -0.101815  0  3.967769  0  0  -0.10111  0  3.985358  0  0.033105  0  -0.092027  -0.1023  0  3.956924  0
C  C67  1  0.64413174  0.69853315  0.27419477  1  0  -0.068348  0  3.699407  0  0  -0.101327  0  3.968262  0  0  -0.100548  0  3.985773  0  -0.037164  0  -0.092445  -0.1019  0  3.957413  0
S  S68  1  0.68896009  0.55117730  0.06173656  1  0  0.218205  0  2.652895  0  0  0.221699  0  2.976871  0  0  0.220478  0  2.988728  0  0.315625  0  0.132001  0.221402  0  2.970155  0
S  S69  1  0.30166682  0.94869709  0.43827726  1  0  0.2173  0  2.652097  0  0  0.220947  0  2.976553  0  0  0.219701  0  2.988423  0  0.309249  0  0.131515  0.220643  0  2.969801  0
S  S70  1  0.31105041  0.44882530  0.93826318  1  0  0.218188  0  2.652929  0  0  0.221709  0  2.976921  0  0  0.22047  0  2.988756  0  0.315262  0  0.131996  0.221409  0  2.970205  0
S  S71  1  0.69832883  0.05130310  0.56172095  1  0  0.217334  0  2.651997  0  0  0.220967  0  2.976428  0  0  0.219719  0  2.988295  0  0.30916  0  0.131542  0.220663  0  2.969675  0
S  S72  1  0.80072641  0.25001111  0.74979861  1  0  0.23608  0  2.787941  0  0  0.248095  0  3.118309  0  0  0.246151  0  3.131593  0  0.324325  0  0.153936  0.248335  0  3.111369  0
S  S73  1  0.19926394  0.74999391  0.25020224  1  0  0.236108  0  2.787976  0  0  0.248095  0  3.118343  0  0  0.24615  0  3.13163  0  0.324169  0  0.15389  0.248332  0  3.111405  0
O  O74  1  0.32914342  0.88106384  0.79073164  1  0  -0.899268  0  1.925069  0  0  -0.86095  0  2.122992  0  0  -0.87929  0  2.091726  0  -1.239029  0  -0.630893  -0.83825  0  2.149705  0
O  O75  1  0.00071314  0.61872368  0.70948105  1  0  -0.897923  0  1.925088  0  0  -0.859346  0  2.122457  0  0  -0.877689  0  2.091283  0  -1.27999  0  -0.629928  -0.836567  0  2.149185  0
O  O76  1  0.67084917  0.11894037  0.20926741  1  0  -0.899304  0  1.925003  0  0  -0.86098  0  2.122956  0  0  -0.879325  0  2.091681  0  -1.23914  0  -0.63093  -0.838277  0  2.149674  0
O  O77  1  0.99929215  0.38127168  0.29051549  1  0  -0.898043  0  1.925049  0  0  -0.859437  0  2.122437  0  0  -0.877788  0  2.09126  0  -1.279764  0  -0.629992  -0.836654  0  2.149173  0
O  O78  1  0.68180561  0.75433043  0.94255679  1  0  -0.743939  0  2.018775  0  0  -0.707418  0  2.278339  0  0  -0.730731  0  2.262504  0  -1.202878  0  -0.417433  -0.678115  0  2.293011  0
O  O79  1  0.37807184  0.74583033  0.55759350  1  0  -0.74318  0  2.01693  0  0  -0.706787  0  2.275936  0  0  -0.730177  0  2.260346  0  -1.198233  0  -0.417393  -0.677353  0  2.2906  0
O  O80  1  0.31819331  0.24566895  0.05744036  1  0  -0.743851  0  2.018844  0  0  -0.707324  0  2.278395  0  0  -0.73064  0  2.262568  0  -1.202834  0  -0.417458  -0.678015  0  2.293069  0
O  O81  1  0.62193885  0.25416825  0.44240118  1  0  -0.743132  0  2.016602  0  0  -0.706757  0  2.275626  0  0  -0.730139  0  2.260041  0  -1.198694  0  -0.417373  -0.677313  0  2.290293  0
O  O82  1  0.82763424  0.91072774  0.02449377  1  0  -0.918581  0  1.879099  0  0  -0.886085  0  2.07445  0  0  -0.903396  0  2.043703  0  -1.27101  0  -0.63515  -0.862861  0  2.101232  0
O  O83  1  0.76246408  0.58922950  0.47554472  1  0  -0.917815  0  1.879603  0  0  -0.885433  0  2.075183  0  0  -0.902653  0  2.044378  0  -1.268872  0  -0.635116  -0.862155  0  2.102019  0
O  O84  1  0.17235442  0.08927647  0.97550567  1  0  -0.918741  0  1.878973  0  0  -0.886268  0  2.074363  0  0  -0.903579  0  2.043612  0  -1.271564  0  -0.635189  -0.863038  0  2.10115  0
O  O85  1  0.23752339  0.41076666  0.52445857  1  0  -0.918072  0  1.879213  0  0  -0.885665  0  2.074781  0  0  -0.902905  0  2.044032  0  -1.268955  0  -0.635201  -0.862377  0  2.101624  0
O  O86  1  0.27934342  0.81867448  0.97001365  1  0  -0.743561  0  2.013267  0  0  -0.696197  0  2.264205  0  0  -0.721961  0  2.2517  0  -1.205919  0  -0.410892  -0.667039  0  2.274983  0
O  O87  1  0.06717206  0.68153293  0.53015956  1  0  -0.742585  0  2.013209  0  0  -0.695651  0  2.264212  0  0  -0.721389  0  2.251682  0  -1.200257  0  -0.410654  -0.666356  0  2.274941  0
O  O88  1  0.72065230  0.18132007  0.02998228  1  0  -0.743566  0  2.013332  0  0  -0.696187  0  2.264246  0  0  -0.721955  0  2.251745  0  -1.205917  0  -0.410846  -0.667023  0  2.275028  0
O  O89  1  0.93283873  0.31846163  0.46984077  1  0  -0.742579  0  2.013137  0  0  -0.695635  0  2.264132  0  0  -0.721383  0  2.251646  0  -1.199759  0  -0.41066  -0.666325  0  2.274858  0
O  O90  1  0.81501161  0.32238067  0.13717058  1  0  -0.738052  0  2.042805  0  0  -0.697685  0  2.294997  0  0  -0.721966  0  2.282167  0  -1.194058  0  -0.400756  -0.669423  0  2.307273  0
O  O91  1  0.27482795  0.17752249  0.36286443  1  0  -0.737643  0  2.043009  0  0  -0.697543  0  2.294765  0  0  -0.721832  0  2.281904  0  -1.181299  0  -0.401108  -0.669165  0  2.307076  0
O  O92  1  0.18499051  0.67761147  0.86283268  1  0  -0.737955  0  2.042877  0  0  -0.697565  0  2.29506  0  0  -0.721844  0  2.28223  0  -1.194087  0  -0.400701  -0.66931  0  2.307332  0
O  O93  1  0.72517262  0.82247769  0.63713948  1  0  -0.737668  0  2.043088  0  0  -0.697593  0  2.294966  0  0  -0.721882  0  2.282103  0  -1.181333  0  -0.401153  -0.669224  0  2.307274  0
O  O94  1  0.51791611  0.33317895  0.25066279  1  0  -0.747821  0  2.030011  0  0  -0.700848  0  2.276784  0  0  -0.726004  0  2.263733  0  -1.208937  0  -0.38649  -0.67157  0  2.28859  0
O  O95  1  0.10213316  0.16676845  0.24921643  1  0  -0.747319  0  2.031382  0  0  -0.700716  0  2.277939  0  0  -0.72594  0  2.264868  0  -1.207477  0  -0.387149  -0.671502  0  2.28973  0
O  O96  1  0.48207859  0.66682285  0.74933725  1  0  -0.747794  0  2.029859  0  0  -0.700823  0  2.276637  0  0  -0.725974  0  2.263578  0  -1.208845  0  -0.386451  -0.671573  0  2.288481  0
O  O97  1  0.89787515  0.83323254  0.75078461  1  0  -0.747439  0  2.031348  0  0  -0.700792  0  2.277917  0  0  -0.726033  0  2.264878  0  -1.20732  0  -0.387192  -0.671579  0  2.289703  0
O  O98  1  0.59405973  0.98614438  0.86848204  1  0  -0.703839  0  2.029721  0  0  -0.64866  0  2.259151  0  0  -0.672504  0  2.247713  0  -1.19478  0  -0.34378  -0.624619  0  2.265297  0
O  O99  1  0.44869452  0.51411452  0.63144180  1  0  -0.704058  0  2.03115  0  0  -0.648737  0  2.260015  0  0  -0.672757  0  2.248999  0  -1.196474  0  -0.3441  -0.624597  0  2.266126  0
O  O100  1  0.40593754  0.01385259  0.13151987  1  0  -0.703769  0  2.029828  0  0  -0.648591  0  2.259279  0  0  -0.672435  0  2.247843  0  -1.194669  0  -0.343738  -0.624546  0  2.26542  0
O  O101  1  0.55130608  0.48589130  0.36855366  1  0  -0.704077  0  2.031103  0  0  -0.648764  0  2.260037  0  0  -0.67276  0  2.248963  0  -1.196348  0  -0.344035  -0.624618  0  2.266144  0
O  O102  1  0.94392141  0.03986612  0.85045636  1  0  -0.705438  0  2.023991  0  0  -0.654887  0  2.266153  0  0  -0.67894  0  2.254492  0  -1.190995  0  -0.368359  -0.62952  0  2.273075  0
O  O103  1  0.83437160  0.46012794  0.64932766  1  0  -0.704363  0  2.024499  0  0  -0.654152  0  2.266498  0  0  -0.678268  0  2.255037  0  -1.187633  0  -0.368617  -0.628693  0  2.273275  0
O  O104  1  0.05607949  0.96012924  0.14954457  1  0  -0.70545  0  2.024065  0  0  -0.654819  0  2.266139  0  0  -0.678875  0  2.25448  0  -1.190996  0  -0.368321  -0.629436  0  2.273035  0
O  O105  1  0.16562906  0.53987305  0.35067218  1  0  -0.70433  0  2.024669  0  0  -0.654065  0  2.266605  0  0  -0.67818  0  2.255133  0  -1.187614  0  -0.368587  -0.628605  0  2.273376  0
