# generated using pymatgen
data_ZnP2H10(C2O3)2
_symmetry_space_group_name_H-M   'P 1'
_cell_length_a   7.97659075
_cell_length_b   7.88918305
_cell_length_c   8.89522837
_cell_angle_alpha   116.33232777
_cell_angle_beta   111.57378173
_cell_angle_gamma   89.98177530
_symmetry_Int_Tables_number   1
_chemical_formula_structural   ZnP2H10(C2O3)2
_chemical_formula_sum   'Zn2 P4 H20 C8 O12'
_cell_volume   457.55190140
_cell_formula_units_Z   2
loop_
 _symmetry_equiv_pos_site_id
 _symmetry_equiv_pos_as_xyz
  1  'x, y, z'
loop_
 _atom_site_type_symbol
 _atom_site_label
 _atom_site_symmetry_multiplicity
 _atom_site_fract_x
 _atom_site_fract_y
 _atom_site_fract_z
 _atom_site_occupancy
 _atom_site_pbe_bader_spin_density
 _atom_site_pbe_cm5_charge
 _atom_site_pbe_ddec_charge
 _atom_site_pbe_ddec_spin_density
 _atom_site_pbe_ddec_sum_bond_order
 _atom_site_pbe_magmom
Zn  Zn0  1  0.74995931  0.03795786  0.99988471  1  0  0.722816  1.046759  0  2.295408  0
Zn  Zn1  1  0.25003673  0.96203684  0.00011187  1  0  0.722811  1.046737  0  2.295438  0
P  P2  1  0.03827744  0.88748302  0.20975574  1  0  0.361306  1.319246  0  5.26572  0
P  P3  1  0.46176346  0.67777763  0.79007976  1  0  0.361654  1.320385  0  5.265941  0
P  P4  1  0.96173025  0.11250882  0.79024428  1  0  0.361306  1.31945  0  5.265467  0
P  P5  1  0.53822822  0.32222447  0.20991071  1  0  0.361633  1.320408  0  5.266077  0
H  H6  1  0.03454277  0.59181827  0.17389214  1  0  0.348306  0.414507  0  0.847248  0
H  H7  1  0.46549390  0.41813949  0.82608663  1  0  0.348645  0.414706  0  0.846923  0
H  H8  1  0.96548950  0.40818225  0.82612113  1  0  0.348322  0.414528  0  0.847157  0
H  H9  1  0.53452924  0.58187123  0.17392250  1  0  0.348635  0.414643  0  0.847086  0
H  H10  1  0.26599105  0.16546334  0.42662902  1  0  0.10934  0.15414  0  1.000912  0
H  H11  1  0.23379429  0.73882483  0.57326827  1  0  0.109519  0.154062  0  1.001137  0
H  H12  1  0.73400222  0.83454741  0.57336550  1  0  0.109358  0.154203  0  1.000845  0
H  H13  1  0.76618611  0.26115832  0.42671769  1  0  0.109489  0.153983  0  1.001244  0
H  H14  1  0.21204037  0.04327405  0.53493613  1  0  0.106608  0.153266  0  0.988107  0
H  H15  1  0.28781042  0.50832078  0.46493045  1  0  0.106695  0.153448  0  0.987758  0
H  H16  1  0.78795604  0.95674521  0.46506850  1  0  0.106613  0.153278  0  0.98808  0
H  H17  1  0.71217723  0.49166366  0.53506497  1  0  0.106702  0.153469  0  0.987751  0
H  H18  1  0.39593023  0.79641554  0.42196090  1  0  0.088436  0.084673  0  1.0184  0
H  H19  1  0.10425867  0.37469071  0.57833788  1  0  0.088586  0.084357  0  1.019046  0
H  H20  1  0.60407403  0.20360066  0.57805269  1  0  0.088456  0.084756  0  1.018433  0
H  H21  1  0.89573139  0.62529950  0.42166066  1  0  0.088594  0.084369  0  1.019011  0
H  H22  1  0.42785314  0.89604682  0.29044365  1  0  0.089214  0.083748  0  1.012587  0
H  H23  1  0.07211605  0.60588149  0.70956027  1  0  0.089335  0.084209  0  1.012306  0
H  H24  1  0.57215322  0.10397374  0.70957126  1  0  0.089157  0.08374  0  1.01247  0
H  H25  1  0.92787319  0.39411160  0.29043922  1  0  0.089327  0.084197  0  1.012198  0
C  C26  1  0.24275568  0.02313693  0.41763294  1  0  -0.169374  -0.478494  0  3.938579  0
C  C27  1  0.25719840  0.60553324  0.58231229  1  0  -0.170289  -0.47963  0  3.94016  0
C  C28  1  0.75724406  0.97687796  0.58237313  1  0  -0.169405  -0.478616  0  3.938441  0
C  C29  1  0.74278566  0.39445412  0.41768101  1  0  -0.170233  -0.479621  0  3.940623  0
C  C30  1  0.41257332  0.93263530  0.41867918  1  0  -0.16804  -0.100744  0  3.937722  0
C  C31  1  0.08746403  0.51409253  0.58139155  1  0  -0.168049  -0.100567  0  3.937278  0
C  C32  1  0.58742685  0.06738092  0.58133207  1  0  -0.168038  -0.100824  0  3.937751  0
C  C33  1  0.91251937  0.48589759  0.41860720  1  0  -0.168095  -0.100535  0  3.937478  0
O  O34  1  0.88498741  0.00276070  0.21631911  1  0  -0.368369  -0.73631  0  2.270931  0
O  O35  1  0.61497764  0.78635244  0.78337276  1  0  -0.368126  -0.736254  0  2.269506  0
O  O36  1  0.11500699  0.99721821  0.78366817  1  0  -0.368354  -0.736407  0  2.270863  0
O  O37  1  0.38500624  0.21365270  0.21660986  1  0  -0.368101  -0.736255  0  2.269474  0
O  O38  1  0.07990066  0.82316730  0.03991576  1  0  -0.378929  -0.779605  0  2.329612  0
O  O39  1  0.42021194  0.78341870  0.95993679  1  0  -0.379135  -0.779634  0  2.330093  0
O  O40  1  0.92011584  0.17682013  0.96008958  1  0  -0.378895  -0.779655  0  2.329514  0
O  O41  1  0.57979249  0.21658627  0.04006095  1  0  -0.379127  -0.779627  0  2.330051  0
O  O42  1  0.96765480  0.69594001  0.20947235  1  0  -0.379918  -0.637898  0  2.208824  0
O  O43  1  0.53241833  0.48651233  0.79044472  1  0  -0.380226  -0.638331  0  2.208865  0
O  O44  1  0.03236792  0.30405174  0.79053778  1  0  -0.379967  -0.638022  0  2.208744  0
O  O45  1  0.46759273  0.51349993  0.20955579  1  0  -0.380197  -0.638236  0  2.209066  0
