# generated using pymatgen
data_NiH11C12(NO2)2
_symmetry_space_group_name_H-M   'P 1'
_cell_length_a   9.90921237
_cell_length_b   10.44616071
_cell_length_c   27.83007125
_cell_angle_alpha   89.99986368
_cell_angle_beta   90.00016100
_cell_angle_gamma   90.00007448
_symmetry_Int_Tables_number   1
_chemical_formula_structural   NiH11C12(NO2)2
_chemical_formula_sum   'Ni8 H88 C96 N16 O32'
_cell_volume   2880.78042532
_cell_formula_units_Z   8
loop_
 _symmetry_equiv_pos_site_id
 _symmetry_equiv_pos_as_xyz
  1  'x, y, z'
loop_
 _atom_site_type_symbol
 _atom_site_label
 _atom_site_symmetry_multiplicity
 _atom_site_fract_x
 _atom_site_fract_y
 _atom_site_fract_z
 _atom_site_occupancy
 _atom_site_pbe_bader_charge
 _atom_site_pbe_bader_spin_density
 _atom_site_pbe_cm5_charge
 _atom_site_pbe_ddec_charge
 _atom_site_pbe_ddec_spin_density
 _atom_site_pbe_ddec_sum_bond_order
 _atom_site_pbe_magmom
Ni  Ni0  1  0.15337056  0.47704963  0.72243675  1  1.171687  1.557646  0.646585  0.802718  1.76809  2.498216  1.545
Ni  Ni1  1  0.16402185  0.98938504  0.78276012  1  1.161363  1.556251  0.635446  0.793179  1.764463  2.440218  1.543
Ni  Ni2  1  0.84662976  0.47704859  0.27756436  1  1.171841  1.557648  0.646589  0.802731  1.768097  2.498338  1.545
Ni  Ni3  1  0.83597817  0.98938533  0.21724017  1  1.161353  1.556248  0.635448  0.793244  1.76446  2.440189  1.543
Ni  Ni4  1  0.65336918  0.52295849  0.77756440  1  1.171812  1.557644  0.64651  0.802592  1.768102  2.498155  1.545
Ni  Ni5  1  0.66402130  0.01061926  0.71724104  1  1.161293  1.556249  0.635507  0.793335  1.764467  2.440047  1.543
Ni  Ni6  1  0.34663020  0.52295049  0.22243559  1  1.171763  1.557642  0.646556  0.802665  1.768089  2.498197  1.545
Ni  Ni7  1  0.33597737  0.01061374  0.28275941  1  1.161333  1.556255  0.635466  0.793261  1.764464  2.440184  1.543
H  H8  1  0.21806365  0.14255646  0.71644306  1  0.469657  -5e-05  0.28702  0.289157  0.000161  1.010809  0.0
H  H9  1  0.29986416  0.00370074  0.70559662  1  0.439415  0.000823  0.291755  0.293406  0.000787  0.975132  0.0
H  H10  1  0.33203790  0.51821587  0.78148590  1  0.507557  -0.000646  0.291384  0.292945  -0.000572  1.007108  -0.001
H  H11  1  0.20187129  0.60357819  0.80186052  1  0.423033  0.001094  0.29487  0.28504  0.000793  0.959627  0.0
H  H12  1  0.13779178  0.55478760  0.61948799  1  0.117754  0.001694  0.118523  0.09339  0.000588  0.999476  0.001
H  H13  1  0.00392208  0.49213602  0.54657869  1  0.052781  0.000917  0.099084  0.100504  0.000456  1.023666  0.0
H  H14  1  0.83661199  0.18272976  0.63140907  1  0.147494  0.000977  0.108343  0.124559  0.000495  1.045638  0.0
H  H15  1  0.97141214  0.26327980  0.69994827  1  0.14054  0.001584  0.125899  0.102208  0.000404  0.999754  0.001
H  H16  1  0.76561419  0.47880536  0.51940128  1  0.036024  9e-05  0.100905  0.099054  5.4e-05  1.000278  0.0
H  H17  1  0.63047396  0.40435996  0.44993610  1  0.058758  3.7e-05  0.104299  0.10429  1.2e-05  1.0016  0.0
H  H18  1  0.73590400  0.01419361  0.48301098  1  0.026347  8.7e-05  0.100563  0.097769  5e-05  1.001119  0.0
H  H19  1  0.86997048  0.08870219  0.55268745  1  0.051928  0.000114  0.10611  0.10827  6.7e-05  0.992625  0.0
H  H20  1  0.64589560  0.31543568  0.37185011  1  0.157739  0.00084  0.10858  0.124127  0.000479  1.026969  0.0
H  H21  1  0.49913690  0.23651303  0.30617291  1  0.144054  0.001273  0.123178  0.102748  0.000363  1.012623  0.001
H  H22  1  0.36887305  0.92666769  0.38563587  1  0.121069  0.00163  0.11806  0.094814  0.00063  1.003004  0.001
H  H23  1  0.51031044  0.99147414  0.45623185  1  0.087197  0.000862  0.099328  0.099251  0.000436  1.027829  0.0
H  H24  1  0.02055169  0.83420109  0.64888874  1  0.093017  7.3e-05  0.103916  0.125935  -3.9e-05  0.978638  0.0
H  H25  1  0.19833172  0.84920576  0.64801351  1  0.051683  0.000708  0.10312  0.120814  0.000266  0.96543  0.0
H  H26  1  0.08709833  0.05990421  0.65095631  1  0.046768  0.005733  0.101619  0.059209  0.002682  0.977203  0.003
H  H27  1  0.26078520  0.39441989  0.85028632  1  0.05326  0.004557  0.105877  0.06837  0.002114  0.954186  0.002
H  H28  1  0.05159213  0.51252817  0.86684702  1  0.039462  -0.000352  0.096416  0.109752  -0.000386  0.999892  0.0
H  H29  1  0.01576473  0.34758240  0.86101490  1  0.066524  0.000156  0.105821  0.128684  2e-05  0.974363  0.0
H  H30  1  0.78193319  0.14255818  0.28355620  1  0.46964  -5e-05  0.286987  0.289153  0.000161  1.010798  0.0
H  H31  1  0.70013451  0.00370134  0.29440312  1  0.439406  0.000823  0.291742  0.293397  0.000787  0.975147  0.0
H  H32  1  0.66796147  0.51821020  0.21851374  1  0.507558  -0.000646  0.291418  0.293005  -0.000572  1.007033  -0.001
H  H33  1  0.79813123  0.60357855  0.19813976  1  0.423058  0.001094  0.294902  0.28507  0.000793  0.959586  0.0
H  H34  1  0.86220764  0.55478497  0.38051304  1  0.117769  0.001693  0.118536  0.093418  0.000588  0.999478  0.001
H  H35  1  0.99608028  0.49213022  0.45342168  1  0.051775  0.000924  0.099098  0.100506  0.000456  1.023667  0.0
H  H36  1  0.16338490  0.18272635  0.36858943  1  0.147463  0.000977  0.108335  0.124585  0.000495  1.045579  0.0
H  H37  1  0.02858588  0.26327953  0.30005087  1  0.140502  0.001584  0.125917  0.102241  0.000404  0.999712  0.001
H  H38  1  0.23438412  0.47880037  0.48059695  1  0.036066  9e-05  0.1009  0.099084  5.4e-05  1.000213  0.0
H  H39  1  0.36952324  0.40435661  0.55006256  1  0.058855  3.7e-05  0.104281  0.104232  1.2e-05  1.001697  0.0
H  H40  1  0.26409569  0.01418843  0.51698874  1  0.026264  8.7e-05  0.100549  0.097722  5e-05  1.001138  0.0
H  H41  1  0.13003032  0.08869536  0.44731221  1  0.051831  0.000114  0.106128  0.108354  6.7e-05  0.992576  0.0
H  H42  1  0.35410349  0.31543469  0.62814899  1  0.157745  0.00084  0.10857  0.124119  0.000479  1.027007  0.0
H  H43  1  0.50086309  0.23651276  0.69382805  1  0.144033  0.001273  0.123165  0.102741  0.000363  1.012594  0.001
H  H44  1  0.63112688  0.92667000  0.61436412  1  0.121112  0.00163  0.118086  0.094855  0.00063  1.003003  0.001
H  H45  1  0.48969058  0.99147289  0.54376844  1  0.087594  0.00086  0.099335  0.099232  0.000436  1.02784  0.0
H  H46  1  0.97944307  0.83419784  0.35110953  1  0.093127  7.3e-05  0.103956  0.126018  -3.9e-05  0.978538  0.0
H  H47  1  0.80166407  0.84920420  0.35198583  1  0.051565  0.000708  0.103113  0.120837  0.000266  0.965419  0.0
H  H48  1  0.91290142  0.05990185  0.34904301  1  0.046803  0.005733  0.10164  0.059232  0.002682  0.977161  0.003
H  H49  1  0.73921602  0.39441857  0.14971307  1  0.053261  0.004557  0.105878  0.068381  0.002114  0.954157  0.002
H  H50  1  0.94841026  0.51252626  0.13315334  1  0.039477  -0.000352  0.096438  0.109773  -0.000386  0.999908  0.0
H  H51  1  0.98423441  0.34758433  0.13898525  1  0.066537  0.000157  0.105839  0.128719  2e-05  0.974366  0.0
H  H52  1  0.71806580  0.85744504  0.78355636  1  0.469718  -4.9e-05  0.287007  0.289173  0.00016  1.010802  0.0
H  H53  1  0.79986355  0.99630277  0.79440504  1  0.439389  0.000823  0.291752  0.293404  0.000787  0.975124  0.0
H  H54  1  0.83203599  0.48178673  0.71851759  1  0.50752  -0.000645  0.29132  0.29281  -0.000572  1.007121  -0.001
H  H55  1  0.70186507  0.39642999  0.69814176  1  0.422909  0.001094  0.294877  0.284973  0.000794  0.959604  0.0
H  H56  1  0.63779413  0.44521572  0.88051565  1  0.117745  0.001694  0.118594  0.09344  0.000588  0.99945  0.001
H  H57  1  0.50391903  0.50786617  0.95342482  1  0.05177  0.000925  0.099106  0.100525  0.000456  1.023602  0.0
H  H58  1  0.33660995  0.81726901  0.86859082  1  0.147491  0.000976  0.108328  0.124573  0.000494  1.04559  0.0
H  H59  1  0.47141348  0.73672010  0.80005427  1  0.140614  0.001584  0.12589  0.10219  0.000404  0.999758  0.001
H  H60  1  0.26561262  0.52119524  0.98059854  1  0.03605  9e-05  0.100918  0.099095  5.4e-05  1.000289  0.0
H  H61  1  0.13047213  0.59564077  0.05006471  1  0.058751  3.7e-05  0.1043  0.10428  1.2e-05  1.001598  0.0
H  H62  1  0.23590244  0.98580821  0.01698957  1  0.026312  8.7e-05  0.100545  0.097773  5e-05  1.001128  0.0
H  H63  1  0.36996919  0.91129854  0.94731284  1  0.051933  0.000114  0.106108  0.10827  6.7e-05  0.992618  0.0
H  H64  1  0.14589754  0.68456602  0.12814928  1  0.157743  0.00084  0.108582  0.124132  0.000479  1.026997  0.0
H  H65  1  0.99913620  0.76348816  0.19382719  1  0.144057  0.001273  0.123182  0.102728  0.000363  1.012649  0.001
H  H66  1  0.86887380  0.07333142  0.11436231  1  0.121108  0.00163  0.118085  0.094838  0.00063  1.002964  0.001
H  H67  1  0.01031280  0.00852453  0.04376669  1  0.087163  0.000862  0.099316  0.099214  0.000436  1.027864  0.0
H  H68  1  0.52054737  0.16579442  0.85111443  1  0.092913  7.3e-05  0.103881  0.125928  -3.9e-05  0.978651  0.0
H  H69  1  0.69832940  0.15079572  0.85198804  1  0.051585  0.000709  0.103152  0.120878  0.000266  0.965466  0.0
H  H70  1  0.58709405  0.94009234  0.84904298  1  0.046752  0.005732  0.101635  0.059239  0.002682  0.977153  0.003
H  H71  1  0.76079099  0.60557592  0.64971422  1  0.053224  0.004558  0.105868  0.06838  0.002114  0.954169  0.002
H  H72  1  0.55159259  0.48746929  0.63315546  1  0.039516  -0.000352  0.096451  0.109744  -0.000386  0.999925  0.0
H  H73  1  0.51576545  0.65242268  0.63898935  1  0.066385  0.000157  0.105796  0.128596  2e-05  0.97436  0.0
H  H74  1  0.28193303  0.85744274  0.21644189  1  0.469618  -4.9e-05  0.287011  0.289139  0.000161  1.010793  0.0
H  H75  1  0.20013647  0.99629852  0.20559525  1  0.439409  0.000823  0.291759  0.293415  0.000787  0.975108  0.0
H  H76  1  0.16796535  0.48178196  0.28148316  1  0.507535  -0.000646  0.291327  0.292764  -0.000572  1.007211  -0.001
H  H77  1  0.29813212  0.39642238  0.30185906  1  0.423069  0.001093  0.29487  0.284991  0.000793  0.959581  0.0
H  H78  1  0.36220716  0.44521317  0.11948512  1  0.117777  0.001693  0.118573  0.093429  0.000588  0.999482  0.001
H  H79  1  0.49608133  0.50786521  0.04657662  1  0.052735  0.000917  0.099083  0.10045  0.000456  1.023696  0.0
H  H80  1  0.66338781  0.81727059  0.13140962  1  0.14749  0.000976  0.108317  0.124558  0.000495  1.04563  0.0
H  H81  1  0.52858417  0.73671916  0.19994696  1  0.140591  0.001584  0.125893  0.102174  0.000404  0.999727  0.001
H  H82  1  0.73438877  0.52119475  0.01940181  1  0.036033  9e-05  0.100903  0.099065  5.4e-05  1.000285  0.0
H  H83  1  0.86952937  0.59563837  0.94993665  1  0.058744  3.7e-05  0.104297  0.104257  1.2e-05  1.001622  0.0
H  H84  1  0.76410262  0.98580834  0.98301072  1  0.026324  8.7e-05  0.100536  0.097736  5e-05  1.001129  0.0
H  H85  1  0.63003577  0.91129866  0.05268680  1  0.051944  0.000114  0.106116  0.108291  6.7e-05  0.992595  0.0
H  H86  1  0.85410509  0.68456219  0.87185200  1  0.157723  0.00084  0.108586  0.124133  0.000479  1.026954  0.0
H  H87  1  0.00086351  0.76348656  0.80617295  1  0.144037  0.001273  0.123181  0.102722  0.000363  1.012672  0.001
H  H88  1  0.13113001  0.07332948  0.88563629  1  0.121098  0.00163  0.118072  0.094812  0.00063  1.002993  0.001
H  H89  1  0.98969293  0.00852224  0.95623196  1  0.087641  0.00086  0.099325  0.099276  0.000436  1.027819  0.0
H  H90  1  0.47945051  0.16579566  0.14888660  1  0.092965  7.3e-05  0.103897  0.125957  -3.9e-05  0.978599  0.0
H  H91  1  0.30167149  0.15079579  0.14801192  1  0.051598  0.000709  0.103129  0.120849  0.000266  0.965435  0.0
H  H92  1  0.41290590  0.94009349  0.15095736  1  0.046776  0.005733  0.101654  0.059264  0.002682  0.977139  0.003
H  H93  1  0.23921153  0.60557751  0.35028390  1  0.053308  0.004557  0.10587  0.068356  0.002114  0.954197  0.002
H  H94  1  0.44840977  0.48746816  0.36684600  1  0.039465  -0.000352  0.096409  0.109719  -0.000386  0.999929  0.0
H  H95  1  0.48423410  0.65241875  0.36101053  1  0.066424  0.000157  0.1058  0.128604  2e-05  0.974369  0.0
C  C96  1  0.06866918  0.47374055  0.61989763  1  0.465733  -0.005892  0.04606  0.097976  -0.006777  3.949003  -0.004
C  C97  1  0.99317739  0.43860776  0.57996756  1  -0.041693  0.00563  -0.092649  -0.192605  0.002986  3.990187  0.004
C  C98  1  0.90758021  0.33170048  0.58242893  1  -0.027658  -0.00798  0.004949  0.101835  -0.008914  4.008777  -0.005
C  C99  1  0.90141335  0.26578234  0.62624343  1  0.016871  0.006316  -0.088212  -0.186101  0.003531  3.939225  0.004
C  C100  1  0.97796956  0.30876169  0.66481144  1  0.385695  -0.005061  0.050047  0.09908  -0.006011  3.929866  -0.004
C  C101  1  0.82740311  0.28890015  0.54087314  1  -0.026294  -0.001066  -0.005734  0.067497  -0.00127  3.999115  0.0
C  C102  1  0.76038965  0.37685597  0.51107616  1  -0.025594  -0.000633  -0.090064  -0.128931  -0.000747  4.002371  0.0
C  C103  1  0.68427242  0.33513258  0.47214451  1  -0.001829  -0.001071  -0.085969  -0.118712  -0.001214  3.987924  -0.001
C  C104  1  0.67278399  0.20399734  0.46166238  1  -0.035499  -0.000811  -0.006675  0.06416  -0.001004  3.997412  0.0
C  C105  1  0.74062294  0.11619278  0.49133898  1  0.020251  -0.000805  -0.08921  -0.12589  -0.000937  4.000334  0.0
C  C106  1  0.81633550  0.15781948  0.53035615  1  -0.024513  -0.000903  -0.085883  -0.119916  -0.001045  3.985621  -0.001
C  C107  1  0.59017582  0.16034215  0.42083350  1  -0.041584  -0.008111  0.006081  0.104027  -0.009044  4.002498  -0.005
C  C108  1  0.58507338  0.22964239  0.37764709  1  -0.038482  0.005702  -0.085485  -0.178849  0.003094  3.930794  0.004
C  C109  1  0.50362172  0.18632797  0.34044809  1  0.421459  -0.004996  0.046057  0.094128  -0.005848  3.925231  -0.003
C  C110  1  0.43146266  0.01248689  0.38486268  1  0.481396  -0.005698  0.044257  0.088569  -0.006592  3.955017  -0.004
C  C111  1  0.51181534  0.04852302  0.42346879  1  -0.093276  0.004826  -0.092314  -0.190632  0.002523  3.993662  0.004
C  C112  1  0.12064663  0.76588590  0.71184087  1  1.577345  -3.5e-05  0.214205  0.644552  -0.000476  4.104975  0.0
C  C113  1  0.10793412  0.86252344  0.67067959  1  -0.061035  0.007542  -0.158588  -0.334526  0.004125  3.908074  0.006
C  C114  1  0.09531906  0.00364803  0.68441080  1  0.292478  0.009839  -0.003279  0.072212  0.006277  3.903647  0.005
C  C115  1  0.96301277  0.02209736  0.71259764  1  1.590096  -0.001166  0.213783  0.565539  -0.002233  4.12102  -0.002
C  C116  1  0.19178950  0.28355729  0.79066844  1  1.577457  0.001148  0.217963  0.575945  0.000344  4.101114  0.0
C  C117  1  0.18970982  0.40886448  0.82022562  1  0.3266  0.01017  -0.001512  0.077548  0.006461  3.873923  0.005
C  C118  1  0.04902164  0.43276210  0.84099193  1  -0.052858  0.006902  -0.160578  -0.34315  0.003992  3.920985  0.005
C  C119  1  0.94065342  0.46179066  0.80342329  1  1.581371  8.6e-05  0.219047  0.645815  -0.000574  4.09272  -0.001
C  C120  1  0.93133215  0.47373993  0.38010169  1  0.46549  -0.005894  0.046019  0.097882  -0.006779  3.948926  -0.004
C  C121  1  0.00682389  0.43860479  0.42003251  1  -0.041681  0.005631  -0.092577  -0.192426  0.002986  3.990089  0.004
C  C122  1  0.09242193  0.33169763  0.41757123  1  -0.027617  -0.007981  0.004902  0.101706  -0.008915  4.008925  -0.005
C  C123  1  0.09859173  0.26578169  0.37375679  1  0.016676  0.006316  -0.088162  -0.18604  0.003531  3.939117  0.004
C  C124  1  0.02203457  0.30876024  0.33518802  1  0.38582  -0.005062  0.049999  0.098991  -0.006012  3.929978  -0.004
C  C125  1  0.17259797  0.28889522  0.45912598  1  -0.026163  -0.001066  -0.00567  0.067695  -0.00127  3.999068  0.0
C  C126  1  0.23960953  0.37685189  0.48892216  1  -0.02611  -0.000634  -0.090164  -0.129146  -0.000747  4.002387  0.0
C  C127  1  0.31572468  0.33512930  0.52785421  1  -0.001622  -0.001071  -0.085887  -0.118567  -0.001214  3.988017  -0.001
C  C128  1  0.32721394  0.20399497  0.53833682  1  -0.035484  -0.000812  -0.006619  0.064245  -0.001004  3.997297  0.0
C  C129  1  0.25937689  0.11618765  0.50865993  1  0.020035  -0.000805  -0.089204  -0.125818  -0.000937  4.000234  0.0
C  C130  1  0.18366540  0.15781354  0.46964237  1  -0.023928  -0.000903  -0.085939  -0.120142  -0.001045  3.985644  -0.001
C  C131  1  0.40982508  0.16034249  0.57916646  1  -0.041613  -0.008113  0.006062  0.103989  -0.009046  4.002327  -0.005
C  C132  1  0.41492661  0.22964246  0.62235388  1  -0.037953  0.005701  -0.085515  -0.178917  0.003094  3.930787  0.004
C  C133  1  0.49637720  0.18632983  0.65955184  1  0.420982  -0.004995  0.046047  0.094137  -0.005848  3.925197  -0.003
C  C134  1  0.56853703  0.01248816  0.61513740  1  0.481356  -0.005699  0.044199  0.088516  -0.006593  3.955  -0.004
C  C135  1  0.48818440  0.04852348  0.57653127  1  -0.093269  0.004826  -0.092269  -0.190541  0.002523  3.993605  0.004
C  C136  1  0.87934804  0.76588675  0.28815818  1  1.577337  -3.5e-05  0.214295  0.644784  -0.000477  4.104861  0.0
C  C137  1  0.89205967  0.86252214  0.32931938  1  -0.060907  0.007541  -0.158579  -0.334634  0.004124  3.908071  0.006
C  C138  1  0.90467860  0.00364492  0.31558894  1  0.292326  0.009839  -0.003362  0.072179  0.006276  3.903469  0.005
C  C139  1  0.03698593  0.02209527  0.28740351  1  1.590086  -0.001167  0.213921  0.565764  -0.002234  4.120826  -0.002
C  C140  1  0.80820854  0.28355760  0.20933140  1  1.577424  0.001148  0.21801  0.576  0.000344  4.101092  0.0
C  C141  1  0.81029142  0.40886211  0.17977447  1  0.326578  0.010169  -0.001505  0.07754  0.006461  3.874075  0.005
C  C142  1  0.95097863  0.43276099  0.15900850  1  -0.052882  0.006902  -0.16059  -0.343159  0.003992  3.921019  0.005
C  C143  1  0.05934587  0.46178821  0.19657711  1  1.581373  8.6e-05  0.219095  0.645865  -0.000574  4.092593  -0.001
C  C144  1  0.56866861  0.52626268  0.88010488  1  0.465912  -0.00589  0.045979  0.097928  -0.006775  3.949156  -0.004
C  C145  1  0.49317540  0.56139312  0.92003465  1  -0.04186  0.00563  -0.092602  -0.192512  0.002986  3.990006  0.004
C  C146  1  0.40757835  0.66830316  0.91757283  1  -0.027632  -0.007978  0.004951  0.101862  -0.008913  4.008589  -0.005
C  C147  1  0.40141224  0.73421842  0.87375797  1  0.016909  0.006314  -0.088236  -0.18618  0.00353  3.938995  0.004
C  C148  1  0.47797011  0.69123917  0.83519075  1  0.385577  -0.00506  0.050047  0.0991  -0.00601  3.929917  -0.004
C  C149  1  0.32740063  0.71110052  0.95912818  1  -0.026618  -0.001066  -0.00572  0.067515  -0.00127  3.999241  0.0
C  C150  1  0.26038829  0.62314367  0.98892438  1  -0.025587  -0.000633  -0.090086  -0.129016  -0.000747  4.002456  0.0
C  C151  1  0.18427152  0.66486822  0.02785635  1  -0.001683  -0.001071  -0.085937  -0.118649  -0.001214  3.987927  -0.001
C  C152  1  0.17278638  0.79600344  0.03833812  1  -0.035544  -0.000811  -0.006675  0.064191  -0.001003  3.997379  0.0
C  C153  1  0.24062219  0.88380904  0.00866122  1  0.020306  -0.000805  -0.089142  -0.125883  -0.000937  4.000274  0.0
C  C154  1  0.31633631  0.84218118  0.96964408  1  -0.024311  -0.000903  -0.085905  -0.119932  -0.001044  3.985601  -0.001
C  C155  1  0.09017657  0.83965566  0.07916727  1  -0.041262  -0.008111  0.006021  0.103955  -0.009045  4.002384  -0.005
C  C156  1  0.08507235  0.77035542  0.12235404  1  -0.037991  0.005701  -0.0855  -0.178878  0.003094  3.930867  0.004
C  C157  1  0.00362206  0.81367068  0.15955187  1  0.420977  -0.004994  0.046049  0.094143  -0.005847  3.925199  -0.003
C  C158  1  0.93146568  0.98751134  0.11513627  1  0.481368  -0.005698  0.044243  0.088582  -0.006593  3.954865  -0.004
C  C159  1  0.01181925  0.95147565  0.07653047  1  -0.093647  0.004825  -0.092269  -0.190565  0.002523  3.993522  0.004
C  C160  1  0.62063988  0.23411452  0.78816132  1  1.577354  -3.4e-05  0.214299  0.644765  -0.000475  4.104721  0.0
C  C161  1  0.60793160  0.13747888  0.82932259  1  -0.060875  0.007541  -0.158499  -0.334534  0.004124  3.908085  0.006
C  C162  1  0.59531660  0.99635523  0.81558993  1  0.29174  0.009843  -0.003312  0.072207  0.006276  3.903621  0.005
C  C163  1  0.46301131  0.97790635  0.78740346  1  1.590719  -0.001171  0.213788  0.565468  -0.002234  4.121129  -0.002
C  C164  1  0.69179894  0.71644992  0.70933023  1  1.577083  0.001147  0.217971  0.575894  0.000345  4.101353  0.0
C  C165  1  0.68971583  0.59114273  0.67977628  1  0.326675  0.010167  -0.001454  0.077509  0.006461  3.874281  0.005
C  C166  1  0.54902543  0.56723919  0.65900983  1  -0.052805  0.006903  -0.160555  -0.34296  0.003993  3.920931  0.005
C  C167  1  0.44065570  0.53821494  0.69658030  1  1.58157  8.3e-05  0.219121  0.645937  -0.000577  4.092279  -0.001
C  C168  1  0.43133179  0.52625926  0.11989583  1  0.465746  -0.005892  0.046017  0.09795  -0.006778  3.948979  -0.004
C  C169  1  0.50682504  0.56139483  0.07996566  1  -0.041735  0.00563  -0.092611  -0.192453  0.002986  3.990108  0.004
C  C170  1  0.59242123  0.66830114  0.08242774  1  -0.027661  -0.007979  0.004944  0.10175  -0.008914  4.008692  -0.005
C  C171  1  0.59858743  0.73421996  0.12624291  1  0.016869  0.006315  -0.088193  -0.18607  0.003531  3.938974  0.004
C  C172  1  0.52202950  0.69123749  0.16481017  1  0.385716  -0.00506  0.050087  0.099164  -0.00601  3.929919  -0.004
C  C173  1  0.67260204  0.71109982  0.04087307  1  -0.026579  -0.001066  -0.005829  0.067448  -0.00127  3.999396  0.0
C  C174  1  0.73961526  0.62314324  0.01107696  1  -0.025837  -0.000633  -0.090027  -0.128901  -0.000747  4.002476  0.0
C  C175  1  0.81573209  0.66486753  0.97214495  1  -0.001634  -0.001071  -0.085975  -0.11871  -0.001214  3.987887  -0.001
C  C176  1  0.82721943  0.79600283  0.96166235  1  -0.035235  -0.000811  -0.006589  0.064243  -0.001003  3.997158  0.0
C  C177  1  0.75938475  0.88380816  0.99133916  1  0.020369  -0.000805  -0.089185  -0.125811  -0.000937  4.000144  0.0
C  C178  1  0.68366956  0.84217959  0.03035598  1  -0.024187  -0.000903  -0.085919  -0.120043  -0.001045  3.985665  -0.001
C  C179  1  0.90982829  0.83965541  0.92083279  1  -0.041953  -0.008111  0.006071  0.104057  -0.009044  4.002415  -0.005
C  C180  1  0.91492736  0.77035545  0.87764681  1  -0.037977  0.005702  -0.085481  -0.178813  0.003094  3.930664  0.004
C  C181  1  0.99637570  0.81367010  0.84044714  1  0.420986  -0.004995  0.046042  0.094098  -0.005849  3.924958  -0.003
C  C182  1  0.06853636  0.98751220  0.88486222  1  0.481409  -0.005698  0.04425  0.088654  -0.006593  3.954924  -0.004
C  C183  1  0.98818677  0.95147452  0.92346878  1  -0.093302  0.004826  -0.09231  -0.190727  0.002523  3.993661  0.004
C  C184  1  0.37935607  0.23411045  0.21184072  1  1.5776  -3.4e-05  0.214267  0.644829  -0.000474  4.104993  0.0
C  C185  1  0.39206725  0.13747796  0.17067882  1  -0.060947  0.00754  -0.158541  -0.334625  0.004124  3.908144  0.006
C  C186  1  0.40468140  0.99635328  0.18441107  1  0.292493  0.009839  -0.00332  0.072185  0.006277  3.903649  0.005
C  C187  1  0.53698970  0.97790822  0.21259828  1  1.590403  -0.001166  0.213817  0.565572  -0.002232  4.12115  -0.002
C  C188  1  0.30820474  0.71644048  0.29066672  1  1.577242  0.001149  0.217904  0.57589  0.000346  4.101509  0.0
C  C189  1  0.31028667  0.59114076  0.32022257  1  0.326716  0.010167  -0.001452  0.077504  0.006461  3.874255  0.005
C  C190  1  0.45097501  0.56723631  0.34099048  1  -0.052791  0.006904  -0.160526  -0.342961  0.003993  3.920889  0.005
C  C191  1  0.55934673  0.53821339  0.30342039  1  1.581632  8.4e-05  0.219203  0.646057  -0.000575  4.09227  -0.001
N  N192  1  0.20893065  0.04422751  0.71419301  1  -1.119156  0.088923  -0.642662  -0.619238  0.050104  3.480286  0.072
N  N193  1  0.23017615  0.51575268  0.78922172  1  -1.160419  0.083533  -0.637395  -0.617197  0.047137  3.468221  0.068
N  N194  1  0.06097949  0.41028073  0.66194354  1  -1.195822  0.058258  -0.330074  -0.215022  0.034109  3.558385  0.052
N  N195  1  0.42636325  0.08019802  0.34373124  1  -1.20664  0.052224  -0.326718  -0.218196  0.030572  3.553899  0.047
N  N196  1  0.79106807  0.04422731  0.28580561  1  -1.119103  0.088921  -0.642616  -0.619265  0.050104  3.48023  0.072
N  N197  1  0.76982423  0.51575101  0.21077791  1  -1.160504  0.083537  -0.637444  -0.617304  0.047139  3.468221  0.068
N  N198  1  0.93902377  0.41027847  0.33805548  1  -1.195497  0.058261  -0.330101  -0.215044  0.034111  3.558506  0.052
N  N199  1  0.57363552  0.08019999  0.65626878  1  -1.206583  0.052226  -0.3267  -0.218202  0.030573  3.553854  0.047
N  N200  1  0.70892993  0.95577685  0.78580676  1  -1.119135  0.088919  -0.6427  -0.619343  0.050102  3.480296  0.072
N  N201  1  0.73017419  0.48425458  0.71078202  1  -1.160325  0.083534  -0.637337  -0.616945  0.047136  3.468201  0.068
N  N202  1  0.56098271  0.58972344  0.83805896  1  -1.195813  0.058252  -0.33007  -0.215064  0.034106  3.558611  0.052
N  N203  1  0.92636448  0.91979925  0.15626807  1  -1.206555  0.052224  -0.326716  -0.218212  0.030572  3.553816  0.047
N  N204  1  0.29106903  0.95577266  0.21419321  1  -1.119122  0.088923  -0.642659  -0.619238  0.050105  3.48027  0.072
N  N205  1  0.26982514  0.48424893  0.28921944  1  -1.160597  0.083536  -0.637345  -0.616975  0.047136  3.468169  0.068
N  N206  1  0.43901979  0.58972072  0.16194241  1  -1.195779  0.058254  -0.330084  -0.215096  0.034107  3.558589  0.052
N  N207  1  0.07363342  0.91980038  0.84373157  1  -1.206624  0.052227  -0.326719  -0.218234  0.030574  3.553758  0.047
O  O208  1  0.15995872  0.79854660  0.75362517  1  -1.158199  0.07324  -0.305258  -0.545302  0.040619  2.271843  0.067
O  O209  1  0.09209932  0.65231023  0.69913271  1  -1.15536  0.071814  -0.32093  -0.561315  0.04018  2.380436  0.066
O  O210  1  0.97169376  0.02719000  0.75821808  1  -1.152557  0.074303  -0.300996  -0.521786  0.041087  2.338045  0.068
O  O211  1  0.85471244  0.02758647  0.68852291  1  -1.161386  0.069579  -0.310108  -0.542114  0.038914  2.383583  0.063
O  O212  1  0.17517467  0.17991052  0.81329437  1  -1.155665  0.07314  -0.304866  -0.538409  0.040722  2.306573  0.066
O  O213  1  0.21012176  0.29497408  0.74534086  1  -1.145442  0.066424  -0.303362  -0.524097  0.03654  2.328059  0.061
O  O214  1  0.96857473  0.44999893  0.75900625  1  -1.165184  0.058413  -0.29894  -0.540682  0.032303  2.371969  0.053
O  O215  1  0.82594207  0.49446187  0.81970093  1  -1.155492  0.080112  -0.311704  -0.556407  0.044647  2.322333  0.074
O  O216  1  0.84003902  0.79854192  0.24637313  1  -1.158296  0.073242  -0.305287  -0.54541  0.040621  2.271813  0.067
O  O217  1  0.90789418  0.65230912  0.30086644  1  -1.155315  0.071815  -0.320979  -0.561443  0.040181  2.380512  0.066
O  O218  1  0.02830595  0.02718532  0.24178199  1  -1.152494  0.074304  -0.301073  -0.521984  0.041088  2.337856  0.068
O  O219  1  0.14528525  0.02758053  0.31147824  1  -1.161337  0.069574  -0.310144  -0.54214  0.038912  2.383772  0.063
O  O220  1  0.82482020  0.17991003  0.18670593  1  -1.155638  0.073141  -0.304904  -0.538444  0.040723  2.306539  0.066
O  O221  1  0.78987730  0.29497408  0.25465933  1  -1.145453  0.066424  -0.303415  -0.524163  0.03654  2.328017  0.061
O  O222  1  0.03142253  0.45000191  0.24099345  1  -1.165284  0.05841  -0.298983  -0.540686  0.032303  2.371975  0.053
O  O223  1  0.17405827  0.49446062  0.18030016  1  -1.1555  0.080113  -0.311735  -0.556461  0.044647  2.322229  0.074
O  O224  1  0.65995059  0.20145196  0.74637634  1  -1.158129  0.073248  -0.305346  -0.545468  0.040624  2.271758  0.068
O  O225  1  0.59208779  0.34769016  0.80086730  1  -1.15535  0.071818  -0.320978  -0.561416  0.040182  2.380309  0.066
O  O226  1  0.47169194  0.97281181  0.74178231  1  -1.152495  0.074305  -0.300994  -0.521809  0.041088  2.337994  0.068
O  O227  1  0.35471016  0.97242094  0.81147808  1  -1.161388  0.069577  -0.3101  -0.542015  0.038913  2.383703  0.063
O  O228  1  0.67516995  0.82009188  0.68670141  1  -1.155293  0.073144  -0.304858  -0.538368  0.040724  2.30645  0.066
O  O229  1  0.71013155  0.70503889  0.75465711  1  -1.145569  0.066421  -0.303419  -0.52413  0.036536  2.327978  0.061
O  O230  1  0.46857334  0.55000192  0.74099701  1  -1.165515  0.058419  -0.298965  -0.540743  0.032306  2.371884  0.053
O  O231  1  0.32594417  0.50554646  0.68030147  1  -1.155359  0.080114  -0.311781  -0.556534  0.044648  2.322149  0.074
O  O232  1  0.34004734  0.20144758  0.25362430  1  -1.15831  0.073241  -0.305332  -0.545451  0.04062  2.271976  0.067
O  O233  1  0.40791538  0.34768813  0.19913500  1  -1.155373  0.07182  -0.320904  -0.561419  0.040181  2.380317  0.066
O  O234  1  0.52830503  0.97280763  0.25821836  1  -1.152844  0.074303  -0.301039  -0.521905  0.041087  2.338098  0.068
O  O235  1  0.64528882  0.97242692  0.18852222  1  -1.161429  0.069582  -0.310097  -0.542017  0.038915  2.383721  0.063
O  O236  1  0.32482681  0.82008519  0.31329148  1  -1.15554  0.073139  -0.304894  -0.53843  0.040722  2.306598  0.066
O  O237  1  0.28986505  0.70502685  0.24533984  1  -1.14561  0.066424  -0.303361  -0.524055  0.03654  2.328156  0.061
O  O238  1  0.53142608  0.55000062  0.25900367  1  -1.165418  0.058414  -0.299003  -0.540791  0.032304  2.371928  0.053
O  O239  1  0.67405821  0.50554112  0.31969818  1  -1.155418  0.080113  -0.311818  -0.556585  0.044647  2.322204  0.074
