# generated using pymatgen
data_Zr3H2C24S6(Br3O8)2
_symmetry_space_group_name_H-M   'P 1'
_cell_length_a   16.50282294
_cell_length_b   16.50066817
_cell_length_c   23.27912996
_cell_angle_alpha   89.99065814
_cell_angle_beta   90.00833499
_cell_angle_gamma   89.99892182
_symmetry_Int_Tables_number   1
_chemical_formula_structural   Zr3H2C24S6(Br3O8)2
_chemical_formula_sum   'Zr12 H8 C96 S24 Br24 O64'
_cell_volume   6339.08398032
_cell_formula_units_Z   4
loop_
 _symmetry_equiv_pos_site_id
 _symmetry_equiv_pos_as_xyz
  1  'x, y, z'
loop_
 _atom_site_type_symbol
 _atom_site_label
 _atom_site_symmetry_multiplicity
 _atom_site_fract_x
 _atom_site_fract_y
 _atom_site_fract_z
 _atom_site_occupancy
 _atom_site_pbe_bader_charge
 _atom_site_pbe_bader_spin_density
 _atom_site_pbe_cm5_charge
 _atom_site_pbe_ddec_charge
 _atom_site_pbe_ddec_spin_density
 _atom_site_pbe_ddec_sum_bond_order
 _atom_site_pbe_magmom
Zr  Zr0  1  0.39240691  0.39253707  0.49730095  1  2.638233  0  1.618903  2.379875  0  2.730383  0
Zr  Zr1  1  0.60748501  0.60751299  0.50271134  1  2.639387  0  1.619056  2.379973  0  2.730166  0
Zr  Zr2  1  0.49725685  0.49714646  0.60724343  1  2.626512  0  1.624603  2.380826  0  2.750635  0
Zr  Zr3  1  0.50276232  0.50279148  0.39276673  1  2.628839  0  1.624706  2.380442  0  2.751666  0
Zr  Zr4  1  0.39267966  0.60731957  0.50000087  1  2.639634  0  1.622247  2.38156  0  2.743967  0
Zr  Zr5  1  0.60727527  0.39267594  0.49999940  1  2.639085  0  1.621715  2.380002  0  2.745428  0
Zr  Zr6  1  0.10545661  0.89048234  0.00004426  1  2.639859  0  1.619232  2.380003  0  2.731336  0
Zr  Zr7  1  0.89460652  0.10953320  0.00002302  1  2.640011  0  1.619418  2.379549  0  2.731673  0
Zr  Zr8  1  0.10947748  0.10532111  0.00229175  1  2.639687  0  1.622081  2.380103  0  2.740169  0
Zr  Zr9  1  0.89052410  0.89471078  0.99763851  1  2.639744  0  1.621699  2.379827  0  2.740194  0
Zr  Zr10  1  0.99764791  0.99762029  0.10720532  1  2.622288  0  1.624981  2.38055  0  2.752236  0
Zr  Zr11  1  0.00240398  0.00236069  0.89278594  1  2.625747  0  1.625139  2.380123  0  2.753642  0
H  H12  1  0.32934305  0.49775994  0.58264834  1  0.60316  0  0.331956  0.426252  0  0.852296  0
H  H13  1  0.50200824  0.67063641  0.41738636  1  0.603631  0  0.33168  0.426135  0  0.85276  0
H  H14  1  0.66706080  0.49778845  0.58633083  1  0.613791  0  0.331533  0.425846  0  0.852414  0
H  H15  1  0.50209527  0.33288748  0.41369094  1  0.611983  0  0.33149  0.425798  0  0.852283  0
H  H16  1  0.16736174  0.99540579  0.08596084  1  0.622417  0  0.331605  0.425758  0  0.852112  0
H  H17  1  0.82959383  0.00118079  0.08279534  1  0.604661  0  0.331462  0.425201  0  0.853846  0
H  H18  1  0.00469783  0.17031956  0.91702469  1  0.604137  0  0.331872  0.426328  0  0.852405  0
H  H19  1  0.99905145  0.83274859  0.91379789  1  0.618694  0  0.331357  0.425594  0  0.852443  0
C  C20  1  0.22764652  0.50251628  0.49472073  1  1.610245  0  0.223411  0.655264  0  4.142014  0
C  C21  1  0.49755888  0.77233555  0.50519884  1  1.613047  0  0.223851  0.6557  0  4.142445  0
C  C22  1  0.77227019  0.49747027  0.49895199  1  1.607949  0  0.224335  0.657172  0  4.139976  0
C  C23  1  0.50245063  0.22773439  0.50112641  1  1.607994  0  0.22401  0.656701  0  4.140648  0
C  C24  1  0.36290430  0.35620393  0.63183963  1  1.545643  0  0.22412  0.655893  0  4.141669  0
C  C25  1  0.36346111  0.36994183  0.36108004  1  1.577334  0  0.224249  0.656072  0  4.141757  0
C  C26  1  0.64299937  0.63781602  0.36813767  1  1.577329  0  0.224037  0.655274  0  4.141641  0
C  C27  1  0.63033361  0.63623592  0.63894319  1  1.57902  0  0.224676  0.655722  0  4.140118  0
C  C28  1  0.36513518  0.63491927  0.63728693  1  1.571101  0  0.224019  0.655651  0  4.142875  0
C  C29  1  0.62910352  0.35906796  0.63723182  1  1.533968  0  0.223396  0.655343  0  4.142415  0
C  C30  1  0.64070052  0.37083959  0.36278334  1  1.532169  0  0.223293  0.655618  0  4.143026  0
C  C31  1  0.36532816  0.63513635  0.36263491  1  1.571022  0  0.224179  0.655836  0  4.141955  0
C  C32  1  0.12815012  0.85764102  0.13689565  1  1.564766  0  0.224107  0.656489  0  4.142955  0
C  C33  1  0.86671480  0.13716748  0.13698516  1  1.568719  0  0.223461  0.654954  0  4.142864  0
C  C34  1  0.86596768  0.13632874  0.86304668  1  1.578476  0  0.224646  0.656671  0  4.142276  0
C  C35  1  0.13948509  0.86884772  0.86320496  1  1.573292  0  0.224752  0.656804  0  4.140596  0
C  C36  1  0.27236843  0.99401972  0.99874573  1  1.615352  0  0.223689  0.655878  0  4.139217  0
C  C37  1  0.99508421  0.72771560  0.00090408  1  1.614365  0  0.224391  0.655203  0  4.141368  0
C  C38  1  0.72766552  0.00597889  0.99512503  1  1.611831  0  0.222908  0.653148  0  4.141739  0
C  C39  1  0.00480262  0.27223862  0.00536747  1  1.615444  0  0.224405  0.655687  0  4.140599  0
C  C40  1  0.13215341  0.13463186  0.13885174  1  1.581062  0  0.224246  0.654845  0  4.14142  0
C  C41  1  0.14471757  0.13398062  0.86704889  1  1.574129  0  0.22405  0.654927  0  4.142486  0
C  C42  1  0.86209153  0.87120833  0.86112084  1  1.57283  0  0.223812  0.655346  0  4.141483  0
C  C43  1  0.86072012  0.86037629  0.13292235  1  1.590117  0  0.223772  0.65401  0  4.141853  0
C  C44  1  0.91493773  0.43117243  0.49709239  1  0.007036  0  -0.022372  0.06353  0  3.990398  0
C  C45  1  0.08495590  0.56865844  0.49597894  1  0.014422  0  -0.02289  0.063235  0  3.990714  0
C  C46  1  0.86126938  0.49627691  0.49754465  1  -0.147552  0  -0.027578  -0.170658  0  3.921364  0
C  C47  1  0.13862723  0.50358552  0.49505071  1  -0.162621  0  -0.027466  -0.170896  0  3.922942  0
C  C48  1  0.00344774  0.54234503  0.49674046  1  -0.195147  0  -0.029039  -0.059324  0  4.095748  0
C  C49  1  0.99647257  0.45743975  0.49652805  1  -0.108532  0  -0.029326  -0.060583  0  4.096051  0
C  C50  1  0.43138631  0.91500569  0.50398526  1  0.015422  0  -0.023235  0.062928  0  3.991711  0
C  C51  1  0.56879232  0.08509085  0.50290660  1  0.003751  0  -0.022612  0.063046  0  3.991657  0
C  C52  1  0.49647577  0.86135987  0.50486760  1  -0.163222  0  -0.027576  -0.172083  0  3.92455  0
C  C53  1  0.50367261  0.13873540  0.50250280  1  -0.147858  0  -0.027483  -0.170803  0  3.923324  0
C  C54  1  0.54255642  0.00353434  0.50344949  1  -0.109268  0  -0.029265  -0.060837  0  4.096323  0
C  C55  1  0.45766280  0.99653676  0.50328043  1  -0.194075  0  -0.028798  -0.059354  0  4.095673  0
C  C56  1  0.65967488  0.31188001  0.74132205  1  0.002189  0  -0.022261  0.066512  0  3.98775  0
C  C57  1  0.83382328  0.18224824  0.75911452  1  -0.066984  0  -0.02292  0.064953  0  3.989841  0
C  C58  1  0.67275443  0.31469263  0.68231650  1  -0.11139  0  -0.027598  -0.170595  0  3.923627  0
C  C59  1  0.82051468  0.17906473  0.81808443  1  -0.088725  0  -0.027311  -0.170492  0  3.924818  0
C  C60  1  0.77500940  0.23027857  0.73103378  1  -0.078264  0  -0.029537  -0.060002  0  4.097983  0
C  C61  1  0.71813246  0.26334305  0.76934610  1  -0.157061  0  -0.029254  -0.060729  0  4.097743  0
C  C62  1  0.33419146  0.68224730  0.25873881  1  -0.077814  0  -0.022728  0.065648  0  3.989541  0
C  C63  1  0.15985037  0.81167302  0.24103527  1  0.014368  0  -0.022134  0.066815  0  3.987832  0
C  C64  1  0.32066895  0.67872624  0.31767566  1  -0.078859  0  -0.027637  -0.170715  0  3.923972  0
C  C65  1  0.17259059  0.81410566  0.18198333  1  -0.14201  0  -0.028074  -0.172854  0  3.9268  0
C  C66  1  0.21854972  0.76342816  0.26905845  1  -0.156194  0  -0.029144  -0.05996  0  4.095914  0
C  C67  1  0.27541213  0.73039217  0.23071177  1  -0.083842  0  -0.029393  -0.060311  0  4.096949  0
C  C68  1  0.31824449  0.66601921  0.74116933  1  -0.022841  0  -0.022589  0.065106  0  3.988238  0
C  C69  1  0.18806576  0.83979557  0.75917303  1  -0.045456  0  -0.022186  0.06617  0  3.985718  0
C  C70  1  0.32196858  0.67990540  0.68228250  1  -0.08067  0  -0.02725  -0.169822  0  3.922348  0
C  C71  1  0.18462708  0.82599967  0.81810755  1  -0.083535  0  -0.02729  -0.170433  0  3.922537  0
C  C72  1  0.23703383  0.78175221  0.73105457  1  -0.15851  0  -0.029059  -0.060509  0  4.094023  0
C  C73  1  0.26987146  0.72453830  0.76925601  1  -0.137317  0  -0.029749  -0.060797  0  4.098231  0
C  C74  1  0.68760935  0.34042692  0.25864057  1  -0.008154  0  -0.022344  0.066299  0  3.988083  0
C  C75  1  0.81783657  0.16665601  0.24071119  1  -0.002827  0  -0.022105  0.06616  0  3.987809  0
C  C76  1  0.68459787  0.32693464  0.31760302  1  -0.110901  0  -0.027719  -0.171437  0  3.925433  0
C  C77  1  0.82222540  0.18102701  0.18189396  1  -0.146398  0  -0.027887  -0.172322  0  3.923761  0
C  C78  1  0.76895756  0.22480906  0.26874846  1  -0.073218  0  -0.029869  -0.0611  0  4.098077  0
C  C79  1  0.73618356  0.28206418  0.23054230  1  -0.154619  0  -0.028752  -0.060336  0  4.095796  0
C  C80  1  0.74916946  0.73975006  0.32798885  1  -0.091394  0  -0.022826  0.064366  0  3.991674  0
C  C81  1  0.75308669  0.76070149  0.17370544  1  -0.01972  0  -0.023215  0.065131  0  3.992303  0
C  C82  1  0.68726742  0.68285344  0.32374394  1  -0.083575  0  -0.027656  -0.169426  0  3.923132  0
C  C83  1  0.81610852  0.81634970  0.17770047  1  -0.146051  0  -0.027242  -0.167383  0  3.919028  0
C  C84  1  0.72893064  0.73256565  0.22841663  1  -0.149355  0  -0.030157  -0.059328  0  4.099275  0
C  C85  1  0.77347033  0.76803741  0.27331031  1  -0.058676  0  -0.029716  -0.058638  0  4.094651  0
C  C86  1  0.25740440  0.25362263  0.67199669  1  -0.038203  0  -0.02303  0.064899  0  3.990532  0
C  C87  1  0.25268428  0.23341965  0.82636635  1  -0.023131  0  -0.022999  0.065385  0  3.990024  0
C  C88  1  0.31950701  0.31031199  0.67624677  1  -0.04966  0  -0.027836  -0.170867  0  3.924029  0
C  C89  1  0.19017145  0.17719996  0.82230823  1  -0.118243  0  -0.027509  -0.16798  0  3.918499  0
C  C90  1  0.27704211  0.26139187  0.77163585  1  -0.113868  0  -0.02987  -0.05938  0  4.097154  0
C  C91  1  0.23281752  0.22562255  0.72669367  1  -0.146443  0  -0.02966  -0.058792  0  4.093672  0
C  C92  1  0.67010259  0.67585285  0.74315089  1  -0.031868  0  -0.023227  0.065312  0  3.992202  0
C  C93  1  0.82365506  0.83028659  0.75691587  1  -0.026009  0  -0.02305  0.065117  0  3.992679  0
C  C94  1  0.67465625  0.68078431  0.68357730  1  -0.093776  0  -0.028344  -0.172692  0  3.92535  0
C  C95  1  0.81814156  0.82630843  0.81648290  1  -0.091457  0  -0.028453  -0.171162  0  3.923503  0
C  C96  1  0.76957299  0.77564755  0.73013087  1  -0.156829  0  -0.029296  -0.060066  0  4.096736  0
C  C97  1  0.72421617  0.73044946  0.76994878  1  -0.10533  0  -0.029467  -0.059232  0  4.095285  0
C  C98  1  0.32376061  0.33022187  0.25688738  1  -0.025211  0  -0.022582  0.06596  0  3.992067  0
C  C99  1  0.17021722  0.17578449  0.24309792  1  -0.029022  0  -0.023408  0.064709  0  3.993495  0
C  C100  1  0.31853251  0.32600311  0.31645831  1  -0.091953  0  -0.028432  -0.1729  0  3.925287  0
C  C101  1  0.17541320  0.18016749  0.18352140  1  -0.100455  0  -0.027901  -0.169692  0  3.92259  0
C  C102  1  0.22405812  0.23063383  0.26991683  1  -0.105117  0  -0.029489  -0.060144  0  4.097002  0
C  C103  1  0.26958098  0.27568464  0.23011183  1  -0.159188  0  -0.029691  -0.059485  0  4.096617  0
C  C104  1  0.58382781  0.07023449  0.99616077  1  -0.031693  0  -0.022956  0.062749  0  3.993069  0
C  C105  1  0.41618790  0.92965692  0.99715112  1  -0.038223  0  -0.022874  0.063351  0  3.991366  0
C  C106  1  0.63862683  0.00616394  0.99529999  1  -0.137168  0  -0.027652  -0.170388  0  3.922319  0
C  C107  1  0.36140642  0.99377539  0.99758920  1  -0.134113  0  -0.027128  -0.170388  0  3.920601  0
C  C108  1  0.49726098  0.95741449  0.99653555  1  -0.060413  0  -0.029264  -0.060123  0  4.094062  0
C  C109  1  0.50277534  0.04243571  0.99673769  1  -0.163045  0  -0.029426  -0.059119  0  4.094089  0
C  C110  1  0.06909576  0.41574846  0.01156334  1  -0.001503  0  -0.022636  0.064272  0  3.990495  0
C  C111  1  0.93119739  0.58406326  0.99514985  1  0.011035  0  -0.022732  0.064863  0  3.989785  0
C  C112  1  0.00527385  0.36129741  0.00557285  1  -0.123222  0  -0.027929  -0.172259  0  3.924709  0
C  C113  1  0.99482941  0.63863125  0.00163432  1  -0.12508  0  -0.027658  -0.172063  0  3.921972  0
C  C114  1  0.95817271  0.50289797  0.99896706  1  -0.188153  0  -0.029422  -0.061423  0  4.098891  0
C  C115  1  0.04219680  0.49697736  0.00791366  1  -0.126546  0  -0.028903  -0.0598  0  4.094313  0
S  S116  1  0.91074306  0.58979811  0.49754610  1  0.314662  0  0.093478  0.153479  0  2.811551  0
S  S117  1  0.08921355  0.41002067  0.49523828  1  0.310792  0  0.093457  0.153841  0  2.803044  0
S  S118  1  0.59001383  0.91080307  0.50466638  1  0.311439  0  0.094332  0.155502  0  2.795512  0
S  S119  1  0.41016908  0.08923282  0.50256011  1  0.313913  0  0.094268  0.154701  0  2.800489  0
S  S120  1  0.75654814  0.25754874  0.66098740  1  0.311474  0  0.092117  0.151029  0  2.816398  0
S  S121  1  0.73644707  0.23580987  0.83936886  1  0.311849  0  0.094845  0.156274  0  2.803338  0
S  S122  1  0.23676133  0.73564408  0.33904084  1  0.318171  0  0.093814  0.153708  0  2.815912  0
S  S123  1  0.25657396  0.75724963  0.16063790  1  0.31145  0  0.093073  0.153819  0  2.800949  0
S  S124  1  0.26520017  0.76403830  0.66106302  1  0.314115  0  0.093514  0.153462  0  2.813112  0
S  S125  1  0.24191297  0.74220615  0.83925015  1  0.310726  0  0.093138  0.153887  0  2.799051  0
S  S126  1  0.74135476  0.24279568  0.33877826  1  0.312833  0  0.09223  0.15147  0  2.817218  0
S  S127  1  0.76510432  0.26490114  0.16066288  1  0.310187  0  0.095177  0.157496  0  2.789729  0
S  S128  1  0.65836768  0.66433354  0.25280830  1  0.314928  0  0.088972  0.148694  0  2.876193  0
S  S129  1  0.84492646  0.83524110  0.24864596  1  0.305364  0  0.089182  0.14827  0  2.873343  0
S  S130  1  0.34788987  0.32933247  0.74722359  1  0.307506  0  0.089679  0.150512  0  2.878114  0
S  S131  1  0.16154379  0.15820917  0.75133097  1  0.305858  0  0.08874  0.147536  0  2.874042  0
S  S132  1  0.74583919  0.75190406  0.66025340  1  0.303573  0  0.093301  0.155892  0  2.788795  0
S  S133  1  0.74719010  0.75496748  0.83981542  1  0.302772  0  0.09113  0.152095  0  2.816701  0
S  S134  1  0.24725504  0.25496094  0.33979037  1  0.305523  0  0.09291  0.155524  0  2.788365  0
S  S135  1  0.24652464  0.25135147  0.16024345  1  0.302609  0  0.091046  0.151879  0  2.827918  0
S  S136  1  0.59084529  0.91169923  0.99543429  1  0.295293  0  0.092217  0.15296  0  2.80998  0
S  S137  1  0.40923098  0.08819405  0.99743773  1  0.29662  0  0.091896  0.152607  0  2.818364  0
S  S138  1  0.91214839  0.40959652  0.99557948  1  0.293537  0  0.093035  0.155655  0  2.790001  0
S  S139  1  0.08801330  0.59039878  0.01157743  1  0.292396  0  0.094484  0.157584  0  2.783986  0
Br  Br140  1  0.88890388  0.32039044  0.49754334  1  0.005841  0  0.051696  -0.006575  0  1.441743  0
Br  Br141  1  0.11077110  0.67950092  0.49654477  1  0.012875  0  0.051906  -0.006816  0  1.444493  0
Br  Br142  1  0.32057636  0.88913512  0.50340285  1  0.012684  0  0.052246  -0.006443  0  1.445566  0
Br  Br143  1  0.67955065  0.11115183  0.50243054  1  0.010878  0  0.052113  -0.006178  0  1.442534  0
Br  Br144  1  0.57577786  0.36185341  0.78272061  1  0.010664  0  0.051285  -0.010552  0  1.51053  0
Br  Br145  1  0.91967452  0.13507104  0.71805398  1  0.006565  0  0.049421  -0.011357  0  1.504459  0
Br  Br146  1  0.41999362  0.63499011  0.21769718  1  0.009956  0  0.049996  -0.011397  0  1.50736  0
Br  Br147  1  0.07587761  0.86155854  0.28239474  1  0.009921  0  0.051089  -0.010217  0  1.507075  0
Br  Br148  1  0.36509603  0.57970847  0.78200901  1  0.008525  0  0.049051  -0.011157  0  1.492213  0
Br  Br149  1  0.13836986  0.92424886  0.71812540  1  0.009116  0  0.050734  -0.010109  0  1.501966  0
Br  Br150  1  0.63834368  0.42517353  0.21761572  1  0.009499  0  0.050491  -0.009915  0  1.492951  0
Br  Br151  1  0.86470264  0.08033436  0.28151908  1  0.006175  0  0.049571  -0.010853  0  1.499007  0
Br  Br152  1  0.79842578  0.77796452  0.39546679  1  0.010428  0  0.052137  -0.007598  0  1.430542  0
Br  Br153  1  0.70108601  0.72482267  0.10665636  1  0.008362  0  0.050049  -0.011058  0  1.473224  0
Br  Br154  1  0.20770997  0.21593907  0.60451010  1  0.009455  0  0.051923  -0.007925  0  1.427026  0
Br  Br155  1  0.30316522  0.27100143  0.89354670  1  0.009178  0  0.050588  -0.0107  0  1.469917  0
Br  Br156  1  0.60333364  0.60690887  0.78634462  1  0.012473  0  0.046383  -0.016726  0  1.514492  0
Br  Br157  1  0.89266729  0.89700761  0.71374428  1  0.009737  0  0.046775  -0.016359  0  1.513703  0
Br  Br158  1  0.39279404  0.39686835  0.21367629  1  0.008074  0  0.046302  -0.016775  0  1.514401  0
Br  Br159  1  0.10320346  0.10702293  0.28626027  1  0.010804  0  0.046545  -0.016697  0  1.51347  0
Br  Br160  1  0.60806453  0.18141269  0.99706114  1  0.011111  0  0.05303  -0.006834  0  1.433786  0
Br  Br161  1  0.39178047  0.81851490  0.99782426  1  0.011694  0  0.052767  -0.006784  0  1.430484  0
Br  Br162  1  0.17867731  0.39084094  0.02401075  1  0.015336  0  0.052231  -0.009715  0  1.483068  0
Br  Br163  1  0.82197678  0.60850861  0.98064742  1  0.006912  0  0.051049  -0.010737  0  1.481326  0
O  O164  1  0.26145525  0.43261405  0.49383386  1  -1.171496  0  -0.353761  -0.613149  0  2.262704  0
O  O165  1  0.56745157  0.73850586  0.50606310  1  -1.172871  0  -0.354242  -0.613449  0  2.260957  0
O  O166  1  0.73855185  0.56736573  0.50072807  1  -1.170644  0  -0.35346  -0.613141  0  2.263564  0
O  O167  1  0.43256149  0.26147569  0.49944168  1  -1.171275  0  -0.353594  -0.613122  0  2.261561  0
O  O168  1  0.41431510  0.40816223  0.65041945  1  -1.173602  0  -0.35578  -0.613549  0  2.290035  0
O  O169  1  0.41595126  0.42205677  0.34550699  1  -1.17778  0  -0.351144  -0.60409  0  2.309068  0
O  O170  1  0.59084565  0.58662861  0.34950193  1  -1.172883  0  -0.355702  -0.613666  0  2.290143  0
O  O171  1  0.57800344  0.58396037  0.65450895  1  -1.173844  0  -0.351298  -0.604008  0  2.308212  0
O  O172  1  0.34888153  0.65438704  0.58529033  1  -1.172876  0  -0.35458  -0.612697  0  2.273349  0
O  O173  1  0.64949909  0.34343923  0.58531388  1  -1.157529  0  -0.353726  -0.612049  0  2.27069  0
O  O174  1  0.65641729  0.35035793  0.41467344  1  -1.157658  0  -0.35349  -0.611881  0  2.27073  0
O  O175  1  0.34580396  0.65123595  0.41464265  1  -1.172631  0  -0.355191  -0.613452  0  2.271975  0
O  O176  1  0.57612830  0.41065603  0.65331005  1  -1.169547  0  -0.36008  -0.61252  0  2.324426  0
O  O177  1  0.58943563  0.42420763  0.34679549  1  -1.168534  0  -0.359892  -0.612304  0  2.324299  0
O  O178  1  0.41980188  0.58522821  0.34642349  1  -1.16852  0  -0.359098  -0.61098  0  2.326432  0
O  O179  1  0.41475554  0.58014461  0.65348698  1  -1.164328  0  -0.359477  -0.611853  0  2.325829  0
O  O180  1  0.34601162  0.34205314  0.57927404  1  -1.163825  0  -0.358604  -0.612756  0  2.313969  0
O  O181  1  0.64962419  0.65385920  0.58690256  1  -1.171755  0  -0.364386  -0.620575  0  2.277152  0
O  O182  1  0.65826868  0.65346676  0.42073402  1  -1.163487  0  -0.358468  -0.612199  0  2.313436  0
O  O183  1  0.34597327  0.35048345  0.41311313  1  -1.170802  0  -0.364287  -0.620973  0  2.27819  0
O  O184  1  0.57072950  0.26412865  0.50098736  1  -1.173205  0  -0.361347  -0.614587  0  2.330669  0
O  O185  1  0.26399981  0.57079119  0.49620712  1  -1.172868  0  -0.360501  -0.614056  0  2.329096  0
O  O186  1  0.42927924  0.73600510  0.50373774  1  -1.175619  0  -0.360478  -0.613822  0  2.329952  0
O  O187  1  0.73585768  0.42919337  0.49901505  1  -1.173222  0  -0.361282  -0.614901  0  2.329559  0
O  O188  1  0.50131867  0.38047850  0.43811003  1  -1.245459  0  -0.693019  -1.069359  0  2.352869  0
O  O189  1  0.61948884  0.49859714  0.56189013  1  -1.247645  0  -0.693134  -1.069369  0  2.354078  0
O  O190  1  0.50155425  0.62238411  0.44115204  1  -1.236397  0  -0.693728  -1.069211  0  2.359461  0
O  O191  1  0.37760023  0.49840280  0.55890678  1  -1.235551  0  -0.69373  -1.069209  0  2.357775  0
O  O192  1  0.49902996  0.58782321  0.54551519  1  -1.190119  0  -0.789168  -1.148754  0  2.118894  0
O  O193  1  0.41211206  0.50096409  0.45448741  1  -1.191056  0  -0.789214  -1.148761  0  2.119503  0
O  O194  1  0.59015152  0.50119852  0.45667663  1  -1.196124  0  -0.789556  -1.148153  0  2.119383  0
O  O195  1  0.49877085  0.40979007  0.54332133  1  -1.196257  0  -0.789352  -1.148206  0  2.119602  0
O  O196  1  0.14766645  0.84102205  0.08489782  1  -1.163602  0  -0.356522  -0.614705  0  2.265751  0
O  O197  1  0.85148156  0.15752673  0.08493014  1  -1.162898  0  -0.356963  -0.61513  0  2.264383  0
O  O198  1  0.84766569  0.15372221  0.91511412  1  -1.163197  0  -0.357079  -0.615021  0  2.267163  0
O  O199  1  0.15400935  0.84736732  0.91512856  1  -1.165865  0  -0.356756  -0.615709  0  2.267155  0
O  O200  1  0.23890887  0.06416602  0.00039178  1  -1.173327  0  -0.357412  -0.615348  0  2.277091  0
O  O201  1  0.92706288  0.76419857  0.99922186  1  -1.173917  0  -0.353206  -0.606746  0  2.313032  0
O  O202  1  0.76120551  0.93583858  0.99441114  1  -1.172776  0  -0.357467  -0.614499  0  2.276287  0
O  O203  1  0.07272054  0.23553087  0.00632544  1  -1.174336  0  -0.353647  -0.607457  0  2.314022  0
O  O204  1  0.07951361  0.08261629  0.15448921  1  -1.172679  0  -0.353381  -0.606136  0  2.310716  0
O  O205  1  0.09100413  0.08413616  0.84875063  1  -1.178708  0  -0.357618  -0.615433  0  2.293894  0
O  O206  1  0.91516400  0.92275966  0.84547397  1  -1.178629  0  -0.352746  -0.606195  0  2.310368  0
O  O207  1  0.91347491  0.91126618  0.15119043  1  -1.174763  0  -0.357541  -0.61528  0  2.292325  0
O  O208  1  0.16044557  0.14981984  0.91951423  1  -1.165833  0  -0.356306  -0.609813  0  2.309741  0
O  O209  1  0.84331722  0.85324385  0.91313488  1  -1.170273  0  -0.361761  -0.618568  0  2.281513  0
O  O210  1  0.84375656  0.84572309  0.08047793  1  -1.165812  0  -0.355762  -0.608648  0  2.308051  0
O  O211  1  0.15246687  0.15107577  0.08688555  1  -1.170165  0  -0.361512  -0.617961  0  2.28301  0
O  O212  1  0.23566626  0.92597495  0.99871555  1  -1.174718  0  -0.356408  -0.611633  0  2.314708  0
O  O213  1  0.93459150  0.23879270  0.00303621  1  -1.178866  0  -0.360551  -0.617974  0  2.27025  0
O  O214  1  0.76431391  0.07403139  0.99650578  1  -1.173549  0  -0.355545  -0.610354  0  2.31408  0
O  O215  1  0.06523821  0.76139563  0.00171680  1  -1.174268  0  -0.360746  -0.618238  0  2.271052  0
O  O216  1  0.08842622  0.92226728  0.84714753  1  -1.17099  0  -0.358588  -0.610624  0  2.326231  0
O  O217  1  0.07546514  0.90945637  0.15291632  1  -1.171822  0  -0.358161  -0.610357  0  2.326133  0
O  O218  1  0.91635273  0.08252432  0.15321399  1  -1.172205  0  -0.357073  -0.609139  0  2.327989  0
O  O219  1  0.91983242  0.08586851  0.84679445  1  -1.177054  0  -0.358077  -0.610183  0  2.327826  0
O  O220  1  0.99919774  0.88023657  0.93832185  1  -1.251505  0  -0.692744  -1.06884  0  2.351424  0
O  O221  1  0.00338883  0.12216241  0.94087924  1  -1.237096  0  -0.693788  -1.068795  0  2.355493  0
O  O222  1  0.87788253  0.00103337  0.05908132  1  -1.238115  0  -0.693835  -1.068536  0  2.359403  0
O  O223  1  0.11971950  0.99653082  0.06159616  1  -1.254661  0  -0.693346  -1.068134  0  2.35299  0
O  O224  1  0.00066735  0.08808090  0.04532869  1  -1.19331  0  -0.788848  -1.148454  0  2.118003  0
O  O225  1  0.99749373  0.91001603  0.04341546  1  -1.191408  0  -0.789147  -1.148421  0  2.118789  0
O  O226  1  0.91200623  0.00262498  0.95469292  1  -1.191932  0  -0.78922  -1.147382  0  2.119029  0
O  O227  1  0.09003100  0.99918306  0.95653514  1  -1.195534  0  -0.789375  -1.148671  0  2.1205  0
