# generated using pymatgen
data_CdP2H20(C4O3)4
_symmetry_space_group_name_H-M   'P 1'
_cell_length_a   4.61462726
_cell_length_b   5.82083311
_cell_length_c   18.56670988
_cell_angle_alpha   83.31742606
_cell_angle_beta   89.11278591
_cell_angle_gamma   86.23699546
_symmetry_Int_Tables_number   1
_chemical_formula_structural   CdP2H20(C4O3)4
_chemical_formula_sum   'Cd1 P2 H20 C16 O12'
_cell_volume   494.24827166
_cell_formula_units_Z   1
loop_
 _symmetry_equiv_pos_site_id
 _symmetry_equiv_pos_as_xyz
  1  'x, y, z'
loop_
 _atom_site_type_symbol
 _atom_site_label
 _atom_site_symmetry_multiplicity
 _atom_site_fract_x
 _atom_site_fract_y
 _atom_site_fract_z
 _atom_site_occupancy
 _atom_site_pbe_bader_spin_density
 _atom_site_pbe_cm5_charge
 _atom_site_pbe_ddec_charge
 _atom_site_pbe_ddec_spin_density
 _atom_site_pbe_ddec_sum_bond_order
 _atom_site_pbe_magmom
Cd  Cd0  1  0.00000663  0.00000841  0.49999866  1  0  0.813609  1.158324  0  2.041451  0
P  P1  1  0.49372991  0.10457566  0.62823244  1  0  0.364197  1.322912  0  5.241796  0
P  P2  1  0.50628591  0.89543688  0.37176604  1  0  0.364234  1.322994  0  5.241721  0
H  H3  1  0.90604054  0.27384701  0.62424241  1  0  0.311328  0.394502  0  0.943966  0
H  H4  1  0.09397062  0.72616894  0.37575705  1  0  0.311363  0.394522  0  0.943945  0
H  H5  1  0.41367827  0.66561095  0.01915201  1  0  0.303527  0.354183  0  0.987592  0
H  H6  1  0.58631590  0.33435794  0.98084763  1  0  0.303546  0.354173  0  0.987607  0
H  H7  1  0.24361688  0.50781793  0.55263963  1  0  0.296391  0.411625  0  0.911911  0
H  H8  1  0.75640742  0.49219645  0.44735875  1  0  0.296393  0.411597  0  0.912003  0
H  H9  1  0.44778349  0.71779627  0.55929439  1  0  0.293616  0.396513  0  0.939291  0
H  H10  1  0.55222728  0.28222315  0.44070279  1  0  0.293597  0.396313  0  0.939518  0
H  H11  1  0.22114623  0.11510383  0.73736555  1  0  0.112214  0.154506  0  0.990907  0
H  H12  1  0.77886522  0.88490866  0.26263080  1  0  0.112226  0.154517  0  0.990926  0
H  H13  1  0.22316360  0.84388829  0.70374559  1  0  0.112769  0.159426  0  0.992643  0
H  H14  1  0.77683870  0.15612929  0.29625278  1  0  0.112717  0.159332  0  0.992742  0
H  H15  1  0.69501085  0.57018908  0.72105459  1  0  0.098652  0.118864  0  1.03273  0
H  H16  1  0.30499991  0.42983034  0.27894152  1  0  0.098643  0.118875  0  1.032715  0
H  H17  1  0.05980827  0.41319620  0.81456883  1  0  0.102464  0.096845  0  1.028877  0
H  H18  1  0.94018741  0.58680048  0.18542710  1  0  0.102446  0.096776  0  1.028895  0
H  H19  1  0.90648363  0.02296740  0.92342740  1  0  0.109903  0.120651  0  1.017075  0
H  H20  1  0.09348649  0.97700464  0.07658032  1  0  0.109884  0.120555  0  1.01712  0
H  H21  1  0.53774335  0.17890653  0.83200010  1  0  0.10073  0.10983  0  1.032951  0
H  H22  1  0.46224021  0.82108303  0.16800746  1  0  0.100729  0.109863  0  1.032976  0
C  C23  1  0.36353080  0.98017784  0.71570255  1  0  -0.16261  -0.512478  0  3.94552  0
C  C24  1  0.63647153  0.01983974  0.28429690  1  0  -0.162523  -0.512358  0  3.945548  0
C  C25  1  0.59264744  0.88634926  0.76977466  1  0  -0.000726  0.176808  0  3.979621  0
C  C26  1  0.40734527  0.11365605  0.23022582  1  0  -0.000723  0.176809  0  3.979874  0
C  C27  1  0.74135925  0.67007962  0.76520737  1  0  -0.096449  -0.155927  0  3.946014  0
C  C28  1  0.25864427  0.32992582  0.23479144  1  0  -0.096446  -0.155937  0  3.946112  0
C  C29  1  0.94640674  0.58222548  0.81706849  1  0  -0.078839  -0.073325  0  3.976324  0
C  C30  1  0.05358481  0.41776941  0.18292914  1  0  -0.078775  -0.073161  0  3.976206  0
C  C31  1  0.00710120  0.70903443  0.87418924  1  0  -0.024118  -0.068894  0  4.015365  0
C  C32  1  0.99288226  0.29095515  0.12581186  1  0  -0.024237  -0.069033  0  4.015423  0
C  C33  1  0.86060824  0.92567106  0.87871180  1  0  -0.077748  -0.07031  0  3.93441  0
C  C34  1  0.13937182  0.07430979  0.12129394  1  0  -0.077662  -0.070147  0  3.934102  0
C  C35  1  0.65525211  0.01291062  0.82679455  1  0  -0.092246  -0.148011  0  3.94409  0
C  C36  1  0.34473557  0.98708073  0.17321077  1  0  -0.09226  -0.148115  0  3.944185  0
C  C37  1  0.22449680  0.61276385  0.92908644  1  0  0.237158  0.580255  0  4.118261  0
C  C38  1  0.77549556  0.38720154  0.07091441  1  0  0.237127  0.580228  0  4.118059  0
O  O39  1  0.22119159  0.21799892  0.58734619  1  0  -0.363505  -0.774392  0  2.265129  0
O  O40  1  0.77882655  0.78201191  0.41265181  1  0  -0.363529  -0.774301  0  2.265027  0
O  O41  1  0.70039522  0.30144269  0.64293471  1  0  -0.381211  -0.641481  0  2.234383  0
O  O42  1  0.29961683  0.69856460  0.35706668  1  0  -0.381276  -0.64161  0  2.234298  0
O  O43  1  0.66345081  0.91869776  0.59003334  1  0  -0.375162  -0.774333  0  2.269736  0
O  O44  1  0.33656302  0.08131302  0.40996576  1  0  -0.375161  -0.774327  0  2.269764  0
O  O45  1  0.36664688  0.42447891  0.92405592  1  0  -0.282641  -0.499023  0  2.237019  0
O  O46  1  0.63332280  0.57549661  0.07594521  1  0  -0.282647  -0.499025  0  2.236542  0
O  O47  1  0.25416648  0.73905408  0.98274649  1  0  -0.317807  -0.467049  0  2.342042  0
O  O48  1  0.74583551  0.26092358  0.01725495  1  0  -0.317754  -0.46703  0  2.3423  0
O  O49  1  0.27741245  0.67062026  0.53405811  1  0  -0.596713  -0.790869  0  2.089306  0
O  O50  1  0.72260340  0.32939227  0.46594307  1  0  -0.596694  -0.79066  0  2.089783  0
