# generated using pymatgen
data_V2ZnH9C10(NO2)3
_symmetry_space_group_name_H-M   'P 1'
_cell_length_a   7.97339946
_cell_length_b   10.56017140
_cell_length_c   16.70088253
_cell_angle_alpha   89.99988896
_cell_angle_beta   101.26045672
_cell_angle_gamma   89.99975921
_symmetry_Int_Tables_number   1
_chemical_formula_structural   V2ZnH9C10(NO2)3
_chemical_formula_sum   'V8 Zn4 H36 C40 N12 O24'
_cell_volume   1379.15182001
_cell_formula_units_Z   4
loop_
 _symmetry_equiv_pos_site_id
 _symmetry_equiv_pos_as_xyz
  1  'x, y, z'
loop_
 _atom_site_type_symbol
 _atom_site_label
 _atom_site_symmetry_multiplicity
 _atom_site_fract_x
 _atom_site_fract_y
 _atom_site_fract_z
 _atom_site_occupancy
 _atom_site_pbe_bader_spin_density
 _atom_site_pbe_cm5_charge
 _atom_site_pbe_ddec_charge
 _atom_site_pbe_ddec_spin_density
 _atom_site_pbe_ddec_sum_bond_order
 _atom_site_pbe_magmom
V  V0  1  0.39954006  0.85791210  0.27837137  1  0  1.438335  1.944499  0  3.49431  0
V  V1  1  0.10046555  0.35790752  0.22163218  1  0  1.438313  1.944289  0  3.494654  0
V  V2  1  0.60046403  0.14209034  0.72163064  1  0  1.438341  1.944455  0  3.494452  0
V  V3  1  0.89953600  0.64209114  0.77837021  1  0  1.438348  1.944418  0  3.494587  0
V  V4  1  0.08021886  0.04299502  0.24121406  1  0  1.438656  1.952905  0  3.491855  0
V  V5  1  0.41977715  0.54299581  0.25878607  1  0  1.438652  1.952811  0  3.491886  0
V  V6  1  0.91977881  0.95700648  0.75878620  1  0  1.438631  1.952784  0  3.491957  0
V  V7  1  0.58022179  0.45700569  0.74121429  1  0  1.438627  1.952799  0  3.491917  0
Zn  Zn8  1  0.67781688  0.98922693  0.17002081  1  0  0.71413  0.886198  0  2.498938  0
Zn  Zn9  1  0.82218874  0.48922132  0.32997919  1  0  0.714121  0.886155  0  2.499  0
Zn  Zn10  1  0.32218842  0.01077457  0.82997891  1  0  0.714143  0.886157  0  2.498968  0
Zn  Zn11  1  0.17781146  0.51077639  0.67002069  1  0  0.714139  0.886168  0  2.499  0
H  H12  1  0.81700448  0.00116014  0.93892501  1  0  0.307868  0.306872  0  0.970355  0
H  H13  1  0.68299643  0.50115944  0.56107550  1  0  0.307878  0.306898  0  0.97031  0
H  H14  1  0.18299828  0.99883947  0.06107509  1  0  0.307855  0.30685  0  0.970392  0
H  H15  1  0.31699992  0.49884111  0.43892345  1  0  0.307892  0.306904  0  0.970282  0
H  H16  1  0.71698186  0.71535250  0.18612715  1  0  0.116739  0.083096  0  1.031619  0
H  H17  1  0.78301156  0.21534801  0.31387633  1  0  0.116741  0.08306  0  1.031642  0
H  H18  1  0.28301838  0.28464899  0.81387393  1  0  0.116731  0.083083  0  1.031655  0
H  H19  1  0.21698613  0.78465159  0.68612453  1  0  0.116749  0.083111  0  1.031598  0
H  H20  1  0.83993588  0.53966398  0.11650003  1  0  0.107181  0.124686  0  1.046586  0
H  H21  1  0.66005489  0.03966818  0.38350584  1  0  0.107177  0.124644  0  1.046415  0
H  H22  1  0.16006178  0.46033468  0.88350023  1  0  0.107181  0.124669  0  1.046583  0
H  H23  1  0.33994409  0.96033237  0.61649573  1  0  0.107211  0.124677  0  1.046498  0
H  H24  1  0.93719108  0.59086243  0.98320670  1  0  0.111017  0.111043  0  1.002227  0
H  H25  1  0.56280811  0.09086522  0.51679774  1  0  0.111005  0.110997  0  1.002259  0
H  H26  1  0.06281171  0.40913623  0.01679460  1  0  0.111012  0.111016  0  1.002228  0
H  H27  1  0.43718440  0.90913344  0.48320088  1  0  0.11097  0.110983  0  1.002247  0
H  H28  1  0.90320735  0.80789882  0.92920310  1  0  0.111254  0.125909  0  1.057314  0
H  H29  1  0.59678405  0.30790323  0.57079978  1  0  0.111236  0.12588  0  1.057319  0
H  H30  1  0.09679283  0.19209984  0.07079618  1  0  0.111229  0.125905  0  1.057276  0
H  H31  1  0.40320591  0.69209638  0.42919861  1  0  0.111245  0.125885  0  1.057364  0
H  H32  1  0.75788447  0.19989948  0.90514221  1  0  0.115784  0.138328  0  1.009732  0
H  H33  1  0.74212027  0.69989755  0.59485777  1  0  0.115809  0.138353  0  1.00962  0
H  H34  1  0.24211697  0.80009823  0.09485658  1  0  0.115799  0.138325  0  1.009744  0
H  H35  1  0.25787863  0.30010206  0.40514139  1  0  0.115837  0.13838  0  1.009659  0
H  H36  1  0.64248927  0.40720212  0.93673259  1  0  0.111318  0.101867  0  1.006946  0
H  H37  1  0.85751541  0.90719802  0.56326592  1  0  0.111317  0.101859  0  1.006974  0
H  H38  1  0.35751477  0.59279748  0.06326762  1  0  0.111312  0.101841  0  1.006967  0
H  H39  1  0.14248476  0.09280063  0.43673275  1  0  0.111328  0.101843  0  1.007001  0
H  H40  1  0.51610308  0.42835766  0.06522225  1  0  0.108651  0.112271  0  1.023721  0
H  H41  1  0.98389646  0.92835109  0.43477490  1  0  0.108659  0.112285  0  1.023666  0
H  H42  1  0.48389838  0.57164668  0.93477713  1  0  0.10867  0.112267  0  1.023737  0
H  H43  1  0.01610247  0.07164946  0.56522487  1  0  0.10867  0.112275  0  1.023636  0
H  H44  1  0.52418649  0.24118157  0.15508919  1  0  0.124433  0.094624  0  0.979028  0
H  H45  1  0.97581301  0.74117719  0.34490999  1  0  0.124419  0.094619  0  0.979023  0
H  H46  1  0.47580857  0.75881803  0.84490965  1  0  0.12442  0.094651  0  0.979007  0
H  H47  1  0.02418973  0.25882147  0.65508951  1  0  0.124425  0.094657  0  0.979015  0
C  C48  1  0.76126921  0.73188161  0.12923927  1  0  0.04415  0.103449  0  3.961855  0
C  C49  1  0.73872407  0.23188371  0.37076298  1  0  0.044232  0.103561  0  3.961725  0
C  C50  1  0.23873227  0.26811800  0.87076072  1  0  0.044153  0.103435  0  3.961853  0
C  C51  1  0.26127361  0.76811684  0.62923788  1  0  0.044178  0.103476  0  3.961765  0
C  C52  1  0.82873477  0.63438504  0.09031913  1  0  -0.093443  -0.155285  0  3.967694  0
C  C53  1  0.67125658  0.13439197  0.40968368  1  0  -0.093459  -0.155224  0  3.967533  0
C  C54  1  0.17126157  0.36561267  0.90967982  1  0  -0.093446  -0.155224  0  3.967666  0
C  C55  1  0.32874110  0.86560858  0.59031718  1  0  -0.093498  -0.155281  0  3.967653  0
C  C56  1  0.88165389  0.66251434  0.01703629  1  0  -0.06161  0.003755  0  3.955871  0
C  C57  1  0.61833727  0.16251932  0.48296587  1  0  -0.061646  0.00374  0  3.955912  0
C  C58  1  0.11834373  0.33748431  0.98296277  1  0  -0.0616  0.003765  0  3.955886  0
C  C59  1  0.38165654  0.83748028  0.51703346  1  0  -0.061592  0.003778  0  3.955927  0
C  C60  1  0.86215078  0.78367002  0.98565523  1  0  -0.087005  -0.217485  0  3.919444  0
C  C61  1  0.63783565  0.28367353  0.51434666  1  0  -0.086887  -0.217344  0  3.919506  0
C  C62  1  0.13784555  0.21632864  0.01434312  1  0  -0.087014  -0.217544  0  3.919386  0
C  C63  1  0.36215433  0.71632608  0.48565233  1  0  -0.086966  -0.217391  0  3.919494  0
C  C64  1  0.79068360  0.87830832  0.02812282  1  0  0.233513  0.397386  0  4.013196  0
C  C65  1  0.70930872  0.37830831  0.47187796  1  0  0.233432  0.397247  0  4.013444  0
C  C66  1  0.20931659  0.12169129  0.97187646  1  0  0.233556  0.397459  0  4.013165  0
C  C67  1  0.29068254  0.62169224  0.52812114  1  0  0.233494  0.397354  0  4.013337  0
C  C68  1  0.70589158  0.10999613  0.01417139  1  0  0.23486  0.392994  0  4.008263  0
C  C69  1  0.79411258  0.60999189  0.48582836  1  0  0.234952  0.393101  0  4.008246  0
C  C70  1  0.29410986  0.89000631  0.98582740  1  0  0.234853  0.392973  0  4.008287  0
C  C71  1  0.20588760  0.39000771  0.51417091  1  0  0.234896  0.393008  0  4.008245  0
C  C72  1  0.70558929  0.21261424  0.96007320  1  0  -0.08278  -0.205601  0  3.904822  0
C  C73  1  0.79441667  0.71260946  0.53992747  1  0  -0.082799  -0.205598  0  3.904648  0
C  C74  1  0.29441477  0.78738726  0.03992761  1  0  -0.082775  -0.205546  0  3.904662  0
C  C75  1  0.20558349  0.28738920  0.46007120  1  0  -0.0828  -0.205528  0  3.904577  0
C  C76  1  0.63901390  0.32753101  0.97786437  1  0  -0.060337  0.000471  0  3.956437  0
C  C77  1  0.86099002  0.82752797  0.52213478  1  0  -0.060464  0.000311  0  3.956415  0
C  C78  1  0.36098760  0.67246859  0.02213622  1  0  -0.060371  0.000434  0  3.956364  0
C  C79  1  0.13900887  0.17247163  0.47786378  1  0  -0.06041  0.000352  0  3.956431  0
C  C80  1  0.56975828  0.34005695  0.04840008  1  0  -0.088567  -0.130714  0  3.976886  0
C  C81  1  0.93024185  0.84005144  0.45159844  1  0  -0.088561  -0.130717  0  3.976804  0
C  C82  1  0.43024192  0.65994454  0.95159980  1  0  -0.088589  -0.130694  0  3.976865  0
C  C83  1  0.06975961  0.15994816  0.54840095  1  0  -0.088588  -0.130686  0  3.976806  0
C  C84  1  0.57497913  0.23642787  0.09907558  1  0  0.047927  0.114118  0  3.943951  0
C  C85  1  0.92502038  0.73642253  0.40092301  1  0  0.047946  0.114201  0  3.943974  0
C  C86  1  0.42501978  0.76357458  0.90092358  1  0  0.047916  0.114088  0  3.943982  0
C  C87  1  0.07497980  0.26357708  0.59907627  1  0  0.047907  0.11408  0  3.944078  0
N  N88  1  0.74327559  0.85166856  0.09965733  1  0  -0.349282  -0.354434  0  3.576343  0
N  N89  1  0.75672332  0.35166768  0.40034525  1  0  -0.349332  -0.354474  0  3.57641  0
N  N90  1  0.25672974  0.14833199  0.90034359  1  0  -0.349287  -0.354438  0  3.576423  0
N  N91  1  0.24327051  0.64833193  0.59965467  1  0  -0.349298  -0.354478  0  3.576374  0
N  N92  1  0.77147799  0.99688734  0.99303914  1  0  -0.388145  -0.377592  0  3.534124  0
N  N93  1  0.72852237  0.49688584  0.50696189  1  0  -0.388202  -0.377614  0  3.534053  0
N  N94  1  0.22852223  0.00311321  0.00696134  1  0  -0.388168  -0.377585  0  3.534132  0
N  N95  1  0.27147398  0.50311471  0.49303706  1  0  -0.388192  -0.37762  0  3.534129  0
N  N96  1  0.64316316  0.12357829  0.08340799  1  0  -0.346636  -0.349193  0  3.542152  0
N  N97  1  0.85683966  0.62357217  0.41659223  1  0  -0.346563  -0.349197  0  3.542229  0
N  N98  1  0.35683447  0.87642415  0.91659107  1  0  -0.34655  -0.349129  0  3.542241  0
N  N99  1  0.14316182  0.37642649  0.58340776  1  0  -0.346564  -0.349178  0  3.542222  0
O  O100  1  0.47481975  0.94847312  0.20919854  1  0  -0.631295  -0.877512  0  1.923512  0
O  O101  1  0.02519045  0.44847046  0.29080649  1  0  -0.631257  -0.877468  0  1.923603  0
O  O102  1  0.52519077  0.05152648  0.79080522  1  0  -0.631231  -0.87748  0  1.923582  0
O  O103  1  0.97480977  0.55152820  0.70919399  1  0  -0.631245  -0.877461  0  1.923531  0
O  O104  1  0.21662370  0.93556071  0.30764214  1  0  -0.684556  -0.95359  0  1.806789  0
O  O105  1  0.28338135  0.43555185  0.19235887  1  0  -0.684516  -0.953469  0  1.806779  0
O  O106  1  0.78338677  0.06445405  0.69235982  1  0  -0.684538  -0.953535  0  1.806774  0
O  O107  1  0.71661368  0.56445249  0.80763877  1  0  -0.684523  -0.953519  0  1.806832  0
O  O108  1  0.34370990  0.70220929  0.23686674  1  0  -0.690272  -0.978601  0  1.85835  0
O  O109  1  0.15629917  0.20220440  0.26313431  1  0  -0.690263  -0.978583  0  1.858382  0
O  O110  1  0.65629162  0.29779410  0.76313445  1  0  -0.690318  -0.978633  0  1.85836  0
O  O111  1  0.84370871  0.79779520  0.73686623  1  0  -0.690305  -0.97861  0  1.858395  0
O  O112  1  0.54795411  0.84198397  0.35912136  1  0  -0.585933  -0.738798  0  1.594606  0
O  O113  1  0.95205755  0.34198610  0.14087935  1  0  -0.585952  -0.738704  0  1.594617  0
O  O114  1  0.45205372  0.15800995  0.64087798  1  0  -0.58596  -0.738776  0  1.594581  0
O  O115  1  0.04794526  0.65800877  0.85912255  1  0  -0.585944  -0.73874  0  1.594667  0
O  O116  1  0.08408566  0.00621166  0.14620498  1  0  -0.598616  -0.806262  0  1.689323  0
O  O117  1  0.41592213  0.50621597  0.35379741  1  0  -0.598623  -0.806259  0  1.689328  0
O  O118  1  0.91592227  0.99378320  0.85379736  1  0  -0.598596  -0.806226  0  1.689331  0
O  O119  1  0.58407935  0.49378364  0.64620258  1  0  -0.598596  -0.806227  0  1.6893  0
O  O120  1  0.87619348  0.02795516  0.25604015  1  0  -0.617337  -0.849399  0  1.843484  0
O  O121  1  0.62380495  0.52795693  0.24396340  1  0  -0.617371  -0.849378  0  1.843468  0
O  O122  1  0.12380430  0.97204160  0.74396371  1  0  -0.617377  -0.849366  0  1.843504  0
O  O123  1  0.37619524  0.47204267  0.75603588  1  0  -0.617375  -0.849396  0  1.843542  0
