# generated using pymatgen
data_ZnSiH20C24(N2F3)2
_symmetry_space_group_name_H-M   'P 1'
_cell_length_a   7.81692376
_cell_length_b   13.73696399
_cell_length_c   13.73701311
_cell_angle_alpha   89.68555673
_cell_angle_beta   85.96586495
_cell_angle_gamma   85.96665366
_symmetry_Int_Tables_number   1
_chemical_formula_structural   ZnSiH20C24(N2F3)2
_chemical_formula_sum   'Zn1 Si1 H20 C24 N4 F6'
_cell_volume   1467.79209935
_cell_formula_units_Z   1
loop_
 _symmetry_equiv_pos_site_id
 _symmetry_equiv_pos_as_xyz
  1  'x, y, z'
loop_
 _atom_site_type_symbol
 _atom_site_label
 _atom_site_symmetry_multiplicity
 _atom_site_fract_x
 _atom_site_fract_y
 _atom_site_fract_z
 _atom_site_occupancy
 _atom_site_pbe_bader_charge
 _atom_site_pbe_bader_spin_density
 _atom_site_pbe_cm5_charge
 _atom_site_pbe_ddec_charge
 _atom_site_pbe_ddec_spin_density
 _atom_site_pbe_ddec_sum_bond_order
 _atom_site_pbe_magmom
Zn  Zn0  1  0.50000578  0.49999964  0.49999993  1  1.249102  0  0.705967  0.736827  0  2.325549  0
Si  Si1  1  0.00000157  0.50000075  0.49999681  1  3.166747  0  0.261003  1.720918  0  3.947871  0
H  H2  1  0.25489984  0.49994121  0.33479114  1  0.179249  0  0.116776  0.101762  0  1.043198  0
H  H3  1  0.26447026  0.49996305  0.15512782  1  0.037683  0  0.108704  0.112991  0  0.999242  0
H  H4  1  0.81823060  0.50003678  0.15328928  1  0.053027  0  0.107988  0.111389  0  0.993588  0
H  H5  1  0.78641579  0.50004138  0.33454862  1  0.196787  0  0.117277  0.102313  0  1.04057  0
H  H6  1  0.18173589  0.49996472  0.84669917  1  0.053042  0  0.108  0.111409  0  0.993513  0
H  H7  1  0.73549657  0.50003480  0.84487810  1  0.038013  0  0.108679  0.112941  0  0.999411  0
H  H8  1  0.74510058  0.50005443  0.66521643  1  0.179384  0  0.116787  0.101815  0  1.043166  0
H  H9  1  0.21358916  0.49996010  0.66544200  1  0.197005  0  0.117314  0.102384  0  1.040737  0
H  H10  1  0.69702338  0.50001373  0.99948029  1  0.03312  0  0.103779  0.097711  0  1.004547  0
H  H11  1  0.30293024  0.49998778  0.00051592  1  0.032846  0  0.103787  0.097631  0  1.004438  0
H  H12  1  0.25490032  0.33479101  0.49994260  1  0.179276  0  0.116787  0.101771  0  1.043183  0
H  H13  1  0.26447218  0.15512826  0.49996273  1  0.037696  0  0.108701  0.112971  0  0.999224  0
H  H14  1  0.81822946  0.15329020  0.50003800  1  0.053037  0  0.107995  0.111425  0  0.99359  0
H  H15  1  0.78641968  0.33454955  0.50004304  1  0.196734  0  0.117272  0.102303  0  1.040599  0
H  H16  1  0.18173357  0.84669670  0.49996739  1  0.05296  0  0.107994  0.111366  0  0.99347  0
H  H17  1  0.73549489  0.84487835  0.50003878  1  0.038017  0  0.108711  0.112988  0  0.999353  0
H  H18  1  0.74509728  0.66521777  0.50005628  1  0.179433  0  0.116794  0.101785  0  1.04312  0
H  H19  1  0.21358669  0.66543951  0.49996143  1  0.197162  0  0.117311  0.102411  0  1.040724  0
H  H20  1  0.69702259  0.99947988  0.50001485  1  0.032901  0  0.103799  0.097745  0  1.004531  0
H  H21  1  0.30292903  0.00051652  0.49999093  1  0.032823  0  0.103821  0.097707  0  1.004469  0
C  C22  1  0.37751219  0.49997287  0.29199470  1  0.508585  0  0.049568  0.098772  0  3.92093  0
C  C23  1  0.38449756  0.49998851  0.19085976  1  -0.05442  0  -0.081985  -0.170812  0  3.928825  0
C  C24  1  0.54411416  0.50003635  0.13674261  1  -0.071147  0  0.003947  0.138442  0  4.055424  0
C  C25  1  0.69040629  0.50006447  0.19061965  1  -0.082141  0  -0.082435  -0.175263  0  3.935663  0
C  C26  1  0.67394413  0.50002721  0.29204955  1  0.515647  0  0.052462  0.104499  0  3.9132  0
C  C27  1  0.56417764  0.50001676  0.03045983  1  -0.012391  0  -0.079263  -0.116642  0  3.969632  0
C  C28  1  0.43577828  0.49998694  0.96953701  1  0.084923  0  -0.079394  -0.11663  0  3.969584  0
C  C29  1  0.30957506  0.49993046  0.80937482  1  -0.082183  0  -0.082358  -0.175124  0  3.935847  0
C  C30  1  0.45585310  0.49996880  0.86325671  1  -0.070926  0  0.00381  0.13827  0  4.055242  0
C  C31  1  0.61548027  0.50001371  0.80914572  1  -0.054608  0  -0.081864  -0.170506  0  3.928589  0
C  C32  1  0.62247665  0.50002351  0.70800602  1  0.50862  0  0.049544  0.098515  0  3.921211  0
C  C33  1  0.32604613  0.49996844  0.70794312  1  0.515916  0  0.052411  0.104266  0  3.913707  0
C  C34  1  0.37751339  0.29199543  0.49997262  1  0.508522  0  0.049549  0.098722  0  3.920991  0
C  C35  1  0.38449915  0.19085937  0.49998900  1  -0.054398  0  -0.081956  -0.170709  0  3.928699  0
C  C36  1  0.54411602  0.13674358  0.50003644  1  -0.071228  0  0.003959  0.138423  0  4.055397  0
C  C37  1  0.69040810  0.19062145  0.50006417  1  -0.082043  0  -0.082444  -0.175306  0  3.935736  0
C  C38  1  0.67394763  0.29205196  0.50002736  1  0.515927  0  0.052472  0.104527  0  3.913251  0
C  C39  1  0.56417973  0.03046032  0.50001917  1  -0.012132  0  -0.079306  -0.116624  0  3.96963  0
C  C40  1  0.43577417  0.96953826  0.49998942  1  0.085141  0  -0.079415  -0.116797  0  3.969747  0
C  C41  1  0.30957333  0.80937274  0.49993394  1  -0.082109  0  -0.082244  -0.174935  0  3.935604  0
C  C42  1  0.45584915  0.86325719  0.49997245  1  -0.070962  0  0.00375  0.138273  0  4.055135  0
C  C43  1  0.61547705  0.80914576  0.50001726  1  -0.054756  0  -0.081883  -0.170588  0  3.928568  0
C  C44  1  0.62247459  0.70800824  0.50002228  1  0.50835  0  0.04954  0.098578  0  3.921161  0
C  C45  1  0.32604404  0.70794222  0.49997254  1  0.515696  0  0.052342  0.104135  0  3.913709  0
N  N46  1  0.51974708  0.49999681  0.34246817  1  -1.217052  0  -0.316919  -0.228457  0  3.503185  0
N  N47  1  0.48025339  0.49999883  0.65753140  1  -1.217826  0  -0.316927  -0.228321  0  3.503455  0
N  N48  1  0.51974861  0.34246821  0.49999768  1  -1.217333  0  -0.316943  -0.228517  0  3.503285  0
N  N49  1  0.48025408  0.65753035  0.50000033  1  -1.217567  0  -0.31691  -0.228296  0  3.503443  0
F  F50  1  0.22565304  0.49997823  0.49997840  1  -0.823673  0  -0.195324  -0.498448  0  1.330975  0
F  F51  1  0.77434822  0.50002179  0.50001529  1  -0.823773  0  -0.195315  -0.498454  0  1.331011  0
F  F52  1  0.00000669  0.58778161  0.41221707  1  -0.826992  0  -0.244103  -0.542054  0  1.084461  0
F  F53  1  0.99999184  0.41221987  0.58777526  1  -0.8269  0  -0.2441  -0.542013  0  1.084386  0
F  F54  1  0.02157178  0.41226158  0.41225539  1  -0.828449  0  -0.243781  -0.541764  0  1.084966  0
F  F55  1  0.97843059  0.58773990  0.58773680  1  -0.828371  0  -0.24373  -0.541724  0  1.085098  0
