# generated using pymatgen
data_CdH14C16(N6O)2
_symmetry_space_group_name_H-M   'P 1'
_cell_length_a   7.41114850
_cell_length_b   10.18860611
_cell_length_c   11.50151967
_cell_angle_alpha   90.00013648
_cell_angle_beta   89.99989076
_cell_angle_gamma   92.69927644
_symmetry_Int_Tables_number   1
_chemical_formula_structural   CdH14C16(N6O)2
_chemical_formula_sum   'Cd2 H28 C32 N24 O4'
_cell_volume   867.50779137
_cell_formula_units_Z   2
loop_
 _symmetry_equiv_pos_site_id
 _symmetry_equiv_pos_as_xyz
  1  'x, y, z'
loop_
 _atom_site_type_symbol
 _atom_site_label
 _atom_site_symmetry_multiplicity
 _atom_site_fract_x
 _atom_site_fract_y
 _atom_site_fract_z
 _atom_site_occupancy
 _atom_site_hle17_bader_spin_density
 _atom_site_hle17_ddec_charge
 _atom_site_hle17_ddec_spin_density
 _atom_site_hle17_ddec_sum_bond_order
 _atom_site_hle17_magmom
 _atom_site_hse06_10hf_bader_spin_density
 _atom_site_hse06_10hf_ddec_charge
 _atom_site_hse06_10hf_ddec_spin_density
 _atom_site_hse06_10hf_ddec_sum_bond_order
 _atom_site_hse06_10hf_magmom
 _atom_site_hse06_bader_spin_density
 _atom_site_hse06_ddec_charge
 _atom_site_hse06_ddec_spin_density
 _atom_site_hse06_ddec_sum_bond_order
 _atom_site_hse06_magmom
 _atom_site_pbe_bader_spin_density
 _atom_site_pbe_cm5_charge
 _atom_site_pbe_ddec_charge
 _atom_site_pbe_ddec_spin_density
 _atom_site_pbe_ddec_sum_bond_order
 _atom_site_pbe_magmom
Cd  Cd0  1  0.00000038  0.99999935  0.00000019  1  0  1.137974  0  1.704559  0  0  0.941454  0  2.165216  0  0  0.991961  0  2.11769  0  0  0.804202  0.905469  0  2.197974  0
Cd  Cd1  1  0.49999972  0.00000059  0.49999971  1  0  1.137983  0  1.704597  0  0  0.94147  0  2.165257  0  0  0.991976  0  2.117733  0  0  0.804214  0.905484  0  2.198005  0
H  H2  1  0.08849476  0.33778397  0.99817014  1  0  0.1166  0  0.964346  0  0  0.128529  0  1.020884  0  0  0.1316  0  1.019371  0  0  0.103108  0.126348  0  1.02211  0
H  H3  1  0.41150269  0.66221825  0.49816940  1  0  0.116641  0  0.96436  0  0  0.128547  0  1.020919  0  0  0.131619  0  1.019403  0  0  0.103099  0.126375  0  1.022133  0
H  H4  1  0.91150245  0.66221756  0.00183033  1  0  0.116649  0  0.964328  0  0  0.128551  0  1.020889  0  0  0.131624  0  1.019373  0  0  0.103113  0.126371  0  1.022115  0
H  H5  1  0.58849326  0.33778428  0.50182933  1  0  0.116584  0  0.964408  0  0  0.128513  0  1.020944  0  0  0.131584  0  1.019431  0  0  0.103104  0.126341  0  1.022158  0
H  H6  1  0.22069449  0.55421060  0.92586506  1  0  0.079363  0  0.994517  0  0  0.087823  0  1.06308  0  0  0.090549  0  1.061469  0  0  0.094654  0.085862  0  1.064232  0
H  H7  1  0.27930576  0.44579042  0.42586837  1  0  0.079336  0  0.99453  0  0  0.087793  0  1.063093  0  0  0.090526  0  1.061476  0  0  0.094667  0.085831  0  1.064246  0
H  H8  1  0.77931063  0.44578888  0.07413367  1  0  0.079321  0  0.994554  0  0  0.087781  0  1.063114  0  0  0.090515  0  1.061499  0  0  0.09467  0.085828  0  1.06426  0
H  H9  1  0.72069027  0.55421309  0.57413210  1  0  0.079374  0  0.994518  0  0  0.087837  0  1.063063  0  0  0.090568  0  1.06145  0  0  0.094684  0.085869  0  1.06422  0
H  H10  1  0.24232390  0.60212115  0.71696314  1  0  0.090788  0  0.949963  0  0  0.102164  0  1.007963  0  0  0.104417  0  1.007556  0  0  0.099626  0.100282  0  1.008785  0
H  H11  1  0.25767407  0.39787740  0.21696724  1  0  0.090792  0  0.949949  0  0  0.10217  0  1.007946  0  0  0.104425  0  1.007538  0  0  0.099638  0.100288  0  1.008769  0
H  H12  1  0.75767979  0.39787736  0.28303560  1  0  0.090759  0  0.949909  0  0  0.102118  0  1.007941  0  0  0.104373  0  1.007531  0  0  0.099604  0.100236  0  1.008762  0
H  H13  1  0.74232313  0.60212414  0.78303323  1  0  0.090769  0  0.949995  0  0  0.102162  0  1.007968  0  0  0.104416  0  1.007561  0  0  0.099635  0.100282  0  1.008791  0
H  H14  1  0.12492682  0.43917371  0.56956077  1  0  0.105919  0  0.975735  0  0  0.114664  0  1.040901  0  0  0.11769  0  1.039111  0  0  0.103647  0.11256  0  1.042273  0
H  H15  1  0.37506988  0.56082054  0.06956247  1  0  0.105878  0  0.975706  0  0  0.114633  0  1.040873  0  0  0.11767  0  1.039057  0  0  0.10365  0.11253  0  1.042246  0
H  H16  1  0.87507283  0.56082485  0.43043796  1  0  0.105866  0  0.975776  0  0  0.11461  0  1.040944  0  0  0.117637  0  1.039154  0  0  0.103614  0.112507  0  1.042316  0
H  H17  1  0.62492977  0.43917802  0.93043713  1  0  0.105867  0  0.97573  0  0  0.114621  0  1.040896  0  0  0.117655  0  1.039088  0  0  0.103638  0.112517  0  1.042271  0
H  H18  1  0.85187689  0.00274335  0.71254706  1  0  0.091215  0  0.979094  0  0  0.08799  0  1.06633  0  0  0.091337  0  1.061166  0  0  0.133917  0.085492  0  1.070169  0
H  H19  1  0.64811941  0.99725707  0.21254300  1  0  0.091139  0  0.979059  0  0  0.087914  0  1.06627  0  0  0.091261  0  1.061104  0  0  0.133896  0.085384  0  1.070137  0
H  H20  1  0.14811897  0.99725821  0.28745515  1  0  0.091229  0  0.97907  0  0  0.087981  0  1.066301  0  0  0.091324  0  1.061142  0  0  0.133926  0.085483  0  1.070141  0
H  H21  1  0.35188302  0.00274245  0.78745573  1  0  0.091149  0  0.97907  0  0  0.087935  0  1.066271  0  0  0.09128  0  1.061109  0  0  0.133899  0.085424  0  1.070124  0
H  H22  1  0.78853181  0.21060454  0.09082861  1  0  0.404176  0  0.897918  0  0  0.366852  0  0.977496  0  0  0.377591  0  0.961967  0  0  0.288927  0.359302  0  0.988411  0
H  H23  1  0.71147292  0.78939547  0.59082667  1  0  0.404119  0  0.897953  0  0  0.36681  0  0.977536  0  0  0.377548  0  0.962008  0  0  0.288925  0.359262  0  0.988447  0
H  H24  1  0.21147467  0.78939493  0.90917187  1  0  0.404094  0  0.897972  0  0  0.36678  0  0.977577  0  0  0.377519  0  0.962048  0  0  0.288905  0.359233  0  0.988487  0
H  H25  1  0.28852824  0.21060504  0.40917293  1  0  0.404122  0  0.897953  0  0  0.366807  0  0.977544  0  0  0.377546  0  0.962016  0  0  0.288916  0.35926  0  0.988455  0
H  H26  1  0.94201664  0.19598679  0.18955893  1  0  0.394243  0  0.925081  0  0  0.348526  0  1.015108  0  0  0.359423  0  0.999398  0  0  0.28768  0.340825  0  1.026232  0
H  H27  1  0.55798638  0.80401250  0.68955808  1  0  0.394185  0  0.92515  0  0  0.348463  0  1.015185  0  0  0.359359  0  0.999476  0  0  0.287675  0.340762  0  1.02631  0
H  H28  1  0.05798714  0.80401270  0.81044241  1  0  0.394214  0  0.925105  0  0  0.348495  0  1.015136  0  0  0.359391  0  0.999428  0  0  0.287694  0.340794  0  1.026261  0
H  H29  1  0.44201335  0.19598704  0.31044239  1  0  0.394193  0  0.925137  0  0  0.348474  0  1.015169  0  0  0.35937  0  0.99946  0  0  0.287681  0.340774  0  1.026292  0
C  C30  1  0.04065584  0.26638786  0.82312974  1  0  0.142512  0  3.806113  0  0  0.140667  0  4.052167  0  0  0.143788  0  4.075537  0  0  0.081414  0.138525  0  4.03637  0
C  C31  1  0.45934049  0.73361098  0.32312910  1  0  0.142695  0  3.806026  0  0  0.140742  0  4.05221  0  0  0.143863  0  4.075577  0  0  0.081419  0.138599  0  4.036411  0
C  C32  1  0.95933985  0.73361173  0.17687073  1  0  0.142579  0  3.806034  0  0  0.140627  0  4.052232  0  0  0.143748  0  4.075601  0  0  0.081391  0.138485  0  4.036432  0
C  C33  1  0.54065546  0.26639155  0.67687050  1  0  0.142565  0  3.806127  0  0  0.140723  0  4.052181  0  0  0.143843  0  4.075548  0  0  0.081422  0.138582  0  4.036384  0
C  C34  1  0.10130963  0.35921747  0.90576410  1  0  -0.137647  0  3.725011  0  0  -0.158045  0  3.974934  0  0  -0.160771  0  3.995271  0  0  -0.097024  -0.156414  0  3.961226  0
C  C35  1  0.39868933  0.64078352  0.40576507  1  0  -0.137774  0  3.72506  0  0  -0.158123  0  3.975013  0  0  -0.160849  0  3.995347  0  0  -0.097026  -0.156499  0  3.961298  0
C  C36  1  0.89868884  0.64078307  0.09423550  1  0  -0.137718  0  3.725002  0  0  -0.158057  0  3.974943  0  0  -0.160783  0  3.995281  0  0  -0.09703  -0.156428  0  3.96124  0
C  C37  1  0.60130796  0.35921900  0.59423453  1  0  -0.13764  0  3.725092  0  0  -0.158042  0  3.975012  0  0  -0.160766  0  3.995345  0  0  -0.097038  -0.156416  0  3.961293  0
C  C38  1  0.17279446  0.47910682  0.86456180  1  0  -0.074255  0  3.779851  0  0  -0.090711  0  4.035846  0  0  -0.093316  0  4.058658  0  0  -0.098398  -0.088708  0  4.020258  0
C  C39  1  0.32720597  0.52089404  0.36456522  1  0  -0.074231  0  3.779959  0  0  -0.090678  0  4.035938  0  0  -0.09329  0  4.058757  0  0  -0.098439  -0.088677  0  4.020352  0
C  C40  1  0.82720932  0.52089267  0.13543693  1  0  -0.074242  0  3.780016  0  0  -0.090695  0  4.035983  0  0  -0.093306  0  4.0588  0  0  -0.098426  -0.088701  0  4.020394  0
C  C41  1  0.67279006  0.47910947  0.63543438  1  0  -0.074293  0  3.779984  0  0  -0.090746  0  4.03598  0  0  -0.093355  0  4.058791  0  0  -0.098414  -0.088739  0  4.020396  0
C  C42  1  0.18369676  0.50735177  0.74501502  1  0  -0.050607  0  3.756741  0  0  -0.067053  0  4.011256  0  0  -0.068778  0  4.034159  0  0  -0.09076  -0.065465  0  3.995849  0
C  C43  1  0.31630105  0.49264587  0.24501925  1  0  -0.050575  0  3.756676  0  0  -0.067025  0  4.011201  0  0  -0.068752  0  4.034107  0  0  -0.090739  -0.065438  0  3.995795  0
C  C44  1  0.81630693  0.49264674  0.25498372  1  0  -0.050583  0  3.756716  0  0  -0.067017  0  4.011228  0  0  -0.068743  0  4.034135  0  0  -0.09076  -0.065429  0  3.995822  0
C  C45  1  0.68369616  0.50735567  0.75498035  1  0  -0.050574  0  3.756676  0  0  -0.067037  0  4.011202  0  0  -0.068763  0  4.034107  0  0  -0.090771  -0.06545  0  3.995795  0
C  C46  1  0.12120525  0.41691721  0.66189029  1  0  -0.138059  0  3.747705  0  0  -0.159892  0  4.003357  0  0  -0.162818  0  4.02329  0  0  -0.093076  -0.158078  0  3.989822  0
C  C47  1  0.37879120  0.58307729  0.16189203  1  0  -0.138026  0  3.747552  0  0  -0.159883  0  4.003183  0  0  -0.162808  0  4.023121  0  0  -0.093089  -0.15807  0  3.989652  0
C  C48  1  0.87879297  0.58308039  0.33811018  1  0  -0.137943  0  3.747643  0  0  -0.159775  0  4.003283  0  0  -0.162702  0  4.023215  0  0  -0.093014  -0.157962  0  3.989747  0
C  C49  1  0.62120862  0.41692324  0.83810844  1  0  -0.138009  0  3.747557  0  0  -0.159868  0  4.003194  0  0  -0.162794  0  4.023131  0  0  -0.093076  -0.158053  0  3.989663  0
C  C50  1  0.05017595  0.29677088  0.70325083  1  0  0.117742  0  3.742603  0  0  0.109837  0  3.983437  0  0  0.114005  0  4.005053  0  0  0.093466  0.107382  0  3.968663  0
C  C51  1  0.44982054  0.70322569  0.20325100  1  0  0.117741  0  3.742683  0  0  0.109868  0  3.983474  0  0  0.114039  0  4.005083  0  0  0.093507  0.107413  0  3.968698  0
C  C52  1  0.94982361  0.70322670  0.29674877  1  0  0.11773  0  3.74266  0  0  0.109819  0  3.983513  0  0  0.11399  0  4.005128  0  0  0.093465  0.107364  0  3.968735  0
C  C53  1  0.55017928  0.29677484  0.79674860  1  0  0.117767  0  3.742696  0  0  0.109856  0  3.98346  0  0  0.114028  0  4.005072  0  0  0.093508  0.107401  0  3.968687  0
C  C54  1  0.91883428  0.09710565  0.73165764  1  0  0.229533  0  3.644716  0  0  0.158704  0  3.934971  0  0  0.177163  0  3.943838  0  0  0.158652  0.146961  0  3.92882  0
C  C55  1  0.58116441  0.90289184  0.23165868  1  0  0.22972  0  3.644681  0  0  0.158905  0  3.934883  0  0  0.177367  0  3.943739  0  0  0.15872  0.147187  0  3.928755  0
C  C56  1  0.08115897  0.90289692  0.26834284  1  0  0.229565  0  3.644748  0  0  0.158764  0  3.934965  0  0  0.177226  0  3.943831  0  0  0.158667  0.147017  0  3.928814  0
C  C57  1  0.41883667  0.09710769  0.76834092  1  0  0.229581  0  3.644717  0  0  0.158742  0  3.934946  0  0  0.177203  0  3.943808  0  0  0.158668  0.147006  0  3.928807  0
C  C58  1  0.93944454  0.17148013  0.52809678  1  0  0.434401  0  3.787707  0  0  0.382872  0  4.078439  0  0  0.400641  0  4.091449  0  0  0.328408  0.37109  0  4.069459  0
C  C59  1  0.56055336  0.82851684  0.02809682  1  0  0.434558  0  3.787359  0  0  0.38288  0  4.078265  0  0  0.400647  0  4.091274  0  0  0.328378  0.3711  0  4.069286  0
C  C60  1  0.06055401  0.82852139  0.47190370  1  0  0.434416  0  3.787709  0  0  0.38287  0  4.078429  0  0  0.400639  0  4.091439  0  0  0.328408  0.371097  0  4.069434  0
C  C61  1  0.43944898  0.17148169  0.97190278  1  0  0.434499  0  3.78744  0  0  0.382811  0  4.078351  0  0  0.40058  0  4.091362  0  0  0.328337  0.371035  0  4.069365  0
N  N62  1  0.96020928  0.14008085  0.83704112  1  0  -0.425594  0  3.131118  0  0  -0.360468  0  3.415483  0  0  -0.381172  0  3.429412  0  0  -0.344384  -0.34624  0  3.40564  0
N  N63  1  0.53978928  0.85991887  0.33704126  1  0  -0.425713  0  3.131126  0  0  -0.360578  0  3.415538  0  0  -0.381282  0  3.429467  0  0  -0.344415  -0.346349  0  3.405685  0
N  N64  1  0.03979053  0.85991968  0.16296022  1  0  -0.425661  0  3.131135  0  0  -0.36051  0  3.415523  0  0  -0.381213  0  3.429451  0  0  -0.3444  -0.346285  0  3.405684  0
N  N65  1  0.46021054  0.14008165  0.66295748  1  0  -0.425576  0  3.131087  0  0  -0.360474  0  3.415473  0  0  -0.381175  0  3.429403  0  0  -0.344385  -0.346244  0  3.405626  0
N  N66  1  0.97073991  0.18645259  0.64685673  1  0  -0.184127  0  3.523287  0  0  -0.101493  0  3.748518  0  0  -0.120066  0  3.769355  0  0  -0.213848  -0.089381  0  3.734353  0
N  N67  1  0.52925910  0.81354566  0.14685852  1  0  -0.18438  0  3.523308  0  0  -0.101624  0  3.748449  0  0  -0.120197  0  3.76928  0  0  -0.213901  -0.089514  0  3.73428  0
N  N68  1  0.02925830  0.81354501  0.35314374  1  0  -0.184184  0  3.523345  0  0  -0.101456  0  3.74845  0  0  -0.120033  0  3.769294  0  0  -0.213827  -0.089348  0  3.734282  0
N  N69  1  0.47074207  0.18645485  0.85314195  1  0  -0.184334  0  3.523373  0  0  -0.101549  0  3.748489  0  0  -0.120125  0  3.769329  0  0  -0.21387  -0.089439  0  3.734323  0
N  N70  1  0.04321766  0.22817937  0.44465363  1  0  -0.34764  0  2.943202  0  0  -0.312438  0  3.21711  0  0  -0.324709  0  3.227563  0  0  -0.215286  -0.304234  0  3.21042  0
N  N71  1  0.45678220  0.77181777  0.94465136  1  0  -0.347683  0  2.943139  0  0  -0.312455  0  3.217107  0  0  -0.32473  0  3.227564  0  0  -0.215311  -0.304248  0  3.210416  0
N  N72  1  0.95678342  0.77182015  0.55534771  1  0  -0.347732  0  2.943307  0  0  -0.312545  0  3.217229  0  0  -0.324818  0  3.227685  0  0  -0.215343  -0.30434  0  3.210536  0
N  N73  1  0.54321888  0.22818176  0.05534825  1  0  -0.34766  0  2.943034  0  0  -0.312434  0  3.217004  0  0  -0.32471  0  3.227462  0  0  -0.215288  -0.304229  0  3.210311  0
N  N74  1  0.96003844  0.19018294  0.34448887  1  0  -0.112675  0  3.088429  0  0  -0.077694  0  3.369962  0  0  -0.080857  0  3.382045  0  0  -0.09362  -0.075712  0  3.362378  0
N  N75  1  0.53996137  0.80981580  0.84448719  1  0  -0.1126  0  3.088425  0  0  -0.07761  0  3.369949  0  0  -0.080774  0  3.382035  0  0  -0.093565  -0.075628  0  3.362362  0
N  N76  1  0.03996265  0.80981658  0.65551160  1  0  -0.112538  0  3.088448  0  0  -0.07755  0  3.369977  0  0  -0.080711  0  3.382061  0  0  -0.093539  -0.07557  0  3.362394  0
N  N77  1  0.46003971  0.19018373  0.15551241  1  0  -0.11253  0  3.088252  0  0  -0.077527  0  3.36975  0  0  -0.08069  0  3.381837  0  0  -0.093538  -0.075542  0  3.362156  0
N  N78  1  0.81737033  0.11344923  0.36682767  1  0  -0.087413  0  3.022965  0  0  -0.074601  0  3.310712  0  0  -0.075154  0  3.325542  0  0  -0.102675  -0.073752  0  3.300771  0
N  N79  1  0.68262949  0.88655055  0.86682684  1  0  -0.087414  0  3.022909  0  0  -0.074591  0  3.310634  0  0  -0.075143  0  3.325464  0  0  -0.102662  -0.073741  0  3.300703  0
N  N80  1  0.18263083  0.88655128  0.63317281  1  0  -0.08745  0  3.022922  0  0  -0.074634  0  3.310653  0  0  -0.075185  0  3.325482  0  0  -0.102683  -0.073785  0  3.300721  0
N  N81  1  0.31737024  0.11344899  0.13317276  1  0  -0.087528  0  3.022913  0  0  -0.074718  0  3.31064  0  0  -0.07527  0  3.32547  0  0  -0.102697  -0.073868  0  3.300707  0
N  N82  1  0.79938487  0.09954313  0.48284016  1  0  -0.389399  0  3.087767  0  0  -0.334507  0  3.383109  0  0  -0.353137  0  3.397975  0  0  -0.241814  -0.32179  0  3.372755  0
N  N83  1  0.70061303  0.90045402  0.98284021  1  0  -0.389463  0  3.087641  0  0  -0.33455  0  3.383041  0  0  -0.35318  0  3.397906  0  0  -0.241824  -0.321834  0  3.372692  0
N  N84  1  0.20061487  0.90045641  0.51715944  1  0  -0.389395  0  3.08778  0  0  -0.334526  0  3.383155  0  0  -0.353156  0  3.398018  0  0  -0.241836  -0.321811  0  3.372799  0
N  N85  1  0.29938679  0.09954650  0.01715939  1  0  -0.389381  0  3.087667  0  0  -0.334459  0  3.383059  0  0  -0.353088  0  3.397923  0  0  -0.241804  -0.321746  0  3.372708  0
O  O86  1  0.91311167  0.18342788  0.10549613  1  0  -0.828042  0  1.95211  0  0  -0.762448  0  2.174245  0  0  -0.783409  0  2.140158  0  0  -0.584711  -0.747582  0  2.19804  0
O  O87  1  0.58689302  0.81657216  0.60549527  1  0  -0.827951  0  1.952196  0  0  -0.762353  0  2.174349  0  0  -0.783313  0  2.140265  0  0  -0.584713  -0.747491  0  2.198144  0
O  O88  1  0.08689480  0.81657158  0.89450434  1  0  -0.827948  0  1.952172  0  0  -0.762351  0  2.174329  0  0  -0.783309  0  2.140244  0  0  -0.584707  -0.747485  0  2.198121  0
O  O89  1  0.41310680  0.18342836  0.39450433  1  0  -0.827954  0  1.952163  0  0  -0.762364  0  2.174318  0  0  -0.783324  0  2.140232  0  0  -0.584714  -0.747503  0  2.198111  0
