# generated using pymatgen
data_SmH17C24(N2O3)2
_symmetry_space_group_name_H-M   'P 1'
_cell_length_a   9.84680438
_cell_length_b   9.82618319
_cell_length_c   12.76926126
_cell_angle_alpha   72.53221239
_cell_angle_beta   85.58935442
_cell_angle_gamma   73.14751860
_symmetry_Int_Tables_number   1
_chemical_formula_structural   SmH17C24(N2O3)2
_chemical_formula_sum   'Sm2 H34 C48 N8 O12'
_cell_volume   1127.85243157
_cell_formula_units_Z   2
loop_
 _symmetry_equiv_pos_site_id
 _symmetry_equiv_pos_as_xyz
  1  'x, y, z'
loop_
 _atom_site_type_symbol
 _atom_site_label
 _atom_site_symmetry_multiplicity
 _atom_site_fract_x
 _atom_site_fract_y
 _atom_site_fract_z
 _atom_site_occupancy
 _atom_site_pbe_bader_spin_density
 _atom_site_pbe_cm5_charge
 _atom_site_pbe_ddec_charge
 _atom_site_pbe_ddec_spin_density
 _atom_site_pbe_ddec_sum_bond_order
 _atom_site_pbe_magmom
Sm  Sm0  1  0.57198209  0.38097696  0.89583651  1  0  1.49601  1.960866  0  2.235825  0
Sm  Sm1  1  0.42801812  0.61902292  0.10416343  1  0  1.496023  1.960862  0  2.235825  0
H  H2  1  0.17424632  0.59496097  0.33311137  1  0  0.314236  0.301863  0  0.985963  0
H  H3  1  0.82575185  0.40503891  0.66688868  1  0  0.314222  0.301859  0  0.985975  0
H  H4  1  0.54572543  0.70162657  0.67458618  1  0  0.118989  0.088957  0  1.026775  0
H  H5  1  0.45427244  0.29837443  0.32541363  1  0  0.118979  0.08893  0  1.026821  0
H  H6  1  0.43975858  0.84670170  0.48812391  1  0  0.109228  0.115444  0  0.98603  0
H  H7  1  0.56023635  0.15330264  0.51187685  1  0  0.109218  0.115421  0  0.986171  0
H  H8  1  0.29539586  0.73747692  0.39912123  1  0  0.112758  0.121153  0  1.000954  0
H  H9  1  0.70459674  0.26252854  0.60087861  1  0  0.112755  0.121161  0  1.000959  0
H  H10  1  0.41857035  0.10486885  0.96305100  1  0  0.125188  0.09476  0  1.026662  0
H  H11  1  0.58143349  0.89512880  0.03695005  1  0  0.125183  0.094748  0  1.026712  0
H  H12  1  0.28463650  0.96796961  0.89704430  1  0  0.116296  0.127864  0  1.024723  0
H  H13  1  0.71537045  0.03202803  0.10295268  1  0  0.116291  0.127837  0  1.02469  0
H  H14  1  0.19159503  0.07175365  0.69948513  1  0  0.107603  0.104466  0  1.014117  0
H  H15  1  0.80840824  0.92824622  0.30051466  1  0  0.107615  0.104491  0  1.014049  0
H  H16  1  0.97860266  0.19026322  0.41376302  1  0  0.102203  0.104691  0  1.011703  0
H  H17  1  0.02139726  0.80973777  0.58623590  1  0  0.102191  0.104681  0  1.011688  0
H  H18  1  0.82980922  0.18072065  0.26819576  1  0  0.102845  0.102462  0  1.001829  0
H  H19  1  0.17019027  0.81927813  0.73180447  1  0  0.102852  0.102512  0  1.001777  0
H  H20  1  0.90809989  0.58234623  0.05433417  1  0  0.107999  0.112603  0  0.994273  0
H  H21  1  0.09190020  0.41765032  0.94566497  1  0  0.107997  0.112598  0  0.994238  0
H  H22  1  0.05579090  0.59109658  0.19698078  1  0  0.109887  0.110527  0  1.022407  0
H  H23  1  0.94420861  0.40890220  0.80301789  1  0  0.109878  0.110518  0  1.022415  0
H  H24  1  0.01220478  0.08326700  0.84989240  1  0  0.107324  0.168242  0  0.987296  0
H  H25  1  0.98779552  0.91673621  0.15010991  1  0  0.107304  0.168232  0  0.987305  0
H  H26  1  0.94642544  0.05572416  0.73460321  1  0  0.098985  0.149788  0  0.994149  0
H  H27  1  0.05357880  0.94427571  0.26539966  1  0  0.098974  0.149754  0  0.994159  0
H  H28  1  0.93584742  0.93428473  0.87033392  1  0  0.098964  0.15598  0  1.007863  0
H  H29  1  0.06415624  0.06571736  0.12966847  1  0  0.099007  0.156018  0  1.007812  0
H  H30  1  0.59248827  0.95410735  0.77963941  1  0  0.095191  0.152265  0  1.00931  0
H  H31  1  0.40751222  0.04589142  0.22036155  1  0  0.095178  0.152262  0  1.009289  0
H  H32  1  0.72314530  0.82250922  0.72409467  1  0  0.090964  0.145938  0  1.019371  0
H  H33  1  0.27685664  0.17749176  0.27590572  1  0  0.090972  0.145926  0  1.019363  0
H  H34  1  0.75450681  0.85362247  0.84954857  1  0  0.103447  0.163452  0  0.997663  0
H  H35  1  0.24549571  0.14637629  0.15045307  1  0  0.103448  0.163452  0  0.997713  0
C  C36  1  0.47787363  0.66062029  0.63554937  1  0  0.049536  0.10214  0  3.97543  0
C  C37  1  0.52212189  0.33938183  0.36445186  1  0  0.049537  0.102131  0  3.975579  0
C  C38  1  0.41912880  0.74065262  0.53057683  1  0  -0.08683  -0.135747  0  4.006803  0
C  C39  1  0.58087011  0.25934838  0.46942214  1  0  -0.086823  -0.135717  0  4.007029  0
C  C40  1  0.33911209  0.68133120  0.48184193  1  0  -0.065962  -0.062302  0  3.924412  0
C  C41  1  0.66088310  0.31867203  0.51816142  1  0  -0.065992  -0.062335  0  3.924494  0
C  C42  1  0.31679285  0.54308073  0.53985516  1  0  0.001867  -0.013115  0  3.99983  0
C  C43  1  0.68320162  0.45692139  0.46014848  1  0  0.001839  -0.013162  0  3.999896  0
C  C44  1  0.37708562  0.47087609  0.64779223  1  0  0.122119  0.13028  0  3.979634  0
C  C45  1  0.62291428  0.52912491  0.35220826  1  0  0.12216  0.130344  0  3.979539  0
C  C46  1  0.35255948  0.33098129  0.71277115  1  0  0.11749  0.1244  0  3.994055  0
C  C47  1  0.64743938  0.66901970  0.28723095  1  0  0.117463  0.124388  0  3.994068  0
C  C48  1  0.37798003  0.14591264  0.87911080  1  0  0.062279  0.12357  0  3.931987  0
C  C49  1  0.62202225  0.85408723  0.12088669  1  0  0.062277  0.123574  0  3.931952  0
C  C50  1  0.30163519  0.06925921  0.84102273  1  0  -0.078775  -0.120039  0  3.958927  0
C  C51  1  0.69836899  0.93073733  0.15897543  1  0  -0.07877  -0.119995  0  3.958817  0
C  C52  1  0.25096061  0.12598887  0.73433495  1  0  -0.067507  -0.072288  0  3.94755  0
C  C53  1  0.74904299  0.87400989  0.26566272  1  0  -0.067497  -0.072262  0  3.947364  0
C  C54  1  0.27326910  0.26054855  0.66836186  1  0  0.000181  -0.00832  0  4.01406  0
C  C55  1  0.72672817  0.73945467  0.33163825  1  0  0.000157  -0.008413  0  4.014035  0
C  C56  1  0.21709794  0.33195370  0.55970859  1  0  0.080626  0.086325  0  4.131556  0
C  C57  1  0.78289860  0.66804841  0.44029260  1  0  0.080644  0.08636  0  4.131561  0
C  C58  1  0.23803672  0.46874518  0.49890342  1  0  0.094127  0.088285  0  4.032381  0
C  C59  1  0.76195985  0.53125693  0.50109620  1  0  0.094128  0.088289  0  4.032487  0
C  C60  1  0.11005650  0.39302274  0.40483758  1  0  0.220514  0.300884  0  4.014063  0
C  C61  1  0.88994108  0.60697937  0.59516199  1  0  0.220536  0.300938  0  4.013956  0
C  C62  1  0.02599816  0.39127029  0.31642564  1  0  -0.006759  0.004754  0  4.02788  0
C  C63  1  0.97400133  0.60872848  0.68357381  1  0  -0.006779  0.004743  0  4.027836  0
C  C64  1  0.96276857  0.27493629  0.33436252  1  0  -0.085727  -0.111285  0  3.985174  0
C  C65  1  0.03722962  0.72506360  0.66563595  1  0  -0.08571  -0.111277  0  3.985029  0
C  C66  1  0.88054603  0.26975611  0.25285751  1  0  -0.088102  -0.10951  0  4.003  0
C  C67  1  0.11945550  0.73024266  0.74714184  1  0  -0.088129  -0.109593  0  4.002981  0
C  C68  1  0.85995774  0.38021094  0.15147078  1  0  -0.006489  -0.01739  0  3.953288  0
C  C69  1  0.14004278  0.61978783  0.84852862  1  0  -0.006455  -0.01735  0  3.953441  0
C  C70  1  0.92328725  0.49578729  0.13282609  1  0  -0.083392  -0.105187  0  3.969479  0
C  C71  1  0.07671474  0.50421369  0.86717116  1  0  -0.083391  -0.10518  0  3.969532  0
C  C72  1  0.00582874  0.50130422  0.21440891  1  0  -0.080161  -0.097814  0  3.943532  0
C  C73  1  0.99417077  0.49869455  0.78558976  1  0  -0.080153  -0.097812  0  3.943516  0
C  C74  1  0.76616006  0.37608000  0.06637173  1  0  0.225877  0.636878  0  4.161518  0
C  C75  1  0.23384178  0.62391765  0.93362707  1  0  0.225864  0.636875  0  4.161579  0
C  C76  1  0.78864002  0.15429739  0.83642556  1  0  0.198485  0.692181  0  4.14261  0
C  C77  1  0.21136121  0.84570248  0.16357433  1  0  0.198484  0.692155  0  4.142598  0
C  C78  1  0.92828676  0.04879164  0.82173847  1  0  -0.241071  -0.519683  0  3.880092  0
C  C79  1  0.07171517  0.95120935  0.17826269  1  0  -0.241095  -0.519697  0  3.880076  0
C  C80  1  0.60973755  0.72489732  0.86578643  1  0  0.233068  0.745498  0  4.072987  0
C  C81  1  0.39026530  0.27510033  0.13421310  1  0  0.23311  0.745595  0  4.072915  0
C  C82  1  0.67335209  0.84618506  0.79874594  1  0  -0.245816  -0.524798  0  3.860998  0
C  C83  1  0.32664870  0.15381260  0.20125526  1  0  -0.245815  -0.524812  0  3.861003  0
N  N84  1  0.45794778  0.53001255  0.69315544  1  0  -0.352227  -0.361272  0  3.479486  0
N  N85  1  0.54205111  0.46998844  0.30684510  1  0  -0.3522  -0.361232  0  3.479436  0
N  N86  1  0.40485219  0.27130095  0.81726449  1  0  -0.379694  -0.387172  0  3.514857  0
N  N87  1  0.59514831  0.72869782  0.18273569  1  0  -0.379672  -0.387157  0  3.514746  0
N  N88  1  0.13754993  0.28604921  0.50099258  1  0  -0.350071  -0.422895  0  3.203899  0
N  N89  1  0.86244722  0.71395068  0.49900752  1  0  -0.350128  -0.422945  0  3.203933  0
N  N90  1  0.16889841  0.50578586  0.40065212  1  0  -0.369253  -0.293192  0  3.554889  0
N  N91  1  0.83109887  0.49421736  0.59934799  1  0  -0.369232  -0.293206  0  3.554832  0
O  O92  1  0.81425455  0.30828309  0.99604040  1  0  -0.339478  -0.58266  0  2.14223  0
O  O93  1  0.18574494  0.69171569  0.00395983  1  0  -0.339464  -0.582632  0  2.142132  0
O  O94  1  0.63312409  0.44307264  0.06878151  1  0  -0.441436  -0.744658  0  2.46478  0
O  O95  1  0.36687542  0.55692613  0.93121716  1  0  -0.441412  -0.744658  0  2.464875  0
O  O96  1  0.75608083  0.28909328  0.77139963  1  0  -0.393157  -0.679702  0  2.250362  0
O  O97  1  0.24391968  0.71090549  0.22859977  1  0  -0.393123  -0.679667  0  2.250352  0
O  O98  1  0.70542341  0.11589246  0.91273324  1  0  -0.362737  -0.615855  0  2.203984  0
O  O99  1  0.29457609  0.88410632  0.08726621  1  0  -0.362773  -0.615849  0  2.203962  0
O  O100  1  0.64138646  0.60370946  0.84006568  1  0  -0.402217  -0.665348  0  2.271217  0
O  O101  1  0.35861274  0.39629043  0.15993353  1  0  -0.40224  -0.665385  0  2.271153  0
O  O102  1  0.52962407  0.75129770  0.94474983  1  0  -0.397425  -0.666283  0  2.284897  0
O  O103  1  0.47037672  0.24869996  0.05525059  1  0  -0.397438  -0.666321  0  2.28492  0
