# generated using pymatgen
data_AgH8C8S2(NO2)4
_symmetry_space_group_name_H-M   'P 1'
_cell_length_a   7.19218061
_cell_length_b   8.69577402
_cell_length_c   12.51070753
_cell_angle_alpha   82.56898528
_cell_angle_beta   73.30599923
_cell_angle_gamma   65.56490977
_symmetry_Int_Tables_number   1
_chemical_formula_structural   AgH8C8S2(NO2)4
_chemical_formula_sum   'Ag2 H16 C16 S4 N8 O16'
_cell_volume   682.28317503
_cell_formula_units_Z   2
loop_
 _symmetry_equiv_pos_site_id
 _symmetry_equiv_pos_as_xyz
  1  'x, y, z'
loop_
 _atom_site_type_symbol
 _atom_site_label
 _atom_site_symmetry_multiplicity
 _atom_site_fract_x
 _atom_site_fract_y
 _atom_site_fract_z
 _atom_site_occupancy
 _atom_site_hle17_bader_spin_density
 _atom_site_hle17_ddec_charge
 _atom_site_hle17_ddec_spin_density
 _atom_site_hle17_ddec_sum_bond_order
 _atom_site_hle17_magmom
 _atom_site_hse06_10hf_bader_spin_density
 _atom_site_hse06_10hf_ddec_charge
 _atom_site_hse06_10hf_ddec_spin_density
 _atom_site_hse06_10hf_ddec_sum_bond_order
 _atom_site_hse06_10hf_magmom
 _atom_site_hse06_bader_spin_density
 _atom_site_hse06_ddec_charge
 _atom_site_hse06_ddec_spin_density
 _atom_site_hse06_ddec_sum_bond_order
 _atom_site_hse06_magmom
 _atom_site_pbe_bader_spin_density
 _atom_site_pbe_cm5_charge
 _atom_site_pbe_ddec_charge
 _atom_site_pbe_ddec_spin_density
 _atom_site_pbe_ddec_sum_bond_order
 _atom_site_pbe_magmom
Ag  Ag0  1  0.96807645  0.74997174  0.74997684  1  0  0.686008  0  1.819609  0  0  0.584049  0  2.252574  0  0  0.609663  0  2.219848  0  0  0.74024  0.568617  0  2.274867  0
Ag  Ag1  1  0.03193885  0.25002989  0.25001178  1  0  0.686022  0  1.818897  0  0  0.584014  0  2.251991  0  0  0.609701  0  2.219241  0  0  0.739966  0.568512  0  2.274321  0
H  H2  1  0.16714755  0.01405846  0.74221501  1  0  0.122835  0  0.948815  0  0  0.128309  0  1.010446  0  0  0.132004  0  1.007973  0  0  0.128787  0.123242  0  1.014511  0
H  H3  1  0.42349313  0.48597716  0.75777108  1  0  0.122154  0  0.949853  0  0  0.127965  0  1.011093  0  0  0.131667  0  1.00862  0  0  0.128818  0.122885  0  1.015151  0
H  H4  1  0.83280460  0.98595959  0.25785916  1  0  0.122557  0  0.949121  0  0  0.128217  0  1.010634  0  0  0.131922  0  1.008146  0  0  0.128744  0.123144  0  1.014725  0
H  H5  1  0.57654840  0.51401133  0.24218336  1  0  0.122109  0  0.949815  0  0  0.127904  0  1.011092  0  0  0.131609  0  1.008621  0  0  0.128847  0.122829  0  1.015149  0
H  H6  1  0.51052899  0.01433260  0.74839122  1  0  0.107321  0  0.960759  0  0  0.112695  0  1.027341  0  0  0.116287  0  1.024443  0  0  0.127259  0.107791  0  1.031457  0
H  H7  1  0.77338773  0.48563452  0.75148236  1  0  0.107242  0  0.961526  0  0  0.112542  0  1.027914  0  0  0.116087  0  1.025118  0  0  0.12786  0.107639  0  1.032073  0
H  H8  1  0.48944236  0.98568421  0.25168471  1  0  0.107223  0  0.960982  0  0  0.112685  0  1.027397  0  0  0.116284  0  1.024483  0  0  0.127245  0.107782  0  1.031524  0
H  H9  1  0.22666903  0.51435632  0.24845997  1  0  0.107151  0  0.96156  0  0  0.112743  0  1.027654  0  0  0.116231  0  1.024919  0  0  0.127879  0.107836  0  1.031824  0
H  H10  1  0.04103726  0.37215020  0.82773572  1  0  0.110627  0  0.960171  0  0  0.113001  0  1.026739  0  0  0.115486  0  1.024909  0  0  0.12841  0.112826  0  1.02671  0
H  H11  1  0.74097681  0.12783197  0.67225459  1  0  0.110923  0  0.959337  0  0  0.1132  0  1.025769  0  0  0.115697  0  1.023924  0  0  0.128478  0.112972  0  1.025782  0
H  H12  1  0.95890020  0.62794858  0.17224371  1  0  0.110293  0  0.960267  0  0  0.112868  0  1.026689  0  0  0.115357  0  1.024851  0  0  0.128308  0.112689  0  1.026678  0
H  H13  1  0.25908603  0.87207243  0.32773727  1  0  0.11091  0  0.959422  0  0  0.113104  0  1.025979  0  0  0.115601  0  1.02411  0  0  0.128473  0.11288  0  1.026004  0
H  H14  1  0.93414653  0.79934746  0.99324671  1  0  0.123257  0  0.930814  0  0  0.125321  0  0.99509  0  0  0.128061  0  0.992662  0  0  0.132483  0.124987  0  0.995635  0
H  H15  1  0.22664363  0.70061896  0.50672701  1  0  0.121998  0  0.931266  0  0  0.124868  0  0.994599  0  0  0.127515  0  0.99227  0  0  0.132693  0.124549  0  0.995108  0
H  H16  1  0.06578006  0.20073224  0.00672422  1  0  0.123341  0  0.930583  0  0  0.125386  0  0.994877  0  0  0.128116  0  0.99243  0  0  0.132496  0.125044  0  0.995438  0
H  H17  1  0.77341030  0.29929058  0.49327117  1  0  0.122151  0  0.931426  0  0  0.124937  0  0.994796  0  0  0.127593  0  0.99247  0  0  0.132711  0.124614  0  0.995308  0
C  C18  1  0.30116851  0.89553316  0.74603084  1  0  0.109996  0  3.581101  0  0  0.082374  0  3.8265  0  0  0.085697  0  3.841263  0  0  0.074615  0.078992  0  3.821184  0
C  C19  1  0.44279071  0.60448773  0.75391911  1  0  0.10974  0  3.583258  0  0  0.081644  0  3.828506  0  0  0.084952  0  3.84329  0  0  0.073573  0.078295  0  3.82313  0
C  C20  1  0.69881493  0.10447044  0.25400621  1  0  0.110536  0  3.581719  0  0  0.082642  0  3.827215  0  0  0.085972  0  3.841957  0  0  0.074684  0.079258  0  3.821934  0
C  C21  1  0.55723376  0.39551623  0.24605621  1  0  0.109884  0  3.583095  0  0  0.081741  0  3.828561  0  0  0.085061  0  3.843309  0  0  0.073564  0.078391  0  3.823209  0
C  C22  1  0.49469207  0.89535893  0.74719706  1  0  0.109114  0  3.610787  0  0  0.075878  0  3.870109  0  0  0.079664  0  3.8843  0  0  0.071493  0.072222  0  3.864754  0
C  C23  1  0.63738251  0.60462520  0.75265735  1  0  0.109143  0  3.612096  0  0  0.076314  0  3.871138  0  0  0.080114  0  3.885323  0  0  0.070742  0.072612  0  3.865821  0
C  C24  1  0.50531056  0.10464082  0.25283579  1  0  0.108838  0  3.611425  0  0  0.075707  0  3.870574  0  0  0.079505  0  3.884742  0  0  0.071396  0.072048  0  3.865245  0
C  C25  1  0.36265585  0.39537997  0.24731507  1  0  0.109144  0  3.611925  0  0  0.0761  0  3.870905  0  0  0.079954  0  3.885112  0  0  0.070658  0.072403  0  3.865609  0
C  C26  1  0.02120434  0.42955013  0.90496268  1  0  0.104845  0  3.60626  0  0  0.075141  0  3.863164  0  0  0.077915  0  3.880463  0  0  0.07339  0.074001  0  3.848614  0
C  C27  1  0.85569056  0.07042997  0.59502867  1  0  0.10363  0  3.603792  0  0  0.074891  0  3.859842  0  0  0.077626  0  3.877074  0  0  0.073383  0.073794  0  3.845349  0
C  C28  1  0.97874299  0.57052216  0.09502032  1  0  0.105204  0  3.606056  0  0  0.075302  0  3.863083  0  0  0.078073  0  3.880385  0  0  0.073529  0.074161  0  3.848544  0
C  C29  1  0.14436049  0.92948204  0.40496533  1  0  0.10348  0  3.604063  0  0  0.074746  0  3.86027  0  0  0.077498  0  3.877509  0  0  0.073233  0.073639  0  3.845794  0
C  C30  1  0.96310587  0.66583952  0.99705910  1  0  0.113958  0  3.596188  0  0  0.081287  0  3.856994  0  0  0.084883  0  3.872952  0  0  0.073413  0.079298  0  3.843598  0
C  C31  1  0.12597510  0.83415399  0.50290894  1  0  0.116049  0  3.596405  0  0  0.082876  0  3.856948  0  0  0.086538  0  3.872884  0  0  0.074155  0.080835  0  3.843624  0
C  C32  1  0.03683720  0.33423403  0.00292317  1  0  0.113783  0  3.596178  0  0  0.081195  0  3.856738  0  0  0.084807  0  3.872689  0  0  0.073401  0.079208  0  3.843336  0
C  C33  1  0.87406433  0.16576422  0.49707754  1  0  0.115885  0  3.596347  0  0  0.082825  0  3.856711  0  0  0.086473  0  3.872676  0  0  0.074134  0.08079  0  3.843375  0
S  S34  1  0.64059527  0.15817512  0.91672559  1  0  1.438993  0  5.769048  0  0  1.328709  0  6.324294  0  0  1.38494  0  6.290577  0  0  0.566927  1.289853  0  6.346079  0
S  S35  1  0.21559380  0.34167331  0.58324549  1  0  1.437041  0  5.77053  0  0  1.326361  0  6.32636  0  0  1.382639  0  6.292659  0  0  0.565658  1.287469  0  6.348032  0
S  S36  1  0.35935805  0.84191877  0.08326516  1  0  1.43952  0  5.768425  0  0  1.329193  0  6.32363  0  0  1.385425  0  6.289905  0  0  0.567038  1.290337  0  6.34542  0
S  S37  1  0.78442776  0.65823789  0.41677994  1  0  1.437207  0  5.769253  0  0  1.32646  0  6.325116  0  0  1.382734  0  6.291407  0  0  0.565697  1.287577  0  6.346795  0
N  N38  1  0.27829359  0.75001632  0.75002375  1  0  -0.194795  0  3.268959  0  0  -0.132328  0  3.537759  0  0  -0.14188  0  3.554897  0  0  -0.299995  -0.129794  0  3.529962  0
N  N39  1  0.72168962  0.24998063  0.24999070  1  0  -0.194888  0  3.268835  0  0  -0.132394  0  3.537841  0  0  -0.141934  0  3.554966  0  0  -0.299968  -0.129869  0  3.530065  0
N  N40  1  0.66040446  0.75000225  0.74989946  1  0  -0.211649  0  3.299648  0  0  -0.157516  0  3.593571  0  0  -0.167023  0  3.608406  0  0  -0.308098  -0.154256  0  3.58682  0
N  N41  1  0.33963402  0.25000331  0.25009884  1  0  -0.211714  0  3.299584  0  0  -0.157469  0  3.593428  0  0  -0.166966  0  3.608236  0  0  -0.307969  -0.154211  0  3.586695  0
N  N42  1  0.98384536  0.59368154  0.90380018  1  0  -0.215534  0  3.285659  0  0  -0.162118  0  3.572837  0  0  -0.174919  0  3.591125  0  0  -0.307801  -0.150457  0  3.557983  0
N  N43  1  0.98125344  0.90627395  0.59614747  1  0  -0.215428  0  3.286172  0  0  -0.163028  0  3.574181  0  0  -0.175732  0  3.592313  0  0  -0.308515  -0.151475  0  3.559457  0
N  N44  1  0.01612260  0.40638568  0.09618072  1  0  -0.215413  0  3.285155  0  0  -0.161903  0  3.572291  0  0  -0.174704  0  3.590579  0  0  -0.307554  -0.150239  0  3.557443  0
N  N45  1  0.01879982  0.09363672  0.40384207  1  0  -0.215362  0  3.285909  0  0  -0.162893  0  3.573806  0  0  -0.175628  0  3.591985  0  0  -0.308362  -0.151329  0  3.559075  0
O  O46  1  0.50700631  0.07387680  0.02239186  1  0  -0.305057  0  1.911117  0  0  -0.263838  0  2.174004  0  0  -0.271501  0  2.161543  0  0  -0.131365  -0.258825  0  2.182938  0
O  O47  1  0.10337843  0.42625450  0.47757503  1  0  -0.304145  0  1.909881  0  0  -0.262868  0  2.172684  0  0  -0.270627  0  2.160357  0  0  -0.131062  -0.257753  0  2.181534  0
O  O48  1  0.49300868  0.92618059  0.97760800  1  0  -0.305187  0  1.910921  0  0  -0.263685  0  2.173623  0  0  -0.271349  0  2.161167  0  0  -0.13129  -0.258648  0  2.182545  0
O  O49  1  0.89668740  0.57368938  0.52243886  1  0  -0.304746  0  1.909728  0  0  -0.263269  0  2.172449  0  0  -0.271045  0  2.160129  0  0  -0.13116  -0.258158  0  2.181301  0
O  O50  1  0.84725687  0.02187305  0.87503074  1  0  -0.683217  0  1.997262  0  0  -0.645899  0  2.269243  0  0  -0.665634  0  2.250632  0  0  -0.344024  -0.631704  0  2.281489  0
O  O51  1  0.24388883  0.47793472  0.62522520  1  0  -0.683112  0  1.997822  0  0  -0.645802  0  2.269871  0  0  -0.665481  0  2.251182  0  0  -0.34361  -0.631531  0  2.282127  0
O  O52  1  0.15269929  0.97823808  0.12492947  1  0  -0.6834  0  1.996926  0  0  -0.646136  0  2.269081  0  0  -0.665871  0  2.250445  0  0  -0.34419  -0.63193  0  2.281335  0
O  O53  1  0.75612970  0.52195795  0.37482871  1  0  -0.683021  0  1.997739  0  0  -0.645624  0  2.269725  0  0  -0.665307  0  2.251052  0  0  -0.343565  -0.631345  0  2.281974  0
O  O54  1  0.51632690  0.21847607  0.83419459  1  0  -0.662989  0  1.944732  0  0  -0.618954  0  2.186776  0  0  -0.639997  0  2.172639  0  0  -0.334148  -0.603542  0  2.195909  0
O  O55  1  0.06924867  0.28104770  0.66558585  1  0  -0.661856  0  1.945963  0  0  -0.617597  0  2.187826  0  0  -0.638609  0  2.173661  0  0  -0.33303  -0.601939  0  2.1968  0
O  O56  1  0.48356854  0.78161319  0.16582456  1  0  -0.662852  0  1.944438  0  0  -0.618808  0  2.186491  0  0  -0.639846  0  2.172343  0  0  -0.333931  -0.603401  0  2.195638  0
O  O57  1  0.93074191  0.71886443  0.33441635  1  0  -0.661899  0  1.945606  0  0  -0.617699  0  2.187511  0  0  -0.638754  0  2.173444  0  0  -0.333032  -0.602033  0  2.196489  0
O  O58  1  0.63836986  0.28682916  0.98056418  1  0  -0.613583  0  1.899913  0  0  -0.578872  0  2.138126  0  0  -0.603164  0  2.129515  0  0  -0.325362  -0.560979  0  2.142992  0
O  O59  1  0.40600785  0.21327048  0.51932433  1  0  -0.613139  0  1.900796  0  0  -0.578575  0  2.139308  0  0  -0.602871  0  2.130675  0  0  -0.325385  -0.560584  0  2.144126  0
O  O60  1  0.36159453  0.71326597  0.01942502  1  0  -0.613906  0  1.900061  0  0  -0.579216  0  2.138335  0  0  -0.603502  0  2.129713  0  0  -0.325492  -0.561328  0  2.143215  0
O  O61  1  0.59401530  0.78664327  0.48070258  1  0  -0.613221  0  1.900484  0  0  -0.578706  0  2.139049  0  0  -0.60301  0  2.130459  0  0  -0.325472  -0.560693  0  2.143811  0
