# generated using pymatgen
data_TbPH15C7NO7
_symmetry_space_group_name_H-M   'P 1'
_cell_length_a   5.35991615
_cell_length_b   12.70387258
_cell_length_c   19.88906125
_cell_angle_alpha   89.99971319
_cell_angle_beta   89.18093670
_cell_angle_gamma   90.00072239
_symmetry_Int_Tables_number   1
_chemical_formula_structural   TbPH15C7NO7
_chemical_formula_sum   'Tb4 P4 H60 C28 N4 O28'
_cell_volume   1354.14145258
_cell_formula_units_Z   4
loop_
 _symmetry_equiv_pos_site_id
 _symmetry_equiv_pos_as_xyz
  1  'x, y, z'
loop_
 _atom_site_type_symbol
 _atom_site_label
 _atom_site_symmetry_multiplicity
 _atom_site_fract_x
 _atom_site_fract_y
 _atom_site_fract_z
 _atom_site_occupancy
 _atom_site_pbe_bader_charge
 _atom_site_pbe_bader_spin_density
 _atom_site_pbe_cm5_charge
 _atom_site_pbe_ddec_charge
 _atom_site_pbe_ddec_spin_density
 _atom_site_pbe_ddec_sum_bond_order
 _atom_site_pbe_magmom
Tb  Tb0  1  0.87444960  0.64056020  0.52520433  1  2.170979  0  1.537808  2.132885  0  2.114303  0
Tb  Tb1  1  0.12555931  0.14056232  0.97479659  1  2.170993  0  1.537862  2.132934  0  2.114369  0
Tb  Tb2  1  0.12554993  0.35943849  0.47479670  1  2.170954  0  1.537848  2.132947  0  2.114223  0
Tb  Tb3  1  0.87444666  0.85943794  0.02520100  1  2.171023  0  1.537881  2.132874  0  2.114395  0
P  P4  1  0.61746517  0.52363023  0.40865644  1  3.316037  0  0.323167  1.343203  0  5.38234  0
P  P5  1  0.38254254  0.02363210  0.09134215  1  3.315614  0  0.323256  1.343372  0  5.382293  0
P  P6  1  0.38252865  0.47636767  0.59134501  1  3.316175  0  0.323219  1.343391  0  5.38219  0
P  P7  1  0.61746890  0.97637210  0.90865602  1  3.315792  0  0.323234  1.343384  0  5.382246  0
H  H8  1  0.91883675  0.57758820  0.32216862  1  0.028352  0  0.101148  0.087447  0  1.028674  0
H  H9  1  0.77996197  0.45580453  0.30660185  1  0.108742  0  0.122271  0.139135  0  1.00857  0
H  H10  1  0.74376759  0.72958647  0.26153901  1  0.025716  0  0.087983  0.055809  0  1.001506  0
H  H11  1  0.53835251  0.72307500  0.33269565  1  0.068743  0  0.10115  0.084819  0  1.004721  0
H  H12  1  0.16961141  0.72463677  0.25823857  1  0.035273  0  0.085378  0.07366  0  1.027311  0
H  H13  1  0.36845021  0.83203615  0.23933589  1  -0.005711  0  0.09346  0.088867  0  1.026735  0
H  H14  1  0.56123627  0.73637962  0.14534015  1  0.084626  0  0.114375  0.101217  0  0.993462  0
H  H15  1  0.41729060  0.56011026  0.11098173  1  0.045165  0  0.092349  0.091676  0  0.994934  0
H  H16  1  0.20453980  0.55587289  0.18067631  1  0.034961  0  0.090022  0.084355  0  1.000021  0
H  H17  1  0.59243817  0.46065330  0.20770683  1  0.008554  0  0.101782  0.077022  0  0.997056  0
H  H18  1  0.77526884  0.57338567  0.18663287  1  0.005656  0  0.089639  0.055957  0  0.991191  0
H  H19  1  0.28191565  0.67838909  0.43035143  1  0.647841  0  0.299019  0.415468  0  0.918186  0
H  H20  1  0.04657885  0.67559577  0.38296441  1  0.603835  0  0.310891  0.387558  0  0.930508  0
H  H21  1  0.69535754  0.84580358  0.47991774  1  0.616215  0  0.336212  0.421214  0  0.858169  0
H  H22  1  0.48644933  0.79785836  0.53049875  1  0.666685  0  0.29574  0.399002  0  0.941596  0
H  H23  1  0.08115708  0.07758532  0.17782404  1  0.028599  0  0.101145  0.087481  0  1.02859  0
H  H24  1  0.22003063  0.95580526  0.19339242  1  0.108775  0  0.122288  0.139186  0  1.008509  0
H  H25  1  0.25621453  0.22958647  0.23845746  1  0.025527  0  0.087986  0.055786  0  1.001519  0
H  H26  1  0.46162842  0.22307593  0.16729730  1  0.068813  0  0.101217  0.084896  0  1.004618  0
H  H27  1  0.83037454  0.22463919  0.24175696  1  0.035455  0  0.085382  0.073676  0  1.027346  0
H  H28  1  0.63154064  0.33203416  0.26065932  1  -0.005689  0  0.093472  0.088911  0  1.026726  0
H  H29  1  0.43873003  0.23638052  0.35465305  1  0.084752  0  0.114397  0.101232  0  0.993333  0
H  H30  1  0.58270014  0.06011486  0.38901397  1  0.045236  0  0.09235  0.091689  0  0.994992  0
H  H31  1  0.79544498  0.05587923  0.31932033  1  0.034698  0  0.09007  0.084416  0  1.00002  0
H  H32  1  0.40753174  0.96066061  0.29228912  1  0.00863  0  0.101775  0.077009  0  0.997103  0
H  H33  1  0.22472984  0.07338490  0.31336239  1  0.005664  0  0.089677  0.055948  0  0.991244  0
H  H34  1  0.71809420  0.17839066  0.06964813  1  0.647868  0  0.299053  0.415517  0  0.918133  0
H  H35  1  0.95342894  0.17559672  0.11703564  1  0.603819  0  0.310896  0.387511  0  0.930578  0
H  H36  1  0.30466388  0.34580715  0.02008389  1  0.616324  0  0.336202  0.421103  0  0.858314  0
H  H37  1  0.51357074  0.29785957  0.96950476  1  0.666604  0  0.295729  0.399007  0  0.94158  0
H  H38  1  0.08115732  0.42241128  0.67783182  1  0.028495  0  0.101142  0.087475  0  1.028655  0
H  H39  1  0.22002812  0.54418944  0.69339955  1  0.108792  0  0.12225  0.139109  0  1.008663  0
H  H40  1  0.25621817  0.27040592  0.73846485  1  0.025703  0  0.087952  0.055801  0  1.001373  0
H  H41  1  0.46163261  0.27692054  0.66730316  1  0.068817  0  0.10119  0.084847  0  1.004699  0
H  H42  1  0.83037521  0.27536585  0.74176177  1  0.03533  0  0.085394  0.073697  0  1.027377  0
H  H43  1  0.63156309  0.16796490  0.76066231  1  -0.005715  0  0.093466  0.088883  0  1.026793  0
H  H44  1  0.43876238  0.26362064  0.85465683  1  0.084694  0  0.114375  0.101247  0  0.993361  0
H  H45  1  0.58271998  0.43988843  0.88901995  1  0.04519  0  0.0923  0.091576  0  0.99495  0
H  H46  1  0.79547536  0.44412344  0.81932191  1  0.034818  0  0.09009  0.084386  0  1.000058  0
H  H47  1  0.40756358  0.53933830  0.79229272  1  0.008624  0  0.101747  0.07699  0  0.997169  0
H  H48  1  0.22475279  0.42661538  0.81336948  1  0.005695  0  0.089668  0.05598  0  0.991322  0
H  H49  1  0.71808351  0.32161274  0.56965110  1  0.647825  0  0.299011  0.415437  0  0.918225  0
H  H50  1  0.95341509  0.32440607  0.61703654  1  0.603819  0  0.310868  0.387508  0  0.930569  0
H  H51  1  0.30465243  0.15419510  0.52008646  1  0.616287  0  0.336195  0.421095  0  0.858317  0
H  H52  1  0.51355554  0.20214269  0.46950336  1  0.666664  0  0.295781  0.399037  0  0.941538  0
H  H53  1  0.91884331  0.92241494  0.82217348  1  0.028692  0  0.101185  0.087546  0  1.028732  0
H  H54  1  0.77997571  0.04418949  0.80660367  1  0.108796  0  0.122301  0.139206  0  1.008575  0
H  H55  1  0.74377133  0.77041064  0.76153834  1  0.025648  0  0.087989  0.055842  0  1.00155  0
H  H56  1  0.53837407  0.77692197  0.83269923  1  0.06891  0  0.10117  0.084818  0  1.004672  0
H  H57  1  0.16961666  0.77536973  0.75823992  1  0.035372  0  0.085366  0.07368  0  1.027321  0
H  H58  1  0.36844238  0.66795823  0.73934047  1  -0.005781  0  0.093462  0.088916  0  1.026659  0
H  H59  1  0.56126056  0.76361659  0.64534634  1  0.084714  0  0.114408  0.101223  0  0.993418  0
H  H60  1  0.41729243  0.93988305  0.61098494  1  0.045232  0  0.092352  0.09162  0  0.994926  0
H  H61  1  0.20454164  0.94411553  0.68068001  1  0.034675  0  0.090061  0.084343  0  1.000009  0
H  H62  1  0.59244582  0.03933808  0.70771009  1  0.008657  0  0.101791  0.077019  0  0.997126  0
H  H63  1  0.77525937  0.92662166  0.68663496  1  0.005689  0  0.089662  0.055967  0  0.991329  0
H  H64  1  0.28191601  0.82161196  0.93035506  1  0.647869  0  0.29904  0.41545  0  0.918204  0
H  H65  1  0.04658512  0.82440433  0.88296710  1  0.603878  0  0.310914  0.387507  0  0.930559  0
H  H66  1  0.69532906  0.65419548  0.97991352  1  0.616376  0  0.336183  0.421046  0  0.858402  0
H  H67  1  0.48642730  0.70214384  0.03049473  1  0.666623  0  0.295723  0.398997  0  0.941608  0
C  C68  1  0.73485709  0.53652224  0.32240762  1  -0.2088  0  -0.064315  -0.35813  0  3.944484  0
C  C69  1  0.56027450  0.69887399  0.27997032  1  0.283317  0  -0.074456  -0.063718  0  3.928868  0
C  C70  1  0.35408160  0.74603164  0.23742996  1  0.000986  0  -0.163169  -0.173348  0  3.939182  0
C  C71  1  0.37910338  0.70863158  0.16481024  1  -0.007884  0  -0.087368  -0.115718  0  3.869134  0
C  C72  1  0.38478839  0.58762756  0.16273195  1  -0.05184  0  -0.158975  -0.175216  0  3.921679  0
C  C73  1  0.59180942  0.54712142  0.20763191  1  0.328185  0  -0.066219  -0.042129  0  3.927125  0
C  C74  1  0.18497508  0.75237221  0.11787613  1  1.509354  0  0.208356  0.598514  0  4.140702  0
C  C75  1  0.26514278  0.03652120  0.17758628  1  -0.209164  0  -0.064368  -0.358433  0  3.944635  0
C  C76  1  0.43971655  0.19887674  0.22002437  1  0.283315  0  -0.074529  -0.063797  0  3.928674  0
C  C77  1  0.64590557  0.24603207  0.26256299  1  0.00098  0  -0.163145  -0.173394  0  3.939057  0
C  C78  1  0.62089889  0.20862973  0.33519314  1  -0.007982  0  -0.087346  -0.115779  0  3.869187  0
C  C79  1  0.61520287  0.08762723  0.33726466  1  -0.051803  0  -0.15902  -0.175324  0  3.921726  0
C  C80  1  0.40817500  0.04712107  0.29236527  1  0.328329  0  -0.066264  -0.042109  0  3.927187  0
C  C81  1  0.81497393  0.25238132  0.38212080  1  1.508668  0  0.208455  0.598564  0  4.140303  0
C  C82  1  0.26514082  0.46347487  0.67759238  1  -0.208999  0  -0.064301  -0.358324  0  3.944723  0
C  C83  1  0.43973397  0.30111840  0.72003234  1  0.282985  0  -0.074438  -0.06369  0  3.928541  0
C  C84  1  0.64592648  0.25396627  0.76256665  1  0.001042  0  -0.163226  -0.17351  0  3.939479  0
C  C85  1  0.62091788  0.29137025  0.83519361  1  -0.007831  0  -0.087348  -0.115735  0  3.869286  0
C  C86  1  0.61522093  0.41237113  0.83726720  1  -0.051731  0  -0.158965  -0.175136  0  3.921678  0
C  C87  1  0.40818142  0.45287805  0.79236648  1  0.328083  0  -0.06624  -0.042205  0  3.927367  0
C  C88  1  0.81501725  0.24763513  0.88212379  1  1.508954  0  0.20838  0.598618  0  4.140887  0
C  C89  1  0.73486915  0.96347513  0.82240988  1  -0.209167  0  -0.064469  -0.358579  0  3.945022  0
C  C90  1  0.56028432  0.80111880  0.77997113  1  0.282867  0  -0.074499  -0.063764  0  3.928508  0
C  C91  1  0.35409494  0.75396583  0.73743402  1  0.001046  0  -0.163147  -0.173487  0  3.93911  0
C  C92  1  0.37911428  0.79137289  0.66480556  1  -0.007898  0  -0.087374  -0.115715  0  3.869231  0
C  C93  1  0.38479517  0.91236909  0.66273483  1  -0.051773  0  -0.158987  -0.175117  0  3.92162  0
C  C94  1  0.59183061  0.95287998  0.70763383  1  0.328172  0  -0.066241  -0.042179  0  3.927354  0
C  C95  1  0.18501467  0.74762367  0.61787907  1  1.508963  0  0.20848  0.598738  0  4.140673  0
N  N96  1  0.55670210  0.58364613  0.27697766  1  -1.048792  0  -0.34144  -0.103415  0  3.49534  0
N  N97  1  0.44327900  0.08364259  0.22302186  1  -1.048757  0  -0.341384  -0.103149  0  3.495053  0
N  N98  1  0.44329098  0.41635806  0.72302681  1  -1.048702  0  -0.341387  -0.10314  0  3.495057  0
N  N99  1  0.55671592  0.91636161  0.77697507  1  -1.048523  0  -0.341352  -0.103084  0  3.494937  0
O  O100  1  0.55521524  0.63370267  0.43833678  1  -1.464827  0  -0.427156  -0.859704  0  2.245781  0
O  O101  1  0.84167598  0.48641370  0.45136840  1  -1.458269  0  -0.535746  -0.968728  0  2.434364  0
O  O102  1  0.40194353  0.44576832  0.40914389  1  -1.454683  0  -0.472906  -0.840673  0  2.241214  0
O  O103  1  0.99294796  0.80132877  0.13882146  1  -1.189322  0  -0.36006  -0.603793  0  2.180561  0
O  O104  1  0.22038632  0.74051398  0.05377644  1  -1.171712  0  -0.369594  -0.641452  0  2.262065  0
O  O105  1  0.10028053  0.70162561  0.42645232  1  -1.254942  0  -0.636605  -0.843578  0  2.019076  0
O  O106  1  0.67365002  0.81066525  0.52300491  1  -1.272634  0  -0.632744  -0.848207  0  2.022121  0
O  O107  1  0.44479631  0.13370198  0.06165844  1  -1.464491  0  -0.427226  -0.859787  0  2.245819  0
O  O108  1  0.15832459  0.98641364  0.04863493  1  -1.45803  0  -0.535786  -0.968715  0  2.434225  0
O  O109  1  0.59805960  0.94576884  0.09085208  1  -1.454484  0  -0.472905  -0.840711  0  2.241163  0
O  O110  1  0.00702923  0.30135159  0.36117266  1  -1.188865  0  -0.360168  -0.603836  0  2.179717  0
O  O111  1  0.77960493  0.24051844  0.44622213  1  -1.171522  0  -0.36967  -0.641481  0  2.262027  0
O  O112  1  0.89973544  0.20162896  0.07354775  1  -1.254988  0  -0.636655  -0.843594  0  2.019138  0
O  O113  1  0.32636867  0.31066849  0.97699804  1  -1.272697  0  -0.632763  -0.848127  0  2.022189  0
O  O114  1  0.44477473  0.36629759  0.56166513  1  -1.464843  0  -0.427163  -0.859738  0  2.245757  0
O  O115  1  0.15833274  0.51358499  0.54863326  1  -1.458092  0  -0.53579  -0.968758  0  2.434425  0
O  O116  1  0.59805575  0.55422958  0.59085814  1  -1.454648  0  -0.472942  -0.840763  0  2.241092  0
O  O117  1  0.00706609  0.19867700  0.86118128  1  -1.189152  0  -0.36005  -0.603886  0  2.180488  0
O  O118  1  0.77961458  0.25949180  0.94622662  1  -1.171565  0  -0.369656  -0.641493  0  2.261993  0
O  O119  1  0.89971726  0.29837780  0.57354818  1  -1.254899  0  -0.636587  -0.843519  0  2.019259  0
O  O120  1  0.32635225  0.18933108  0.47700019  1  -1.272717  0  -0.632763  -0.848141  0  2.022171  0
O  O121  1  0.55520706  0.86630380  0.93834213  1  -1.464805  0  -0.42724  -0.85973  0  2.245809  0
O  O122  1  0.84168809  0.01358662  0.95136577  1  -1.45827  0  -0.535711  -0.968645  0  2.434165  0
O  O123  1  0.40195818  0.05423535  0.90915072  1  -1.454433  0  -0.47294  -0.840807  0  2.241327  0
O  O124  1  0.99296606  0.69866756  0.63882277  1  -1.189058  0  -0.360181  -0.603942  0  2.180126  0
O  O125  1  0.22038691  0.75948339  0.55377980  1  -1.171591  0  -0.369676  -0.641537  0  2.262195  0
O  O126  1  0.10028246  0.79837288  0.92645454  1  -1.255025  0  -0.636671  -0.843555  0  2.019229  0
O  O127  1  0.67361844  0.68933571  0.02300030  1  -1.272723  0  -0.632714  -0.848017  0  2.022325  0
