# generated using pymatgen
data_CuH11C17N8
_symmetry_space_group_name_H-M   'P 1'
_cell_length_a   7.72907979
_cell_length_b   10.75213893
_cell_length_c   11.55050209
_cell_angle_alpha   61.81702034
_cell_angle_beta   78.42366957
_cell_angle_gamma   85.88157742
_symmetry_Int_Tables_number   1
_chemical_formula_structural   CuH11C17N8
_chemical_formula_sum   'Cu2 H22 C34 N16'
_cell_volume   828.58906199
_cell_formula_units_Z   2
loop_
 _symmetry_equiv_pos_site_id
 _symmetry_equiv_pos_as_xyz
  1  'x, y, z'
loop_
 _atom_site_type_symbol
 _atom_site_label
 _atom_site_symmetry_multiplicity
 _atom_site_fract_x
 _atom_site_fract_y
 _atom_site_fract_z
 _atom_site_occupancy
 _atom_site_hle17_ddec_charge
 _atom_site_hle17_ddec_spin_density
 _atom_site_hle17_ddec_sum_bond_order
 _atom_site_hle17_magmom
 _atom_site_hse06_10hf_ddec_charge
 _atom_site_hse06_10hf_ddec_spin_density
 _atom_site_hse06_10hf_ddec_sum_bond_order
 _atom_site_hse06_10hf_magmom
 _atom_site_hse06_ddec_charge
 _atom_site_hse06_ddec_spin_density
 _atom_site_hse06_ddec_sum_bond_order
 _atom_site_hse06_magmom
 _atom_site_pbe_cm5_charge
 _atom_site_pbe_ddec_charge
 _atom_site_pbe_ddec_spin_density
 _atom_site_pbe_ddec_sum_bond_order
 _atom_site_pbe_magmom
Cu  Cu0  1  0.60212951  0.97649742  0.72164038  1  0.895132  0.75982  2.04551  0.534  0.871119  0.833653  2.473711  0.647  0.947588  0.906909  2.407655  0.73  0.83673  0.8264  0.778509  2.517721  0.591
Cu  Cu1  1  0.39789744  0.02348713  0.27837705  1  0.895234  -0.759818  2.045345  -0.534  0.871248  -0.83367  2.473517  -0.647  0.947709  -0.906909  2.4075  -0.73  0.836766  0.826526  -0.778514  2.517489  -0.591
H  H2  1  0.87516859  0.07735617  0.45516682  1  0.085364  0.001674  0.94355  0.003  0.092266  0.001311  1.00662  0.002  0.0926  0.000883  1.006997  0.001  0.120925  0.09159  0.001618  1.006991  0.002
H  H3  1  0.12483284  0.92265512  0.54482356  1  0.085356  -0.001671  0.943595  -0.003  0.092245  -0.001311  1.006674  -0.002  0.092582  -0.000884  1.007048  -0.001  0.120948  0.091567  -0.001619  1.007051  -0.002
H  H4  1  0.03629156  0.30731774  0.29273544  1  0.10527  0.000674  0.975782  0.001  0.110846  0.000532  1.043772  0.001  0.11233  0.000369  1.045396  0.0  0.109735  0.109494  0.00066  1.043229  0.001
H  H5  1  0.96367967  0.69269902  0.70725243  1  0.10521  -0.000677  0.975737  -0.001  0.110807  -0.000532  1.043719  -0.001  0.112294  -0.000369  1.045349  0.0  0.109694  0.109455  -0.00066  1.043176  -0.001
H  H6  1  0.96969196  0.51751254  0.33516750  1  0.10267  0.000221  0.965479  0.0  0.110982  -2.5e-05  1.029152  0.0  0.112962  -4.1e-05  1.028217  0.0  0.110427  0.109244  1.1e-05  1.030469  0.0
H  H7  1  0.03026860  0.48250329  0.66481619  1  0.102864  -0.00022  0.965344  0.0  0.111195  2.6e-05  1.029001  0.0  0.113142  4.1e-05  1.028094  0.0  0.110503  0.109453  -1.1e-05  1.030327  0.0
H  H8  1  0.76841572  0.48113780  0.54790222  1  0.114673  0.001026  0.957908  0.002  0.121879  0.000651  1.021313  0.001  0.12389  0.000419  1.022592  0.001  0.11351  0.120658  0.000915  1.020041  0.001
H  H9  1  0.23155247  0.51886838  0.45209410  1  0.114714  -0.001019  0.957947  -0.002  0.121933  -0.00065  1.021333  -0.001  0.123934  -0.000418  1.022642  -0.001  0.113514  0.120709  -0.000915  1.020067  -0.001
H  H10  1  0.84804651  0.29804600  0.84875260  1  0.107388  -0.000111  0.958712  0.0  0.113829  2.4e-05  1.026819  0.0  0.117151  8e-06  1.024194  0.0  0.101697  0.111489  2.7e-05  1.028694  0.0
H  H11  1  0.15194058  0.70193017  0.15128522  1  0.107345  0.000107  0.958761  0.0  0.113758  -2.4e-05  1.026909  0.0  0.11708  -8e-06  1.024278  0.0  0.101636  0.111416  -2.7e-05  1.028789  0.0
H  H12  1  0.82414728  0.49368733  0.90890637  1  0.089485  0.000123  0.94752  0.0  0.099494  3.4e-05  1.006874  0.0  0.102086  1.5e-05  1.006178  0.0  0.100807  0.097669  4.9e-05  1.007501  0.0
H  H13  1  0.17582032  0.50629963  0.09111738  1  0.089494  -0.000125  0.947439  0.0  0.099503  -3.4e-05  1.006814  0.0  0.102099  -1.5e-05  1.006109  0.0  0.100809  0.097681  -4.9e-05  1.007443  0.0
H  H14  1  0.56580387  0.65006208  0.86927162  1  0.095278  -0.000168  0.971166  0.0  0.102867  2.3e-05  1.036779  0.0  0.104399  1e-05  1.037365  0.0  0.09948  0.101579  2.4e-05  1.036684  0.0
H  H15  1  0.43418395  0.34994200  0.13071336  1  0.095359  0.000168  0.971311  0.0  0.102933  -2.3e-05  1.036896  0.0  0.104474  -1e-05  1.037463  0.0  0.09955  0.101645  -2.4e-05  1.036801  0.0
H  H16  1  0.31952369  0.59969538  0.78656535  1  0.081849  -8e-06  0.971753  0.0  0.089881  -8e-06  1.037288  0.0  0.091574  -1.9e-05  1.03829  0.0  0.094672  0.088735  1.6e-05  1.036696  0.0
H  H17  1  0.68049846  0.40031518  0.21338524  1  0.081767  9e-06  0.971706  0.0  0.089848  8e-06  1.037219  0.0  0.091553  1.9e-05  1.038205  0.0  0.094666  0.088697  -1.6e-05  1.03663  0.0
H  H18  1  0.33637398  0.39658421  0.73691488  1  0.097224  3.5e-05  0.971826  0.0  0.107136  7.4e-05  1.034549  0.0  0.109386  4.7e-05  1.034027  0.0  0.098546  0.105543  9.7e-05  1.035013  0.0
H  H19  1  0.66365881  0.60342621  0.26304208  1  0.09729  -3.5e-05  0.971733  0.0  0.1071  -7.4e-05  1.034588  0.0  0.109353  -4.8e-05  1.034061  0.0  0.098477  0.105508  -9.7e-05  1.035052  0.0
H  H20  1  0.32603816  0.99529896  0.95678905  1  0.09229  0.001081  0.915068  0.002  0.108719  0.000741  0.96896  0.001  0.106985  0.000554  0.971185  0.001  0.115695  0.109786  0.000914  0.967651  0.001
H  H21  1  0.67403613  0.00467674  0.04324209  1  0.092333  -0.001089  0.914669  -0.002  0.108731  -0.000741  0.968633  -0.001  0.107  -0.000554  0.970832  -0.001  0.11575  0.109794  -0.000915  0.967337  -0.001
H  H22  1  0.40421088  0.13985273  0.96890380  1  0.084675  0.006246  0.958879  0.008  0.09385  0.003559  1.025355  0.005  0.091362  0.002307  1.028238  0.003  0.108869  0.095563  0.00456  1.023389  0.006
H  H23  1  0.59585679  0.86012413  0.03112083  1  0.084545  -0.00625  0.95891  -0.008  0.093864  -0.00356  1.025224  -0.005  0.091376  -0.002308  1.028102  -0.003  0.108803  0.095569  -0.004562  1.023257  -0.006
C  C24  1  0.85917131  0.16901468  0.47248192  1  0.147469  -0.006239  3.663407  -0.007  0.119088  -0.001316  3.921328  -0.003  0.127104  -0.002185  3.942396  -0.004  0.059784  0.11383  -0.00063  3.908247  -0.002
C  C25  1  0.14082350  0.83099777  0.52750281  1  0.147428  0.006231  3.663421  0.007  0.119038  0.001311  3.921336  0.003  0.127059  0.00219  3.942399  0.004  0.059732  0.113784  0.000631  3.908251  0.002
C  C26  1  0.94482948  0.29836947  0.38135387  1  -0.097473  0.006333  3.692271  0.007  -0.113848  0.003196  3.94405  0.004  -0.121408  0.002451  3.966769  0.003  -0.07048  -0.109532  0.003843  3.929977  0.005
C  C27  1  0.05514681  0.70164311  0.61862992  1  -0.097382  -0.006322  3.691998  -0.007  -0.113757  -0.003193  3.943773  -0.004  -0.121328  -0.002455  3.966494  -0.003  -0.070411  -0.109433  -0.003844  3.929685  -0.005
C  C28  1  0.91063715  0.41349951  0.40598018  1  0.002439  -0.006197  3.681503  -0.005  -0.013149  -0.002575  3.925549  -0.002  -0.009188  -0.002559  3.943516  -0.002  -0.057301  -0.01612  -0.002686  3.914837  -0.002
C  C29  1  0.08932715  0.58651104  0.59400354  1  0.002227  0.006185  3.681423  0.005  -0.013425  0.002577  3.925557  0.002  -0.009428  0.002559  3.943538  0.002  -0.057441  -0.016399  0.002686  3.914845  0.002
C  C30  1  0.79835338  0.39438282  0.52405725  1  -0.102838  0.001802  3.658553  0.002  -0.123332  0.001512  3.901976  0.002  -0.130028  0.001102  3.92349  0.001  -0.06123  -0.119321  0.001829  3.887965  0.002
C  C31  1  0.20161995  0.60562129  0.47593319  1  -0.102942  -0.001803  3.658687  -0.002  -0.123492  -0.001518  3.902151  -0.002  -0.130165  -0.001096  3.923646  -0.001  -0.061266  -0.119485  -0.001829  3.888141  -0.002
C  C32  1  0.72415288  0.26061065  0.61345805  1  0.163772  0.000998  3.759767  0.002  0.161886  0.002061  4.008865  0.002  0.168122  0.000998  4.028833  0.001  0.123492  0.157897  0.002698  3.996  0.003
C  C33  1  0.27584396  0.73938591  0.38653672  1  0.16388  -0.001008  3.759752  -0.002  0.162102  -0.002059  4.008698  -0.002  0.168276  -0.001004  4.028751  -0.001  0.123591  0.158119  -0.002699  3.995831  -0.003
C  C34  1  0.61458521  0.22652985  0.74492177  1  0.221534  -0.021463  3.670697  -0.021  0.206351  -0.00474  3.92145  -0.006  0.221249  -0.006486  3.935132  -0.008  0.17551  0.195174  -0.00355  3.913497  -0.004
C  C35  1  0.38543796  0.77346225  0.25508167  1  0.221588  0.02145  3.670798  0.021  0.206269  0.00474  3.921526  0.006  0.221188  0.00648  3.935222  0.008  0.17553  0.195078  0.003549  3.913579  0.004
C  C36  1  0.59389157  0.33701196  0.78858078  1  -0.003875  0.009806  3.798728  0.011  0.018296  0.003671  4.026657  0.005  0.014731  0.002242  4.049698  0.003  -0.015893  0.021326  0.00518  4.01036  0.006
C  C37  1  0.40611973  0.66298129  0.21141948  1  -0.004192  -0.009803  3.799288  -0.011  0.018203  -0.003669  4.026879  -0.005  0.014638  -0.002244  4.049919  -0.003  -0.016001  0.021255  -0.005179  4.010544  -0.006
C  C38  1  0.73178119  0.36371002  0.83700143  1  -0.105481  0.004153  3.724238  0.004  -0.129181  0.001033  3.975536  0.001  -0.131273  0.000575  3.996901  0.0  -0.088896  -0.127462  0.001404  3.960483  0.001
C  C39  1  0.26820368  0.63627895  0.16301992  1  -0.105283  -0.004134  3.724239  -0.003  -0.129043  -0.001031  3.975542  -0.001  -0.131133  -0.000572  3.996903  0.0  -0.088828  -0.127328  -0.001404  3.960498  -0.001
C  C40  1  0.71928112  0.47532112  0.86765257  1  -0.068782  -0.002217  3.761209  -0.002  -0.080025  -0.00018  4.015136  0.0  -0.08351  -0.000259  4.038656  0.0  -0.090018  -0.077698  -6.6e-05  3.99912  0.0
C  C41  1  0.28070398  0.52467421  0.13236428  1  -0.068783  0.002217  3.761381  0.002  -0.080038  0.000176  4.01529  0.0  -0.083522  0.000258  4.03881  0.0  -0.090036  -0.07772  6.6e-05  3.999285  0.0
C  C42  1  0.57270308  0.56152877  0.84764251  1  -0.050461  0.006962  3.743967  0.006  -0.068771  0.00114  3.993361  0.001  -0.070684  0.000724  4.01762  0.001  -0.085612  -0.06723  0.001574  3.976991  0.001
C  C43  1  0.42728576  0.43846681  0.15235033  1  -0.050604  -0.006948  3.744441  -0.006  -0.06889  -0.001135  3.993831  -0.001  -0.070802  -0.000721  4.018092  -0.001  -0.085649  -0.067351  -0.001571  3.977464  -0.001
C  C44  1  0.43486457  0.53335374  0.80093811  1  -0.056561  -0.000441  3.748905  -0.001  -0.068206  -0.000132  3.997729  0.0  -0.071325  -0.000271  4.020685  0.0  -0.089785  -0.066125  3.2e-05  3.981944  0.0
C  C45  1  0.56513668  0.46665887  0.19902921  1  -0.05649  0.000431  3.748695  0.001  -0.068179  0.000133  3.997482  0.0  -0.071304  0.000268  4.020448  0.0  -0.0898  -0.066104  -3.2e-05  3.981698  0.0
C  C46  1  0.44380385  0.42044621  0.77236452  1  -0.097737  0.000866  3.721901  0.001  -0.118317  0.000519  3.964028  0.0  -0.119164  0.000296  3.984036  0.0  -0.087629  -0.117317  0.00094  3.949662  0.001
C  C47  1  0.55620649  0.57955990  0.22761474  1  -0.097628  -0.000858  3.721907  -0.001  -0.118201  -0.000519  3.963976  0.0  -0.119052  -0.000292  3.983992  0.0  -0.087485  -0.117207  -0.000938  3.949604  -0.001
C  C48  1  0.44489720  0.05101857  0.94875221  1  0.001901  0.001751  3.626731  -0.001  -0.047654  0.00286  3.889049  0.001  -0.04294  0.001256  3.905353  0.0  -0.059178  -0.050648  0.004059  3.878453  0.002
C  C49  1  0.55516796  0.94895925  0.05128188  1  0.0024  -0.001738  3.626192  0.001  -0.047267  -0.002861  3.888548  -0.001  -0.042499  -0.001256  3.904808  0.0  -0.058891  -0.050258  -0.004058  3.877945  -0.002
C  C50  1  0.23171047  0.82586924  0.84445975  1  0.519051  -0.008072  3.976451  -0.005  0.494032  -3.8e-05  4.254861  0.004  0.524028  -0.001329  4.263158  0.002  0.323964  0.473988  0.000951  4.248413  0.005
C  C51  1  0.76829704  0.17412381  0.15556016  1  0.518947  0.008052  3.976666  0.005  0.493906  3.4e-05  4.255084  -0.004  0.5239  0.001329  4.263391  -0.002  0.323896  0.473859  -0.000952  4.248633  -0.005
C  C52  1  0.93093025  0.81281378  0.86063818  1  0.499899  -0.005091  3.983928  -0.005  0.48122  -0.001769  4.255983  -0.002  0.509099  -0.001621  4.263968  -0.002  0.307502  0.462604  -0.001859  4.250267  -0.002
C  C53  1  0.06907825  0.18717081  0.13938612  1  0.499798  0.005087  3.983913  0.005  0.481095  0.001766  4.256004  0.002  0.508974  0.001631  4.263977  0.002  0.307565  0.462483  0.001859  4.250281  0.002
C  C54  1  0.66014385  0.83747590  0.53220602  1  0.516215  -0.008054  4.009826  -0.004  0.489651  0.000538  4.296316  0.005  0.520311  -0.000921  4.304307  0.003  0.311402  0.469079  0.00175  4.290277  0.007
C  C55  1  0.33984866  0.16254057  0.46779461  1  0.516293  0.008066  4.01023  0.004  0.489693  -0.000548  4.296736  -0.005  0.520345  0.000928  4.304736  -0.003  0.311437  0.469122  -0.00175  4.29069  -0.007
C  C56  1  0.78604975  0.77652451  0.36649219  1  0.441803  -0.002652  4.026114  -0.003  0.41536  -0.000366  4.321864  -0.001  0.437157  -0.000238  4.334807  0.0  0.26483  0.400416  -0.000466  4.312202  -0.001
C  C57  1  0.21388775  0.22350720  0.63349391  1  0.442164  0.002663  4.026347  0.003  0.415694  0.000356  4.322063  0.001  0.43749  0.000244  4.334977  0.0  0.265126  0.400756  0.000465  4.312428  0.001
N  N58  1  0.75103803  0.15113073  0.58537950  1  -0.310099  0.087961  3.318694  0.108  -0.275808  0.061136  3.61634  0.081  -0.306394  0.04818  3.639984  0.068  -0.327421  -0.257599  0.069023  3.602072  0.089
N  N59  1  0.24896552  0.84886788  0.41461605  1  -0.310092  -0.087948  3.318884  -0.108  -0.275783  -0.061127  3.616426  -0.081  -0.306349  -0.048181  3.640096  -0.068  -0.327431  -0.257579  -0.069018  3.602154  -0.089
N  N60  1  0.54726781  0.09982280  0.81415699  1  -0.278512  0.133726  3.176128  0.163  -0.2487  0.079943  3.483184  0.106  -0.283648  0.063362  3.50679  0.088  -0.318216  -0.227527  0.090134  3.469455  0.115
N  N61  1  0.45278279  0.90015845  0.18586031  1  -0.278684  -0.1337  3.176557  -0.163  -0.248821  -0.079931  3.483588  -0.106  -0.283767  -0.063351  3.507152  -0.088  -0.318317  -0.227633  -0.090128  3.469835  -0.115
N  N62  1  0.37561062  0.87371791  0.81603532  1  -0.585654  0.053982  2.982592  0.064  -0.565697  0.038563  3.297239  0.049  -0.593476  0.033184  3.2953  0.043  -0.407433  -0.548212  0.041625  3.298814  0.051
N  N63  1  0.62439703  0.12628052  0.18397360  1  -0.585624  -0.05397  2.982834  -0.064  -0.565681  -0.03857  3.297523  -0.049  -0.593464  -0.033187  3.295596  -0.043  -0.407437  -0.5482  -0.041631  3.299109  -0.051
N  N64  1  0.08252077  0.75837050  0.88539823  1  -0.460028  0.004131  3.299653  0.006  -0.409057  -4.7e-05  3.548336  0.001  -0.43323  -0.000582  3.549982  0.0  -0.303292  -0.392008  0.00072  3.546149  0.002
N  N65  1  0.91748688  0.24162349  0.11463078  1  -0.45994  -0.004138  3.299552  -0.006  -0.408934  5.5e-05  3.548221  -0.001  -0.433109  0.000577  3.549876  0.0  -0.303219  -0.391886  -0.000722  3.546029  -0.002
N  N66  1  0.78629360  0.84790209  0.84346818  1  -0.591762  0.004904  2.848915  0.007  -0.574998  0.000967  3.134262  0.003  -0.596613  0.000376  3.133771  0.002  -0.391032  -0.560966  0.001455  3.135211  0.003
N  N67  1  0.21371330  0.15207731  0.15655165  1  -0.591705  -0.004897  2.849013  -0.007  -0.574954  -0.000963  3.134361  -0.003  -0.596561  -0.00038  3.133866  -0.002  -0.391146  -0.56093  -0.001451  3.135302  -0.003
N  N68  1  0.64285830  0.89511298  0.59881258  1  -0.618305  0.059608  3.010629  0.069  -0.596432  0.045  3.326576  0.055  -0.628671  0.038991  3.32783  0.049  -0.422345  -0.575851  0.048643  3.326197  0.058
N  N69  1  0.35716643  0.10487994  0.40120934  1  -0.618661  -0.059634  3.010706  -0.069  -0.596781  -0.044984  3.326629  -0.055  -0.629054  -0.039003  3.327963  -0.05  -0.42251  -0.576192  -0.048646  3.326233  -0.058
N  N70  1  0.66408429  0.76899597  0.46597509  1  -0.472155  0.004936  3.323213  0.006  -0.429906  0.000594  3.595676  0.001  -0.453462  -8.5e-05  3.599897  0.0  -0.318193  -0.412673  0.001425  3.590821  0.002
N  N71  1  0.33587301  0.23103675  0.53400262  1  -0.472162  -0.004951  3.322615  -0.006  -0.429843  -0.000606  3.594979  -0.001  -0.453403  9.2e-05  3.599226  0.0  -0.318298  -0.412598  -0.001425  3.590085  -0.002
N  N72  1  0.88583798  0.77211742  0.27649762  1  -0.565803  0.003973  2.556681  0.004  -0.545796  -0.000151  2.779079  0.0  -0.559243  -0.000502  2.787405  -0.001  -0.383681  -0.535899  0.00062  2.77346  0.001
N  N73  1  0.11410709  0.22791246  0.72345964  1  -0.565917  -0.003984  2.557837  -0.004  -0.54595  0.000167  2.780281  0.0  -0.559382  0.000494  2.788581  0.001  -0.383772  -0.536047  -0.000619  2.774659  -0.001
