# generated using pymatgen
data_CuH5C5IN3
_symmetry_space_group_name_H-M   'P 1'
_cell_length_a   19.80725375
_cell_length_b   19.80714930
_cell_length_c   19.80728404
_cell_angle_alpha   109.47111868
_cell_angle_beta   109.47184748
_cell_angle_gamma   109.47112571
_symmetry_Int_Tables_number   1
_chemical_formula_structural   CuH5C5IN3
_chemical_formula_sum   'Cu24 H120 C120 I24 N72'
_cell_volume   5982.00779607
_cell_formula_units_Z   24
loop_
 _symmetry_equiv_pos_site_id
 _symmetry_equiv_pos_as_xyz
  1  'x, y, z'
loop_
 _atom_site_type_symbol
 _atom_site_label
 _atom_site_symmetry_multiplicity
 _atom_site_fract_x
 _atom_site_fract_y
 _atom_site_fract_z
 _atom_site_occupancy
 _atom_site_pbe_bader_charge
 _atom_site_pbe_bader_spin_density
 _atom_site_pbe_cm5_charge
 _atom_site_pbe_ddec_charge
 _atom_site_pbe_ddec_spin_density
 _atom_site_pbe_ddec_sum_bond_order
 _atom_site_pbe_magmom
Cu  Cu0  1  0.04324937  0.67112634  0.79533956  1  0.384549  0  0.234622  0.148012  0  2.733442  0
Cu  Cu1  1  0.12421972  0.82889749  0.87214317  1  0.390284  0  0.234652  0.147989  0  2.733588  0
Cu  Cu2  1  0.45675329  0.25208991  0.62787384  1  0.384989  0  0.234629  0.147999  0  2.733464  0
Cu  Cu3  1  0.37578385  0.24792184  0.70467393  1  0.392005  0  0.234663  0.148019  0  2.73356  0
Cu  Cu4  1  0.79533161  0.04323877  0.67111148  1  0.391517  0  0.234666  0.148032  0  2.733453  0
Cu  Cu5  1  0.87212683  0.12421216  0.82888219  1  0.383256  0  0.234661  0.148022  0  2.733264  0
Cu  Cu6  1  0.62787220  0.45675479  0.25208937  1  0.385031  0  0.234655  0.14803  0  2.733327  0
Cu  Cu7  1  0.70467281  0.37578514  0.24791121  1  0.391955  0  0.234689  0.148042  0  2.733377  0
Cu  Cu8  1  0.67111551  0.79532860  0.04324178  1  0.391549  0  0.234689  0.148063  0  2.7334  0
Cu  Cu9  1  0.82888576  0.87212509  0.12421533  1  0.383205  0  0.2347  0.148096  0  2.733252  0
Cu  Cu10  1  0.25209000  0.62787223  0.45676256  1  0.391339  0  0.234666  0.147997  0  2.73339  0
Cu  Cu11  1  0.24791052  0.70466601  0.37578430  1  0.385672  0  0.234686  0.148085  0  2.733384  0
Cu  Cu12  1  0.29533532  0.17112385  0.54325350  1  0.384504  0  0.234646  0.148042  0  2.733398  0
Cu  Cu13  1  0.37213615  0.32889431  0.62422272  1  0.390352  0  0.234673  0.147998  0  2.733671  0
Cu  Cu14  1  0.12786939  0.75209209  0.95675870  1  0.392041  0  0.234656  0.147954  0  2.7336  0
Cu  Cu15  1  0.20466994  0.74792374  0.87578958  1  0.38502  0  0.234667  0.148119  0  2.733359  0
Cu  Cu16  1  0.17111464  0.54323812  0.29533380  1  0.391569  0  0.234699  0.148064  0  2.733407  0
Cu  Cu17  1  0.32888560  0.62421027  0.37212651  1  0.383211  0  0.234665  0.148022  0  2.733379  0
Cu  Cu18  1  0.75208942  0.95675644  0.12787188  1  0.385008  0  0.234679  0.148095  0  2.733306  0
Cu  Cu19  1  0.74790958  0.87578454  0.20467084  1  0.39201  0  0.234714  0.148095  0  2.733362  0
Cu  Cu20  1  0.54324439  0.29532928  0.17111685  1  0.391559  0  0.234698  0.148076  0  2.733346  0
Cu  Cu21  1  0.62421775  0.37212589  0.32888619  1  0.383208  0  0.234682  0.1481  0  2.733294  0
Cu  Cu22  1  0.95675816  0.12787146  0.75208545  1  0.388532  0  0.234652  0.14802  0  2.733346  0
Cu  Cu23  1  0.87578221  0.20466576  0.74790821  1  0.388448  0  0.234705  0.148117  0  2.733306  0
H  H24  1  0.90942150  0.69698461  0.71162063  1  0.094455  0  0.116002  0.068074  0  1.005122  0
H  H25  1  0.78017687  0.39896797  0.55051909  1  0.066908  0  0.115099  0.151645  0  0.991235  0
H  H26  1  0.57887644  0.46576400  0.44512828  1  0.102695  0  0.093185  0.119252  0  1.040122  0
H  H27  1  0.61857989  0.52992139  0.55376964  1  0.041399  0  0.100457  0.115993  0  0.988252  0
H  H28  1  0.67466343  0.56131373  0.50492926  1  0.113683  0  0.103061  0.124859  0  1.008797  0
H  H29  1  0.01463648  0.80301788  0.71243541  1  0.105157  0  0.116026  0.068116  0  1.005192  0
H  H30  1  0.15155093  0.10103217  0.88120528  1  0.105688  0  0.11513  0.151675  0  0.991277  0
H  H31  1  0.97936284  0.03423406  0.61310934  1  0.093222  0  0.093173  0.119235  0  1.040148  0
H  H32  1  0.02384844  0.97007869  0.58865818  1  0.046167  0  0.100446  0.115984  0  0.988253  0
H  H33  1  0.94361164  0.93868419  0.61334558  1  0.101906  0  0.103071  0.124856  0  1.00888  0
H  H34  1  0.59058141  0.30219877  0.78756157  1  0.110064  0  0.115992  0.068039  0  1.005262  0
H  H35  1  0.71982192  0.27034565  0.61879097  1  0.101074  0  0.115104  0.151637  0  0.991231  0
H  H36  1  0.92112344  0.36625043  0.88688706  1  0.093275  0  0.093153  0.119204  0  1.040161  0
H  H37  1  0.88141985  0.43518803  0.91134146  1  0.033906  0  0.100448  0.115969  0  0.988256  0
H  H38  1  0.82533518  0.33026168  0.88664717  1  0.111405  0  0.10312  0.124905  0  1.008782  0
H  H39  1  0.48536181  0.19779739  0.78838206  1  0.108211  0  0.115994  0.068044  0  1.005221  0
H  H40  1  0.34844893  0.22965598  0.94947965  1  0.100501  0  0.11511  0.151621  0  0.991241  0
H  H41  1  0.52063658  0.13374811  0.05487252  1  0.095194  0  0.093158  0.119211  0  1.040158  0
H  H42  1  0.47615135  0.06481012  0.94623095  1  0.069985  0  0.100438  0.115976  0  0.988254  0
H  H43  1  0.55638715  0.16973550  0.99507431  1  0.122234  0  0.10309  0.124882  0  1.008741  0
H  H44  1  0.71162338  0.90942220  0.69698343  1  0.094483  0  0.116005  0.068082  0  1.00518  0
H  H45  1  0.55052221  0.78017490  0.39896677  1  0.066913  0  0.115111  0.151682  0  0.991193  0
H  H46  1  0.44512862  0.57887733  0.46576281  1  0.102717  0  0.093167  0.119262  0  1.040122  0
H  H47  1  0.55377022  0.61858004  0.52992120  1  0.041308  0  0.100431  0.115972  0  0.988215  0
H  H48  1  0.50492840  0.67466519  0.56131544  1  0.113698  0  0.103067  0.124891  0  1.008818  0
H  H49  1  0.71243453  0.01463542  0.80301654  1  0.105121  0  0.116008  0.068081  0  1.005258  0
H  H50  1  0.88120725  0.15155247  0.10103124  1  0.105663  0  0.115117  0.151675  0  0.991253  0
H  H51  1  0.61311238  0.97936481  0.03423295  1  0.093178  0  0.093158  0.119212  0  1.04012  0
H  H52  1  0.58865819  0.02384952  0.97007622  1  0.046205  0  0.100465  0.116038  0  0.988198  0
H  H53  1  0.61334809  0.94361374  0.93868299  1  0.103173  0  0.103083  0.124861  0  1.008887  0
H  H54  1  0.78756382  0.59058190  0.30220152  1  0.110029  0  0.115977  0.068007  0  1.005224  0
H  H55  1  0.61879372  0.71982628  0.27034877  1  0.101054  0  0.115122  0.151663  0  0.991176  0
H  H56  1  0.88688846  0.92112363  0.36625096  1  0.093266  0  0.09316  0.119226  0  1.040142  0
H  H57  1  0.91134230  0.88141891  0.43518788  1  0.034291  0  0.100463  0.115998  0  0.988263  0
H  H58  1  0.88664848  0.82533463  0.33026182  1  0.11136  0  0.103086  0.124869  0  1.00882  0
H  H59  1  0.78837848  0.48536220  0.19779833  1  0.108157  0  0.116019  0.06811  0  1.005122  0
H  H60  1  0.94947715  0.34844644  0.22965538  1  0.100539  0  0.11512  0.151685  0  0.991273  0
H  H61  1  0.05486806  0.52063488  0.13374824  1  0.095312  0  0.093158  0.119237  0  1.040097  0
H  H62  1  0.94622712  0.47614963  0.06480992  1  0.070265  0  0.100456  0.116007  0  0.988272  0
H  H63  1  0.99506926  0.55638639  0.16973478  1  0.122186  0  0.103081  0.124872  0  1.008833  0
H  H64  1  0.69698413  0.71162063  0.90942250  1  0.094432  0  0.115994  0.068088  0  1.005229  0
H  H65  1  0.39896888  0.55052224  0.78017633  1  0.066945  0  0.11511  0.151609  0  0.99126  0
H  H66  1  0.46576541  0.44513074  0.57887838  1  0.102719  0  0.093158  0.119242  0  1.0401  0
H  H67  1  0.52992433  0.55377334  0.61858309  1  0.04137  0  0.100475  0.116053  0  0.988242  0
H  H68  1  0.56131759  0.50493195  0.67466970  1  0.113638  0  0.103079  0.124866  0  1.008856  0
H  H69  1  0.80301644  0.71243563  0.01463885  1  0.105121  0  0.116028  0.068117  0  1.005104  0
H  H70  1  0.10103083  0.88120892  0.15155253  1  0.105685  0  0.115101  0.151648  0  0.991237  0
H  H71  1  0.03423458  0.61311274  0.97936486  1  0.093131  0  0.0932  0.119264  0  1.040126  0
H  H72  1  0.97007716  0.58865689  0.02384689  1  0.046169  0  0.10045  0.115996  0  0.988254  0
H  H73  1  0.93868385  0.61334910  0.94361395  1  0.101885  0  0.103064  0.124842  0  1.008889  0
H  H74  1  0.30220378  0.78756564  0.59058222  1  0.110028  0  0.116036  0.068135  0  1.005073  0
H  H75  1  0.27034302  0.61879167  0.71982046  1  0.101106  0  0.115117  0.151628  0  0.991255  0
H  H76  1  0.36625195  0.88688744  0.92112100  1  0.093222  0  0.093159  0.119205  0  1.040155  0
H  H77  1  0.43518982  0.91134127  0.88141992  1  0.033874  0  0.100454  0.115988  0  0.988282  0
H  H78  1  0.33026396  0.88665060  0.82533478  1  0.111362  0  0.103091  0.124883  0  1.008802  0
H  H79  1  0.19779998  0.78837987  0.48536084  1  0.108253  0  0.115975  0.067975  0  1.005291  0
H  H80  1  0.22965428  0.94947757  0.34844721  1  0.1006  0  0.115116  0.151632  0  0.991229  0
H  H81  1  0.13374929  0.05487000  0.52063627  1  0.095351  0  0.093184  0.119268  0  1.040087  0
H  H82  1  0.06481001  0.94622663  0.47614904  1  0.070291  0  0.100475  0.116033  0  0.988216  0
H  H83  1  0.16973900  0.99507008  0.55638665  1  0.122263  0  0.103084  0.124869  0  1.008817  0
H  H84  1  0.21162091  0.19698396  0.40942151  1  0.09445  0  0.115991  0.068086  0  1.005228  0
H  H85  1  0.05051950  0.89896907  0.28017718  1  0.066936  0  0.1151  0.151631  0  0.991228  0
H  H86  1  0.94512882  0.96576463  0.07887673  1  0.102714  0  0.09319  0.119239  0  1.04014  0
H  H87  1  0.05377004  0.02992111  0.11858113  1  0.0414  0  0.100471  0.116  0  0.988254  0
H  H88  1  0.00492894  0.06131588  0.17466311  1  0.113685  0  0.103048  0.124805  0  1.008868  0
H  H89  1  0.21243510  0.30301754  0.51463535  1  0.105165  0  0.115974  0.068012  0  1.005252  0
H  H90  1  0.38120577  0.60103176  0.65155207  1  0.105721  0  0.115109  0.151615  0  0.99129  0
H  H91  1  0.11310934  0.53423491  0.47936206  1  0.093155  0  0.09315  0.119198  0  1.040153  0
H  H92  1  0.08865750  0.47007853  0.52384731  1  0.046188  0  0.100469  0.116029  0  0.988211  0
H  H93  1  0.11334779  0.43868690  0.44361375  1  0.101784  0  0.103062  0.124821  0  1.008842  0
H  H94  1  0.28756278  0.80219876  0.09058298  1  0.110098  0  0.115992  0.068042  0  1.005283  0
H  H95  1  0.11879446  0.77034745  0.21982466  1  0.101035  0  0.115114  0.151613  0  0.99126  0
H  H96  1  0.38688941  0.86625274  0.42112464  1  0.093275  0  0.093162  0.119235  0  1.040144  0
H  H97  1  0.41134305  0.93519125  0.38142173  1  0.034231  0  0.100437  0.115997  0  0.988281  0
H  H98  1  0.38665126  0.83026351  0.32533634  1  0.111161  0  0.10306  0.124869  0  1.0088  0
H  H99  1  0.28838098  0.69779931  0.98536126  1  0.108179  0  0.115993  0.068044  0  1.005238  0
H  H100  1  0.44947616  0.72965347  0.84844541  1  0.10058  0  0.115096  0.15163  0  0.99125  0
H  H101  1  0.55487290  0.63375007  0.02063599  1  0.095275  0  0.093143  0.119214  0  1.040178  0
H  H102  1  0.44623194  0.56481204  0.97615239  1  0.06964  0  0.100446  0.11598  0  0.988279  0
H  H103  1  0.49507441  0.66973787  0.05638602  1  0.122227  0  0.103111  0.12492  0  1.008793  0
H  H104  1  0.19698350  0.40942178  0.21162270  1  0.094466  0  0.116001  0.068066  0  1.005203  0
H  H105  1  0.89896668  0.28017526  0.05052207  1  0.066894  0  0.115093  0.151619  0  0.991218  0
H  H106  1  0.96576353  0.07887810  0.94512867  1  0.102741  0  0.093178  0.119261  0  1.040105  0
H  H107  1  0.02992370  0.11858065  0.05377051  1  0.041308  0  0.100454  0.116011  0  0.988224  0
H  H108  1  0.06131458  0.17466540  0.00492893  1  0.113745  0  0.103037  0.124804  0  1.00887  0
H  H109  1  0.30301547  0.51463617  0.21243474  1  0.105097  0  0.115993  0.068103  0  1.005181  0
H  H110  1  0.60103158  0.65155388  0.38120926  1  0.105649  0  0.115107  0.151686  0  0.991264  0
H  H111  1  0.53423372  0.47936515  0.11311352  1  0.093164  0  0.093164  0.119223  0  1.04012  0
H  H112  1  0.47007588  0.52384972  0.08865892  1  0.046203  0  0.100474  0.116046  0  0.988211  0
H  H113  1  0.43868277  0.44361433  0.11334954  1  0.10316  0  0.103086  0.124861  0  1.008881  0
H  H114  1  0.80219989  0.09057949  0.28756070  1  0.110072  0  0.115994  0.068044  0  1.005264  0
H  H115  1  0.77034786  0.21982514  0.11879339  1  0.101058  0  0.115134  0.151664  0  0.991166  0
H  H116  1  0.86625029  0.42112255  0.38688714  1  0.093292  0  0.093167  0.119258  0  1.040131  0
H  H117  1  0.93518801  0.38141847  0.41134161  1  0.034292  0  0.100448  0.115974  0  0.98827  0
H  H118  1  0.83026136  0.32533383  0.38664772  1  0.111358  0  0.103084  0.124881  0  1.008796  0
H  H119  1  0.69779793  0.98536322  0.28837952  1  0.108128  0  0.116012  0.068096  0  1.005142  0
H  H120  1  0.72965767  0.84844990  0.44947745  1  0.100591  0  0.115095  0.151598  0  0.991258  0
H  H121  1  0.63374857  0.02063501  0.55486838  1  0.095309  0  0.093153  0.119222  0  1.040119  0
H  H122  1  0.56480957  0.97614971  0.44622681  1  0.07028  0  0.100465  0.116019  0  0.988277  0
H  H123  1  0.66973541  0.05638575  0.49506985  1  0.122213  0  0.103049  0.124829  0  1.008853  0
H  H124  1  0.40942235  0.21162037  0.19698340  1  0.094467  0  0.115979  0.068044  0  1.005267  0
H  H125  1  0.28017650  0.05052199  0.89896916  1  0.066945  0  0.115119  0.151641  0  0.991246  0
H  H126  1  0.07887853  0.94513131  0.96576555  1  0.102768  0  0.093171  0.119256  0  1.04011  0
H  H127  1  0.11858242  0.05377253  0.02992307  1  0.041365  0  0.100462  0.116028  0  0.988215  0
H  H128  1  0.17466934  0.00493208  0.06131691  1  0.113664  0  0.103101  0.1249  0  1.008811  0
H  H129  1  0.51463765  0.21243321  0.30301656  1  0.10512  0  0.116036  0.068138  0  1.005098  0
H  H130  1  0.65154850  0.38120692  0.60102969  1  0.105738  0  0.115088  0.151623  0  0.99123  0
H  H131  1  0.47936375  0.11311132  0.53423394  1  0.093213  0  0.093183  0.119232  0  1.040139  0
H  H132  1  0.52384842  0.08865765  0.47007845  1  0.046155  0  0.100443  0.115984  0  0.988258  0
H  H133  1  0.44361278  0.11334709  0.43868474  1  0.101907  0  0.103088  0.124895  0  1.008854  0
H  H134  1  0.09058160  0.28756548  0.80220357  1  0.110018  0  0.116037  0.068132  0  1.005098  0
H  H135  1  0.21982106  0.11879171  0.77034347  1  0.101111  0  0.115097  0.151596  0  0.991257  0
H  H136  1  0.42112333  0.38688815  0.86625285  1  0.093292  0  0.093181  0.119238  0  1.040165  0
H  H137  1  0.38142036  0.41134195  0.93518974  1  0.03387  0  0.100451  0.115999  0  0.988281  0
H  H138  1  0.32533528  0.38665075  0.83026497  1  0.111202  0  0.103084  0.124878  0  1.008837  0
H  H139  1  0.98536335  0.28838047  0.69780032  1  0.108182  0  0.116022  0.06809  0  1.005192  0
H  H140  1  0.84844736  0.44947777  0.72965371  1  0.100616  0  0.115119  0.151626  0  0.991225  0
H  H141  1  0.02063474  0.55486864  0.63374750  1  0.095307  0  0.093152  0.119221  0  1.040128  0
H  H142  1  0.97614921  0.44622596  0.56480798  1  0.070253  0  0.100451  0.116018  0  0.988254  0
H  H143  1  0.05638730  0.49506913  0.66973654  1  0.122272  0  0.103079  0.124854  0  1.008853  0
C  C144  1  0.87947446  0.62980297  0.67573161  1  1.126238  0  0.171579  0.267098  0  3.986138  0
C  C145  1  0.76130911  0.50597106  0.57912107  1  1.044149  0  0.234881  0.366641  0  4.07524  0
C  C146  1  0.80749562  0.46529102  0.58860905  1  0.074167  0  -0.100417  -0.359636  0  3.941571  0
C  C147  1  0.89088107  0.51364825  0.64577604  1  0.872235  0  0.221317  0.351893  0  4.02221  0
C  C148  1  0.63495326  0.50822254  0.50596604  1  0.213044  0  -0.136986  -0.256151  0  3.895462  0
C  C149  1  0.04593037  0.87019531  0.74967476  1  1.097653  0  0.171566  0.266922  0  3.986321  0
C  C150  1  0.07314944  0.99402784  0.75533754  1  1.028239  0  0.234915  0.366582  0  4.075251  0
C  C151  1  0.12331840  0.03470986  0.84220629  1  -0.012105  0  -0.100431  -0.359687  0  3.941488  0
C  C152  1  0.13212753  0.98635115  0.87723373  1  0.875502  0  0.221291  0.351891  0  4.022171  0
C  C153  1  0.99774225  0.99177567  0.62672917  1  0.217503  0  -0.136963  -0.256158  0  3.895515  0
C  C154  1  0.62052315  0.29625529  0.75032604  1  1.112917  0  0.17158  0.267071  0  3.986328  0
C  C155  1  0.73869149  0.31781405  0.74466214  1  0.987705  0  0.234944  0.366706  0  4.075118  0
C  C156  1  0.69250430  0.28111512  0.65779432  1  0.057286  0  -0.100382  -0.35963  0  3.941313  0
C  C157  1  0.60911761  0.25489609  0.62276686  1  0.84222  0  0.221313  0.351957  0  4.022197  0
C  C158  1  0.86504542  0.37101036  0.87326777  1  0.227738  0  -0.136992  -0.256125  0  3.895523  0
C  C159  1  0.45406862  0.20374357  0.82426580  1  1.118933  0  0.171632  0.267123  0  3.986305  0
C  C160  1  0.42684886  0.18218771  0.92087770  1  0.977036  0  0.234969  0.366712  0  4.075113  0
C  C161  1  0.37668205  0.21888934  0.91139064  1  0.057072  0  -0.100402  -0.359596  0  3.941301  0
C  C162  1  0.36787120  0.24510492  0.85422203  1  0.845833  0  0.221289  0.351902  0  4.022208  0
C  C163  1  0.50225687  0.12898815  0.99403435  1  0.183069  0  -0.136994  -0.256163  0  3.895506  0
C  C164  1  0.67573460  0.87947617  0.62980255  1  1.126269  0  0.171519  0.267008  0  3.986246  0
C  C165  1  0.57912324  0.76130874  0.50597088  1  1.04444  0  0.234962  0.366781  0  4.075069  0
C  C166  1  0.58861148  0.80749531  0.46528988  1  0.074  0  -0.100409  -0.359677  0  3.94137  0
C  C167  1  0.64577889  0.89088099  0.51364819  1  0.872355  0  0.221241  0.351819  0  4.022279  0
C  C168  1  0.50596702  0.63495555  0.50822411  1  0.212995  0  -0.136973  -0.256215  0  3.895565  0
C  C169  1  0.74967310  0.04592874  0.87019332  1  1.097513  0  0.171543  0.266922  0  3.986205  0
C  C170  1  0.75533775  0.07315076  0.99402682  1  1.028724  0  0.235012  0.366729  0  4.075256  0
C  C171  1  0.84220638  0.12331984  0.03471137  1  -0.012089  0  -0.100412  -0.35966  0  3.941323  0
C  C172  1  0.87723385  0.13212703  0.98634935  1  0.875563  0  0.221298  0.351872  0  4.022215  0
C  C173  1  0.62673050  0.99774369  0.99177429  1  0.216259  0  -0.137023  -0.256259  0  3.895625  0
C  C174  1  0.75032516  0.62052270  0.29625727  1  1.113543  0  0.17157  0.267048  0  3.986245  0
C  C175  1  0.74466202  0.73869165  0.31781456  1  0.987327  0  0.234949  0.366748  0  4.075083  0
C  C176  1  0.65779409  0.69250360  0.28111594  1  0.057308  0  -0.100376  -0.359639  0  3.941308  0
C  C177  1  0.62276692  0.60911874  0.25489755  1  0.842585  0  0.221288  0.351852  0  4.022238  0
C  C178  1  0.87327014  0.86504586  0.37101079  1  0.227476  0  -0.137005  -0.256166  0  3.895492  0
C  C179  1  0.82426433  0.45407107  0.20374366  1  1.118696  0  0.171562  0.266993  0  3.986063  0
C  C180  1  0.92087619  0.42684956  0.18218655  1  0.977301  0  0.234985  0.366683  0  4.075348  0
C  C181  1  0.91139069  0.37667933  0.21888618  1  0.056887  0  -0.1004  -0.359636  0  3.941273  0
C  C182  1  0.85422155  0.36787288  0.24510581  1  0.845993  0  0.221268  0.351881  0  4.022232  0
C  C183  1  0.99403068  0.50225650  0.12898764  1  0.182747  0  -0.137008  -0.256237  0  3.895582  0
C  C184  1  0.62980540  0.67573539  0.87947938  1  1.126234  0  0.17158  0.266973  0  3.986426  0
C  C185  1  0.50597279  0.57912522  0.76131017  1  1.044723  0  0.234983  0.366685  0  4.075319  0
C  C186  1  0.46529181  0.58861242  0.80749806  1  0.074165  0  -0.100449  -0.359624  0  3.94143  0
C  C187  1  0.51364956  0.64577891  0.89088167  1  0.872477  0  0.221264  0.351914  0  4.022151  0
C  C188  1  0.50822635  0.50596965  0.63495781  1  0.213085  0  -0.136994  -0.256289  0  3.895629  0
C  C189  1  0.87019433  0.74967233  0.04593038  1  1.097621  0  0.171587  0.267037  0  3.98614  0
C  C190  1  0.99402765  0.75533743  0.07315180  1  1.028375  0  0.235046  0.366742  0  4.075224  0
C  C191  1  0.03470975  0.84220732  0.12331980  1  -0.012101  0  -0.100404  -0.359631  0  3.941349  0
C  C192  1  0.98635010  0.87723273  0.13212826  1  0.875494  0  0.221242  0.351828  0  4.02235  0
C  C193  1  0.99177462  0.62672986  0.99774293  1  0.217553  0  -0.136982  -0.256189  0  3.895576  0
C  C194  1  0.29625802  0.75032816  0.62052270  1  1.113298  0  0.171522  0.26695  0  3.986166  0
C  C195  1  0.31781331  0.74466299  0.73868958  1  0.990028  0  0.234994  0.366745  0  4.075153  0
C  C196  1  0.28111349  0.65779432  0.69250347  1  0.057294  0  -0.100404  -0.359611  0  3.941321  0
C  C197  1  0.25489476  0.62276730  0.60911664  1  0.842587  0  0.221303  0.351919  0  4.022176  0
C  C198  1  0.37101192  0.87326909  0.86504399  1  0.227847  0  -0.137012  -0.25616  0  3.895567  0
C  C199  1  0.20374366  0.82426482  0.45406836  1  1.118849  0  0.171627  0.267107  0  3.986415  0
C  C200  1  0.18218615  0.92087664  0.42684769  1  0.976904  0  0.234996  0.366664  0  4.075191  0
C  C201  1  0.21888699  0.91138766  0.37667945  1  0.057039  0  -0.100403  -0.35962  0  3.941274  0
C  C202  1  0.24510597  0.85422321  0.36787231  1  0.845758  0  0.221273  0.351932  0  4.02212  0
C  C203  1  0.12898934  0.99403096  0.50225712  1  0.182633  0  -0.137035  -0.25629  0  3.895517  0
C  C204  1  0.17573272  0.12980464  0.37947730  1  1.126241  0  0.171546  0.266987  0  3.986347  0
C  C205  1  0.07912106  0.00597300  0.26131005  1  1.044273  0  0.23488  0.36663  0  4.075211  0
C  C206  1  0.08860878  0.96529243  0.30749644  1  0.074084  0  -0.100431  -0.359631  0  3.941574  0
C  C207  1  0.14577656  0.01364842  0.39088094  1  0.872339  0  0.221305  0.351849  0  4.022188  0
C  C208  1  0.00596677  0.00822421  0.13495442  1  0.212968  0  -0.136974  -0.256096  0  3.895542  0
C  C209  1  0.24967490  0.37019679  0.54593006  1  1.097764  0  0.171581  0.267017  0  3.986405  0
C  C210  1  0.25533926  0.49402865  0.57315098  1  1.028291  0  0.234917  0.366566  0  4.075127  0
C  C211  1  0.34220758  0.53470783  0.62332022  1  -0.012089  0  -0.100409  -0.359618  0  3.941458  0
C  C212  1  0.37723484  0.48635105  0.63212988  1  0.875442  0  0.221328  0.351991  0  4.02206  0
C  C213  1  0.12672934  0.49177719  0.49774253  1  0.217689  0  -0.136925  -0.256091  0  3.895366  0
C  C214  1  0.25032536  0.79625424  0.12052073  1  1.113288  0  0.17159  0.267002  0  3.986244  0
C  C215  1  0.24466231  0.81781254  0.23869011  1  0.990326  0  0.234923  0.366624  0  4.075319  0
C  C216  1  0.15779358  0.78111255  0.19250438  1  0.057327  0  -0.100378  -0.359536  0  3.941236  0
C  C217  1  0.12276585  0.75489408  0.10911499  1  0.842586  0  0.221302  0.351901  0  4.022135  0
C  C218  1  0.37327079  0.87101264  0.36504652  1  0.227695  0  -0.136962  -0.256198  0  3.89549  0
C  C219  1  0.32426635  0.70374345  0.95406934  1  1.118788  0  0.171578  0.267044  0  3.986256  0
C  C220  1  0.42087704  0.68218589  0.92684802  1  0.977108  0  0.234943  0.366708  0  4.075157  0
C  C221  1  0.41138861  0.71888419  0.87667885  1  0.056751  0  -0.100376  -0.359588  0  3.941367  0
C  C222  1  0.35422081  0.74510245  0.86786996  1  0.845982  0  0.221271  0.351805  0  4.022313  0
C  C223  1  0.49403530  0.62898992  0.00225768  1  0.183372  0  -0.137014  -0.256187  0  3.895617  0
C  C224  1  0.12980387  0.37947839  0.17573569  1  1.126264  0  0.171586  0.267055  0  3.98629  0
C  C225  1  0.00597101  0.26130933  0.07912377  1  1.044779  0  0.234984  0.366726  0  4.075085  0
C  C226  1  0.96528976  0.30749677  0.08861216  1  0.074059  0  -0.100408  -0.359609  0  3.941341  0
C  C227  1  0.01364823  0.39088150  0.14577884  1  0.872297  0  0.221253  0.351814  0  4.022282  0
C  C228  1  0.00822445  0.13495635  0.00596811  1  0.212931  0  -0.136951  -0.256167  0  3.895519  0
C  C229  1  0.37019262  0.54592813  0.24967164  1  1.097513  0  0.171594  0.267025  0  3.986106  0
C  C230  1  0.49402688  0.57315035  0.25533686  1  1.028665  0  0.234986  0.366676  0  4.075404  0
C  C231  1  0.53471182  0.62332056  0.34220709  1  -0.012041  0  -0.100385  -0.359645  0  3.941242  0
C  C232  1  0.48634878  0.63212645  0.37723361  1  0.875522  0  0.221294  0.351916  0  4.022259  0
C  C233  1  0.49177442  0.49774383  0.12673104  1  0.216323  0  -0.137017  -0.256256  0  3.895622  0
C  C234  1  0.79625732  0.12052228  0.25032482  1  1.113737  0  0.171598  0.267067  0  3.98624  0
C  C235  1  0.81781381  0.23869098  0.24466157  1  0.987062  0  0.234959  0.366713  0  4.075115  0
C  C236  1  0.78111498  0.19250252  0.15779338  1  0.057335  0  -0.100414  -0.359636  0  3.941276  0
C  C237  1  0.75489664  0.10911765  0.12276629  1  0.842568  0  0.221298  0.35188  0  4.022167  0
C  C238  1  0.87101008  0.36504402  0.37326833  1  0.227374  0  -0.136996  -0.256192  0  3.895522  0
C  C239  1  0.70374293  0.95407118  0.32426621  1  1.118932  0  0.171505  0.266906  0  3.986242  0
C  C240  1  0.68218817  0.92685059  0.42087783  1  0.976969  0  0.234955  0.366631  0  4.075234  0
C  C241  1  0.71888895  0.87668295  0.41138918  1  0.057036  0  -0.100433  -0.359607  0  3.941415  0
C  C242  1  0.74510443  0.86787263  0.35422156  1  0.84581  0  0.221341  0.351995  0  4.022097  0
C  C243  1  0.62898644  0.00225515  0.49403028  1  0.182727  0  -0.136968  -0.256166  0  3.895563  0
C  C244  1  0.37947771  0.17573349  0.12980376  1  1.126251  0  0.17156  0.266984  0  3.986422  0
C  C245  1  0.26130913  0.07912399  0.00597143  1  1.044712  0  0.235014  0.366802  0  4.075055  0
C  C246  1  0.30749633  0.08861138  0.96529127  1  0.074151  0  -0.100418  -0.359646  0  3.941362  0
C  C247  1  0.39088155  0.14577844  0.01364961  1  0.872499  0  0.221293  0.351884  0  4.022217  0
C  C248  1  0.13495679  0.00596947  0.00822529  1  0.213015  0  -0.137019  -0.2563  0  3.895601  0
C  C249  1  0.54592981  0.24967191  0.37019591  1  1.097755  0  0.171517  0.266935  0  3.986209  0
C  C250  1  0.57314936  0.25533737  0.49402799  1  1.028122  0  0.234936  0.366676  0  4.07514  0
C  C251  1  0.62331569  0.34220581  0.53470718  1  -0.012076  0  -0.10039  -0.359689  0  3.941445  0
C  C252  1  0.63212803  0.37723140  0.48635035  1  0.875427  0  0.221312  0.352012  0  4.0222  0
C  C253  1  0.49774227  0.12672899  0.49177538  1  0.217512  0  -0.136977  -0.256189  0  3.895487  0
C  C254  1  0.12052316  0.25032882  0.79625789  1  1.113295  0  0.171498  0.266939  0  3.986196  0
C  C255  1  0.23869078  0.24466371  0.81781361  1  0.990335  0  0.234959  0.366681  0  4.075238  0
C  C256  1  0.19250388  0.15779575  0.78111376  1  0.057281  0  -0.100402  -0.359584  0  3.941474  0
C  C257  1  0.10911774  0.12276793  0.75489441  1  0.842264  0  0.221284  0.351867  0  4.022276  0
C  C258  1  0.36504558  0.37326978  0.87101281  1  0.227916  0  -0.137013  -0.256205  0  3.895622  0
C  C259  1  0.95406974  0.32426510  0.70374498  1  1.118931  0  0.171616  0.267046  0  3.986286  0
C  C260  1  0.92684854  0.42087596  0.68218586  1  0.97719  0  0.234934  0.366632  0  4.075174  0
C  C261  1  0.87668034  0.41138768  0.71888635  1  0.05692  0  -0.10044  -0.359616  0  3.941436  0
C  C262  1  0.86787059  0.35422151  0.74510315  1  0.845893  0  0.221281  0.351866  0  4.02225  0
C  C263  1  0.00225617  0.49403000  0.62898680  1  0.182661  0  -0.136971  -0.256201  0  3.895546  0
I  I264  1  0.10677778  0.60066222  0.86753738  1  -0.408135  0  -0.195515  -0.303143  0  1.870474  0
I  I265  1  0.26687171  0.89933669  0.00611001  1  -0.409182  0  -0.19554  -0.30311  0  1.871114  0
I  I266  1  0.39322185  0.26075967  0.49388606  1  -0.407362  0  -0.195495  -0.303117  0  1.870711  0
I  I267  1  0.23312948  0.23923833  0.63246471  1  -0.407273  0  -0.195499  -0.303081  0  1.870956  0
I  I268  1  0.86753541  0.10677397  0.60066101  1  -0.408162  0  -0.195501  -0.303136  0  1.870823  0
I  I269  1  0.00611686  0.26687336  0.89933924  1  -0.409344  0  -0.195555  -0.30318  0  1.870568  0
I  I270  1  0.49388299  0.39322235  0.26075802  1  -0.407395  0  -0.195494  -0.303127  0  1.870574  0
I  I271  1  0.63246487  0.23312565  0.23923946  1  -0.407245  0  -0.195514  -0.303146  0  1.870772  0
I  I272  1  0.60066108  0.86753447  0.10677413  1  -0.40814  0  -0.195524  -0.303178  0  1.870717  0
I  I273  1  0.89933796  0.00611226  0.26687304  1  -0.409343  0  -0.195582  -0.303202  0  1.870739  0
I  I274  1  0.26075937  0.49388422  0.39322591  1  -0.407465  0  -0.195494  -0.303124  0  1.870775  0
I  I275  1  0.23923762  0.63246213  0.23312684  1  -0.407179  0  -0.195515  -0.303152  0  1.87071  0
I  I276  1  0.36753737  0.10065931  0.60677669  1  -0.408216  0  -0.195518  -0.303171  0  1.870483  0
I  I277  1  0.50610927  0.39933352  0.76686899  1  -0.409216  0  -0.195534  -0.303106  0  1.871202  0
I  I278  1  0.99389017  0.76075974  0.89322436  1  -0.407354  0  -0.195468  -0.303074  0  1.871119  0
I  I279  1  0.13246312  0.73923677  0.73312809  1  -0.407228  0  -0.195509  -0.303142  0  1.870709  0
I  I280  1  0.10066292  0.60677465  0.36753569  1  -0.408111  0  -0.195531  -0.303168  0  1.870785  0
I  I281  1  0.39933851  0.76687196  0.50611324  1  -0.409306  0  -0.195564  -0.30317  0  1.870723  0
I  I282  1  0.76075902  0.89322338  0.99388334  1  -0.407427  0  -0.195494  -0.303161  0  1.870621  0
I  I283  1  0.73924134  0.73312802  0.13246632  1  -0.407256  0  -0.19552  -0.303167  0  1.870793  0
I  I284  1  0.60677479  0.36753411  0.10066108  1  -0.408116  0  -0.195512  -0.303169  0  1.870702  0
I  I285  1  0.76687508  0.50611100  0.39933829  1  -0.40934  0  -0.195574  -0.303189  0  1.870778  0
I  I286  1  0.89322555  0.99388348  0.76075847  1  -0.407443  0  -0.195483  -0.303122  0  1.870696  0
I  I287  1  0.73312657  0.13246131  0.73923536  1  -0.40716  0  -0.195535  -0.303166  0  1.870775  0
N  N288  1  0.79917955  0.58938584  0.62253770  1  -1.256646  0  -0.328213  -0.370347  0  3.25588  0
N  N289  1  0.92858370  0.59703065  0.69262199  1  -1.21423  0  -0.367187  -0.31106  0  3.543992  0
N  N290  1  0.67887664  0.46419733  0.52352194  1  -1.258218  0  -0.261921  -0.113206  0  3.658112  0
N  N291  1  0.03315553  0.91061481  0.70979869  1  -1.214955  0  -0.328209  -0.370247  0  3.255961  0
N  N292  1  0.09559439  0.90297083  0.83155780  1  -1.200582  0  -0.367225  -0.31093  0  3.544104  0
N  N293  1  0.05932398  0.03580154  0.71467972  1  -1.223005  0  -0.261879  -0.113074  0  3.657909  0
N  N294  1  0.70081981  0.32335835  0.79020244  1  -1.212264  0  -0.328218  -0.370341  0  3.255958  0
N  N295  1  0.57141388  0.26403637  0.66844338  1  -1.215917  0  -0.367237  -0.311059  0  3.544152  0
N  N296  1  0.82112270  0.34464449  0.78531959  1  -1.231688  0  -0.261928  -0.113219  0  3.658069  0
N  N297  1  0.46684304  0.17664195  0.87745877  1  -1.204225  0  -0.32826  -0.37038  0  3.256001  0
N  N298  1  0.40440526  0.23596240  0.80737585  1  -1.21807  0  -0.367264  -0.311055  0  3.54415  0
N  N299  1  0.44067546  0.15535607  0.97647746  1  -1.233706  0  -0.261945  -0.113171  0  3.658075  0
N  N300  1  0.62254132  0.79918104  0.58938475  1  -1.256588  0  -0.328243  -0.370358  0  3.255954  0
N  N301  1  0.69262563  0.92858448  0.59702987  1  -1.21428  0  -0.367191  -0.311029  0  3.544253  0
N  N302  1  0.52352298  0.67887684  0.46419742  1  -1.258459  0  -0.261874  -0.113183  0  3.658155  0
N  N303  1  0.70979737  0.03315556  0.91061570  1  -1.215347  0  -0.328169  -0.37021  0  3.255936  0
N  N304  1  0.83155692  0.09559334  0.90297118  1  -1.200484  0  -0.367224  -0.310986  0  3.544158  0
N  N305  1  0.71467965  0.05932387  0.03579990  1  -1.223029  0  -0.261979  -0.113206  0  3.658115  0
N  N306  1  0.79020175  0.70081757  0.32335921  1  -1.212417  0  -0.328202  -0.370316  0  3.255952  0
N  N307  1  0.66844251  0.57141268  0.26403841  1  -1.216269  0  -0.367234  -0.310983  0  3.544076  0
N  N308  1  0.78532001  0.82112330  0.34464435  1  -1.231722  0  -0.261903  -0.113209  0  3.657982  0
N  N309  1  0.87746011  0.46684542  0.17664194  1  -1.204151  0  -0.328196  -0.37027  0  3.255929  0
N  N310  1  0.80737729  0.40440593  0.23596201  1  -1.218014  0  -0.367258  -0.311025  0  3.544262  0
N  N311  1  0.97647545  0.44067570  0.15535703  1  -1.233757  0  -0.262013  -0.113182  0  3.658146  0
N  N312  1  0.58938700  0.62254408  0.79918499  1  -1.256606  0  -0.328265  -0.370317  0  3.25609  0
N  N313  1  0.59703157  0.69262452  0.92858808  1  -1.214332  0  -0.36725  -0.311021  0  3.544091  0
N  N314  1  0.46420167  0.52352694  0.67888213  1  -1.258737  0  -0.261967  -0.113124  0  3.658131  0
N  N315  1  0.91061342  0.70979643  0.03315672  1  -1.215026  0  -0.328264  -0.370343  0  3.255885  0
N  N316  1  0.90297091  0.83155613  0.09559464  1  -1.200465  0  -0.367237  -0.311057  0  3.544199  0
N  N317  1  0.03579982  0.71468112  0.05932545  1  -1.223007  0  -0.261963  -0.113199  0  3.658264  0
N  N318  1  0.32335990  0.79020428  0.70081882  1  -1.212368  0  -0.32823  -0.370333  0  3.256001  0
N  N319  1  0.26403813  0.66844455  0.57141480  1  -1.21616  0  -0.367251  -0.311043  0  3.544229  0
N  N320  1  0.34464421  0.78531932  0.82112095  1  -1.234319  0  -0.261938  -0.113191  0  3.658069  0
N  N321  1  0.17664238  0.87745658  0.46684286  1  -1.203948  0  -0.328263  -0.370324  0  3.256015  0
N  N322  1  0.23596300  0.80737462  0.40440502  1  -1.218204  0  -0.367266  -0.311047  0  3.544019  0
N  N323  1  0.15535600  0.97647462  0.44067382  1  -1.233624  0  -0.261977  -0.113077  0  3.658137  0
N  N324  1  0.12253928  0.08938720  0.29918259  1  -1.256663  0  -0.328174  -0.370278  0  3.25596  0
N  N325  1  0.19262413  0.09703114  0.42858628  1  -1.214294  0  -0.367224  -0.311049  0  3.544038  0
N  N326  1  0.02352136  0.96419851  0.17887731  1  -1.258242  0  -0.261862  -0.113097  0  3.657977  0
N  N327  1  0.20979847  0.41061401  0.53315450  1  -1.214894  0  -0.328175  -0.370254  0  3.255969  0
N  N328  1  0.33155718  0.40296897  0.59559406  1  -1.200676  0  -0.367244  -0.311009  0  3.544112  0
N  N329  1  0.21468045  0.53580167  0.55932338  1  -1.223082  0  -0.261875  -0.113065  0  3.657915  0
N  N330  1  0.29020113  0.82335720  0.20081911  1  -1.212574  0  -0.328179  -0.370253  0  3.255982  0
N  N331  1  0.16844166  0.76403592  0.07141300  1  -1.216239  0  -0.367229  -0.310936  0  3.54415  0
N  N332  1  0.28532147  0.84464586  0.32112227  1  -1.234408  0  -0.261942  -0.113215  0  3.658045  0
N  N333  1  0.37746074  0.67664101  0.96684368  1  -1.204127  0  -0.328202  -0.370293  0  3.255886  0
N  N334  1  0.30737644  0.73596194  0.90440517  1  -1.218214  0  -0.367227  -0.311006  0  3.544162  0
N  N335  1  0.47647834  0.65535587  0.94067503  1  -1.23378  0  -0.261904  -0.113232  0  3.658079  0
N  N336  1  0.08938491  0.29918394  0.12254305  1  -1.256527  0  -0.328267  -0.370369  0  3.256107  0
N  N337  1  0.09702951  0.42858686  0.19262607  1  -1.214346  0  -0.367241  -0.311011  0  3.544114  0
N  N338  1  0.96419786  0.17887812  0.02352411  1  -1.258786  0  -0.261914  -0.113106  0  3.658081  0
N  N339  1  0.41061518  0.53315519  0.20979654  1  -1.215298  0  -0.328192  -0.370274  0  3.255925  0
N  N340  1  0.40297119  0.59559343  0.33155647  1  -1.200507  0  -0.367233  -0.311045  0  3.544296  0
N  N341  1  0.53579967  0.55932479  0.21468098  1  -1.223045  0  -0.261981  -0.113175  0  3.658279  0
N  N342  1  0.82335796  0.20081606  0.29020060  1  -1.212393  0  -0.328225  -0.370302  0  3.255943  0
N  N343  1  0.76403779  0.07141168  0.16844103  1  -1.216295  0  -0.36726  -0.311056  0  3.544009  0
N  N344  1  0.84464458  0.32112207  0.28531897  1  -1.231638  0  -0.261917  -0.113214  0  3.658182  0
N  N345  1  0.67664198  0.96684560  0.37745862  1  -1.204021  0  -0.328157  -0.370196  0  3.255886  0
N  N346  1  0.73596260  0.90440741  0.30737560  1  -1.218065  0  -0.367276  -0.311079  0  3.544156  0
N  N347  1  0.65535730  0.94067543  0.47647565  1  -1.233765  0  -0.261951  -0.113113  0  3.658198  0
N  N348  1  0.29918304  0.12254193  0.08938538  1  -1.256584  0  -0.328275  -0.370385  0  3.256076  0
N  N349  1  0.42858728  0.19262380  0.09703045  1  -1.214306  0  -0.367279  -0.311014  0  3.544182  0
N  N350  1  0.17887801  0.02352443  0.96419879  1  -1.258781  0  -0.261925  -0.113129  0  3.658064  0
N  N351  1  0.53315613  0.20979642  0.41061394  1  -1.214927  0  -0.328195  -0.370271  0  3.255895  0
N  N352  1  0.59559394  0.33155520  0.40296880  1  -1.200537  0  -0.367247  -0.31113  0  3.544225  0
N  N353  1  0.55932377  0.21467897  0.53580069  1  -1.223007  0  -0.261875  -0.113104  0  3.657963  0
N  N354  1  0.20081969  0.29020581  0.82336069  1  -1.212724  0  -0.328201  -0.370278  0  3.255942  0
N  N355  1  0.07141509  0.16844510  0.76403806  1  -1.215722  0  -0.367209  -0.311025  0  3.544238  0
N  N356  1  0.32112189  0.28532049  0.84464505  1  -1.234338  0  -0.261874  -0.113117  0  3.658037  0
N  N357  1  0.96684372  0.37745609  0.67664247  1  -1.204035  0  -0.328235  -0.370293  0  3.255882  0
N  N358  1  0.90440624  0.30737488  0.73596345  1  -1.218208  0  -0.367257  -0.311032  0  3.54408  0
N  N359  1  0.94067388  0.47647369  0.65535424  1  -1.233758  0  -0.261977  -0.113134  0  3.658042  0
