# generated using pymatgen
data_KH8C10N3
_symmetry_space_group_name_H-M   'P 1'
_cell_length_a   6.70015714
_cell_length_b   6.75896643
_cell_length_c   20.55269011
_cell_angle_alpha   89.99971461
_cell_angle_beta   89.99989645
_cell_angle_gamma   90.00000200
_symmetry_Int_Tables_number   1
_chemical_formula_structural   KH8C10N3
_chemical_formula_sum   'K4 H32 C40 N12'
_cell_volume   930.75194337
_cell_formula_units_Z   4
loop_
 _symmetry_equiv_pos_site_id
 _symmetry_equiv_pos_as_xyz
  1  'x, y, z'
loop_
 _atom_site_type_symbol
 _atom_site_label
 _atom_site_symmetry_multiplicity
 _atom_site_fract_x
 _atom_site_fract_y
 _atom_site_fract_z
 _atom_site_occupancy
 _atom_site_hle17_bader_spin_density
 _atom_site_hle17_ddec_charge
 _atom_site_hle17_ddec_spin_density
 _atom_site_hle17_ddec_sum_bond_order
 _atom_site_hle17_magmom
 _atom_site_hse06_10hf_bader_spin_density
 _atom_site_hse06_10hf_ddec_charge
 _atom_site_hse06_10hf_ddec_spin_density
 _atom_site_hse06_10hf_ddec_sum_bond_order
 _atom_site_hse06_10hf_magmom
 _atom_site_hse06_bader_spin_density
 _atom_site_hse06_ddec_charge
 _atom_site_hse06_ddec_spin_density
 _atom_site_hse06_ddec_sum_bond_order
 _atom_site_hse06_magmom
 _atom_site_pbe_bader_spin_density
 _atom_site_pbe_cm5_charge
 _atom_site_pbe_ddec_charge
 _atom_site_pbe_ddec_spin_density
 _atom_site_pbe_ddec_sum_bond_order
 _atom_site_pbe_magmom
K  K0  1  0.04488484  0.85305900  0.24999917  1  0  0.919187  0  0.446215  0  0  0.850088  0  0.63349  0  0  0.862511  0  0.619606  0  0  0.806782  0.840854  0  0.643417  0
K  K1  1  0.45511252  0.35304469  0.25000140  1  0  0.91921  0  0.446186  0  0  0.850063  0  0.633531  0  0  0.862501  0  0.619618  0  0  0.806763  0.840828  0  0.643459  0
K  K2  1  0.54488665  0.64694232  0.74999992  1  0  0.919179  0  0.446233  0  0  0.850087  0  0.633496  0  0  0.862511  0  0.619611  0  0  0.806772  0.840853  0  0.643423  0
K  K3  1  0.95510538  0.14695316  0.74999923  1  0  0.919199  0  0.446197  0  0  0.850054  0  0.633546  0  0  0.862505  0  0.619609  0  0  0.806759  0.840819  0  0.643474  0
H  H4  1  0.77292419  0.59008458  0.35414563  1  0  0.096189  0  1.012563  0  0  0.10402  0  1.078797  0  0  0.106574  0  1.080171  0  0  0.100369  0.1022  0  1.078016  0
H  H5  1  0.72707600  0.09008801  0.35414459  1  0  0.096145  0  1.01261  0  0  0.103984  0  1.078849  0  0  0.106537  0  1.080222  0  0  0.100355  0.102165  0  1.078065  0
H  H6  1  0.27292110  0.90991368  0.85414625  1  0  0.096178  0  1.012584  0  0  0.104013  0  1.078824  0  0  0.106567  0  1.080196  0  0  0.100357  0.102193  0  1.078042  0
H  H7  1  0.77292327  0.59008913  0.14585514  1  0  0.09616  0  1.012596  0  0  0.103977  0  1.078843  0  0  0.10653  0  1.080216  0  0  0.100355  0.102156  0  1.078062  0
H  H8  1  0.22707200  0.40990835  0.64585520  1  0  0.096143  0  1.012612  0  0  0.103975  0  1.078847  0  0  0.106529  0  1.08022  0  0  0.100338  0.102154  0  1.078066  0
H  H9  1  0.27292168  0.90990935  0.64585624  1  0  0.096156  0  1.012569  0  0  0.103961  0  1.078828  0  0  0.106514  0  1.080202  0  0  0.100341  0.10214  0  1.078047  0
H  H10  1  0.72707359  0.09009256  0.14585361  1  0  0.096151  0  1.012599  0  0  0.103987  0  1.078832  0  0  0.106541  0  1.080204  0  0  0.100342  0.102166  0  1.078051  0
H  H11  1  0.22707739  0.40991120  0.85414472  1  0  0.096171  0  1.012574  0  0  0.103993  0  1.078819  0  0  0.106546  0  1.080193  0  0  0.100361  0.102173  0  1.078037  0
H  H12  1  0.83165384  0.47619648  0.46704139  1  0  0.081312  0  0.963097  0  0  0.095289  0  1.022634  0  0  0.097075  0  1.021856  0  0  0.099287  0.093995  0  1.023107  0
H  H13  1  0.66835618  0.97619896  0.46704055  1  0  0.08133  0  0.963063  0  0  0.095315  0  1.022588  0  0  0.097103  0  1.02181  0  0  0.099314  0.094016  0  1.023075  0
H  H14  1  0.33163582  0.02380249  0.96704263  1  0  0.08135  0  0.963179  0  0  0.095329  0  1.022688  0  0  0.097119  0  1.02191  0  0  0.099362  0.094028  0  1.023183  0
H  H15  1  0.83163713  0.47620127  0.03295807  1  0  0.081277  0  0.96305  0  0  0.095267  0  1.022581  0  0  0.097054  0  1.021801  0  0  0.099299  0.093969  0  1.023067  0
H  H16  1  0.16835727  0.52380088  0.53295847  1  0  0.08127  0  0.963044  0  0  0.095262  0  1.022567  0  0  0.09705  0  1.021788  0  0  0.099306  0.093963  0  1.023055  0
H  H17  1  0.33164000  0.02379840  0.53295931  1  0  0.08123  0  0.963077  0  0  0.095224  0  1.022613  0  0  0.097008  0  1.021833  0  0  0.099295  0.093932  0  1.02308  0
H  H18  1  0.66836186  0.97620079  0.03295771  1  0  0.08136  0  0.96321  0  0  0.095339  0  1.022721  0  0  0.097128  0  1.021942  0  0  0.099342  0.094039  0  1.023213  0
H  H19  1  0.16836354  0.52380053  0.96704179  1  0  0.081326  0  0.963079  0  0  0.095316  0  1.022593  0  0  0.097103  0  1.021812  0  0  0.099342  0.094014  0  1.023089  0
H  H20  1  0.06392253  0.18452451  0.48596055  1  0  0.092742  0  0.975669  0  0  0.103121  0  1.039008  0  0  0.10605  0  1.03925  0  0  0.096308  0.10102  0  1.039007  0
H  H21  1  0.43609142  0.68451664  0.48596149  1  0  0.092709  0  0.975515  0  0  0.103066  0  1.038902  0  0  0.105993  0  1.039145  0  0  0.096272  0.100947  0  1.03892  0
H  H22  1  0.56390346  0.31548304  0.98596345  1  0  0.092649  0  0.975527  0  0  0.103014  0  1.038919  0  0  0.105941  0  1.039161  0  0  0.096242  0.100895  0  1.038936  0
H  H23  1  0.06390145  0.18451923  0.01403741  1  0  0.092727  0  0.975586  0  0  0.103078  0  1.038977  0  0  0.106007  0  1.039222  0  0  0.096276  0.100976  0  1.038979  0
H  H24  1  0.93609455  0.81548321  0.51403834  1  0  0.092695  0  0.975517  0  0  0.103058  0  1.038901  0  0  0.105984  0  1.039145  0  0  0.096264  0.100948  0  1.03891  0
H  H25  1  0.56390327  0.31548072  0.51403837  1  0  0.092729  0  0.975514  0  0  0.103088  0  1.038896  0  0  0.106016  0  1.039142  0  0  0.096273  0.100979  0  1.038903  0
H  H26  1  0.43610019  0.68451876  0.01403641  1  0  0.092683  0  0.975453  0  0  0.103035  0  1.038858  0  0  0.105964  0  1.0391  0  0  0.096245  0.100911  0  1.03888  0
H  H27  1  0.93609772  0.81548109  0.98596245  1  0  0.092685  0  0.975535  0  0  0.103042  0  1.038924  0  0  0.10597  0  1.039171  0  0  0.096254  0.100941  0  1.038923  0
H  H28  1  0.23110694  0.03627773  0.38920929  1  0  0.052842  0  0.999195  0  0  0.06096  0  1.067587  0  0  0.062063  0  1.068308  0  0  0.101946  0.060126  0  1.067089  0
H  H29  1  0.26890009  0.53628022  0.38920985  1  0  0.052751  0  0.999315  0  0  0.060927  0  1.067659  0  0  0.062032  0  1.068377  0  0  0.101953  0.060093  0  1.06716  0
H  H30  1  0.73110130  0.46371798  0.88921147  1  0  0.052725  0  0.999316  0  0  0.060815  0  1.067753  0  0  0.061921  0  1.068471  0  0  0.101926  0.059981  0  1.067255  0
H  H31  1  0.23109726  0.03628133  0.11078832  1  0  0.052792  0  0.999312  0  0  0.060881  0  1.067747  0  0  0.061988  0  1.068463  0  0  0.101914  0.060047  0  1.067248  0
H  H32  1  0.76889970  0.96371963  0.61078959  1  0  0.052751  0  0.999322  0  0  0.060941  0  1.067658  0  0  0.062047  0  1.068377  0  0  0.101954  0.060108  0  1.067158  0
H  H33  1  0.73109610  0.46371863  0.61079001  1  0  0.052763  0  0.999359  0  0  0.060785  0  1.067831  0  0  0.061891  0  1.068548  0  0  0.101898  0.059951  0  1.067332  0
H  H34  1  0.26890086  0.53628086  0.11078790  1  0  0.052744  0  0.999285  0  0  0.060833  0  1.067731  0  0  0.061939  0  1.068449  0  0  0.101929  0.059999  0  1.067233  0
H  H35  1  0.76890191  0.96371899  0.88921105  1  0  0.052795  0  0.999284  0  0  0.060871  0  1.067726  0  0  0.061977  0  1.068444  0  0  0.101912  0.060037  0  1.067228  0
C  C36  1  0.96569740  0.37000246  0.30958516  1  0  0.407736  0  3.893223  0  0  0.393569  0  4.153134  0  0  0.413261  0  4.163972  0  0  0.195802  0.380585  0  4.145199  0
C  C37  1  0.53430304  0.87000345  0.30958391  1  0  0.407867  0  3.893421  0  0  0.393764  0  4.153219  0  0  0.413455  0  4.164059  0  0  0.195864  0.380777  0  4.145295  0
C  C38  1  0.46569431  0.12999596  0.80958672  1  0  0.407859  0  3.893168  0  0  0.393715  0  4.153044  0  0  0.413403  0  4.163888  0  0  0.195871  0.380732  0  4.145107  0
C  C39  1  0.96569623  0.37000484  0.19041439  1  0  0.407833  0  3.893162  0  0  0.393697  0  4.153019  0  0  0.413388  0  4.163857  0  0  0.195855  0.380718  0  4.145074  0
C  C40  1  0.03430327  0.62999491  0.69041518  1  0  0.407754  0  3.893223  0  0  0.393649  0  4.153034  0  0  0.413338  0  4.163878  0  0  0.195853  0.380667  0  4.145095  0
C  C41  1  0.46569463  0.12999391  0.69041643  1  0  0.407896  0  3.893239  0  0  0.393774  0  4.153087  0  0  0.413464  0  4.163927  0  0  0.195869  0.380786  0  4.145164  0
C  C42  1  0.53430337  0.87000436  0.19041314  1  0  0.407878  0  3.893071  0  0  0.393683  0  4.15303  0  0  0.413373  0  4.163869  0  0  0.195843  0.3807  0  4.145093  0
C  C43  1  0.03430294  0.62999548  0.80958547  1  0  0.407764  0  3.8932  0  0  0.393616  0  4.153085  0  0  0.413305  0  4.163926  0  0  0.195833  0.380632  0  4.145149  0
C  C44  1  0.87226810  0.46600489  0.36378094  1  0  -0.236341  0  3.72537  0  0  -0.247057  0  3.968855  0  0  -0.257245  0  3.988703  0  0  -0.102857  -0.240536  0  3.955476  0
C  C45  1  0.62773802  0.96601032  0.36377817  1  0  -0.236315  0  3.72515  0  0  -0.247056  0  3.968613  0  0  -0.257243  0  3.988462  0  0  -0.102864  -0.240534  0  3.955234  0
C  C46  1  0.37225754  0.03399418  0.86378168  1  0  -0.236345  0  3.725208  0  0  -0.247076  0  3.968702  0  0  -0.257263  0  3.988553  0  0  -0.102853  -0.240553  0  3.955323  0
C  C47  1  0.87225977  0.46600810  0.13621851  1  0  -0.236244  0  3.725136  0  0  -0.24695  0  3.968624  0  0  -0.257136  0  3.988473  0  0  -0.102823  -0.240428  0  3.955247  0
C  C48  1  0.12773406  0.53398952  0.63621892  1  0  -0.236239  0  3.725197  0  0  -0.246961  0  3.96865  0  0  -0.25715  0  3.988503  0  0  -0.102799  -0.240439  0  3.955269  0
C  C49  1  0.37225966  0.03399000  0.63622023  1  0  -0.236271  0  3.725102  0  0  -0.246981  0  3.968607  0  0  -0.257168  0  3.988456  0  0  -0.102826  -0.240459  0  3.955226  0
C  C50  1  0.62773865  0.96601058  0.13621915  1  0  -0.236307  0  3.724984  0  0  -0.247013  0  3.968487  0  0  -0.257199  0  3.988336  0  0  -0.102842  -0.24049  0  3.955106  0
C  C51  1  0.12774089  0.53399222  0.86378086  1  0  -0.23625  0  3.725091  0  0  -0.246957  0  3.968572  0  0  -0.257144  0  3.988421  0  0  -0.102827  -0.240435  0  3.955194  0
C  C52  1  0.90511790  0.40162918  0.42655038  1  0  -0.014567  0  3.808719  0  0  -0.031104  0  4.053233  0  0  -0.0257  0  4.072255  0  0  -0.084071  -0.034182  0  4.039967  0
C  C53  1  0.59488787  0.90162278  0.42655104  1  0  -0.014602  0  3.808669  0  0  -0.031144  0  4.053197  0  0  -0.025738  0  4.072209  0  0  -0.084075  -0.03422  0  4.039918  0
C  C54  1  0.40510585  0.09837929  0.92655248  1  0  -0.014519  0  3.808832  0  0  -0.031042  0  4.053341  0  0  -0.025641  0  4.072365  0  0  -0.084078  -0.034116  0  4.040054  0
C  C55  1  0.90510693  0.40162447  0.07344964  1  0  -0.014559  0  3.80875  0  0  -0.031103  0  4.053281  0  0  -0.025699  0  4.072304  0  0  -0.084083  -0.03418  0  4.040011  0
C  C56  1  0.09488724  0.59837558  0.57344996  1  0  -0.014502  0  3.808656  0  0  -0.031043  0  4.053173  0  0  -0.02564  0  4.072194  0  0  -0.084064  -0.03412  0  4.039903  0
C  C57  1  0.40510832  0.09837458  0.57345077  1  0  -0.014474  0  3.808736  0  0  -0.031024  0  4.05328  0  0  -0.025614  0  4.072295  0  0  -0.084053  -0.034097  0  4.040009  0
C  C58  1  0.59489332  0.90162399  0.07344690  1  0  -0.01465  0  3.808747  0  0  -0.031186  0  4.053271  0  0  -0.025778  0  4.072283  0  0  -0.084105  -0.034259  0  4.039986  0
C  C59  1  0.09489373  0.59837733  0.92655119  1  0  -0.014588  0  3.808771  0  0  -0.031132  0  4.053303  0  0  -0.025726  0  4.072323  0  0  -0.084111  -0.034207  0  4.040024  0
C  C60  1  0.03451440  0.24128208  0.43733087  1  0  -0.187213  0  3.802184  0  0  -0.198565  0  4.054286  0  0  -0.209014  0  4.077181  0  0  -0.118219  -0.191828  0  4.038823  0
C  C61  1  0.46550281  0.74128161  0.43732936  1  0  -0.187236  0  3.802231  0  0  -0.198578  0  4.054362  0  0  -0.209025  0  4.077259  0  0  -0.118272  -0.191823  0  4.038906  0
C  C62  1  0.53449234  0.25872177  0.93733143  1  0  -0.187236  0  3.802223  0  0  -0.198587  0  4.05431  0  0  -0.209036  0  4.077207  0  0  -0.11828  -0.191829  0  4.038855  0
C  C63  1  0.03449156  0.24128198  0.06266799  1  0  -0.187232  0  3.802188  0  0  -0.198569  0  4.054286  0  0  -0.209022  0  4.077189  0  0  -0.118213  -0.19183  0  4.038822  0
C  C64  1  0.96550417  0.75871972  0.56266899  1  0  -0.187213  0  3.802158  0  0  -0.198551  0  4.054269  0  0  -0.208999  0  4.077166  0  0  -0.11823  -0.191806  0  4.038811  0
C  C65  1  0.53449188  0.25871723  0.56266953  1  0  -0.187334  0  3.802183  0  0  -0.198686  0  4.054299  0  0  -0.209138  0  4.077196  0  0  -0.118279  -0.191939  0  4.038839  0
C  C66  1  0.46550832  0.74128003  0.06266891  1  0  -0.187085  0  3.802095  0  0  -0.198418  0  4.054175  0  0  -0.208869  0  4.077077  0  0  -0.118165  -0.191659  0  4.038719  0
C  C67  1  0.96550910  0.75871983  0.93733138  1  0  -0.187209  0  3.802164  0  0  -0.198544  0  4.054252  0  0  -0.208998  0  4.077154  0  0  -0.118219  -0.191804  0  4.038788  0
C  C68  1  0.12596614  0.15855831  0.38306599  1  0  0.112182  0  3.833442  0  0  0.091469  0  4.084795  0  0  0.100043  0  4.102476  0  0  0.020226  0.086091  0  4.072511  0
C  C69  1  0.37404092  0.65855340  0.38306697  1  0  0.112306  0  3.83332  0  0  0.091553  0  4.084646  0  0  0.100126  0  4.102321  0  0  0.020261  0.086175  0  4.072361  0
C  C70  1  0.62595602  0.34144490  0.88306837  1  0  0.112388  0  3.833389  0  0  0.091709  0  4.084703  0  0  0.100283  0  4.102377  0  0  0.020326  0.08633  0  4.07242  0
C  C71  1  0.12595643  0.15855442  0.11693246  1  0  0.112311  0  3.833338  0  0  0.091637  0  4.084649  0  0  0.10021  0  4.102325  0  0  0.02029  0.086257  0  4.072369  0
C  C72  1  0.87404050  0.84144645  0.61693387  1  0  0.112312  0  3.83351  0  0  0.091551  0  4.084827  0  0  0.100123  0  4.102504  0  0  0.020269  0.086172  0  4.072541  0
C  C73  1  0.62595526  0.34144692  0.61693386  1  0  0.112407  0  3.833388  0  0  0.091795  0  4.0847  0  0  0.10037  0  4.102374  0  0  0.020377  0.086414  0  4.072417  0
C  C74  1  0.37404614  0.65855543  0.11693101  1  0  0.11229  0  3.833268  0  0  0.091612  0  4.084596  0  0  0.100185  0  4.102271  0  0  0.020258  0.086234  0  4.072311  0
C  C75  1  0.87404274  0.84144590  0.88306740  1  0  0.112274  0  3.833392  0  0  0.09161  0  4.084708  0  0  0.100183  0  4.102384  0  0  0.020285  0.08623  0  4.072427  0
N  N76  1  0.91314059  0.44083327  0.24999974  1  0  -0.681271  0  3.133687  0  0  -0.643257  0  3.420025  0  0  -0.667226  0  3.429208  0  0  -0.484488  -0.626628  0  3.413034  0
N  N77  1  0.58686168  0.94083278  0.24999991  1  0  -0.681345  0  3.133646  0  0  -0.643333  0  3.41999  0  0  -0.667304  0  3.429173  0  0  -0.484514  -0.626705  0  3.413  0
N  N78  1  0.41313600  0.05916754  0.75000092  1  0  -0.681432  0  3.133811  0  0  -0.643432  0  3.420147  0  0  -0.667405  0  3.429332  0  0  -0.484507  -0.626804  0  3.413156  0
N  N79  1  0.08686008  0.55916410  0.75000012  1  0  -0.681268  0  3.133617  0  0  -0.643271  0  3.419941  0  0  -0.667242  0  3.429127  0  0  -0.484552  -0.626644  0  3.412951  0
N  N80  1  0.09648342  0.21751306  0.32103806  1  0  -0.52383  0  3.119681  0  0  -0.475113  0  3.384622  0  0  -0.49075  0  3.395648  0  0  -0.469948  -0.464579  0  3.376929  0
N  N81  1  0.40352399  0.71751703  0.32103708  1  0  -0.523913  0  3.119756  0  0  -0.475211  0  3.384668  0  0  -0.490846  0  3.395691  0  0  -0.469946  -0.464676  0  3.376978  0
N  N82  1  0.59647479  0.28248369  0.82103907  1  0  -0.523953  0  3.119813  0  0  -0.475237  0  3.384706  0  0  -0.490872  0  3.39573  0  0  -0.469997  -0.464701  0  3.377018  0
N  N83  1  0.09647635  0.21751710  0.17896128  1  0  -0.524016  0  3.119842  0  0  -0.475315  0  3.384763  0  0  -0.490951  0  3.395785  0  0  -0.470014  -0.46478  0  3.377076  0
N  N84  1  0.90352172  0.78248282  0.67896228  1  0  -0.523926  0  3.119862  0  0  -0.475234  0  3.3848  0  0  -0.490871  0  3.395824  0  0  -0.469983  -0.464698  0  3.377107  0
N  N85  1  0.59647369  0.28248329  0.67896230  1  0  -0.52397  0  3.119805  0  0  -0.475274  0  3.384703  0  0  -0.490911  0  3.395725  0  0  -0.470026  -0.46474  0  3.377017  0
N  N86  1  0.40352438  0.71751515  0.17896127  1  0  -0.523984  0  3.119719  0  0  -0.475249  0  3.384619  0  0  -0.490884  0  3.395644  0  0  -0.469959  -0.464714  0  3.37693  0
N  N87  1  0.90352282  0.78248322  0.82103858  1  0  -0.523925  0  3.119868  0  0  -0.475211  0  3.384767  0  0  -0.490848  0  3.395794  0  0  -0.469945  -0.464676  0  3.377077  0
