# generated using pymatgen
data_KAgH10C14S2N2O7
_symmetry_space_group_name_H-M   'P 1'
_cell_length_a   7.39641485
_cell_length_b   9.56046862
_cell_length_c   13.58159796
_cell_angle_alpha   87.49239814
_cell_angle_beta   73.92490514
_cell_angle_gamma   68.47141321
_symmetry_Int_Tables_number   1
_chemical_formula_structural   KAgH10C14S2N2O7
_chemical_formula_sum   'K2 Ag2 H20 C28 S4 N4 O14'
_cell_volume   856.66310203
_cell_formula_units_Z   2
loop_
 _symmetry_equiv_pos_site_id
 _symmetry_equiv_pos_as_xyz
  1  'x, y, z'
loop_
 _atom_site_type_symbol
 _atom_site_label
 _atom_site_symmetry_multiplicity
 _atom_site_fract_x
 _atom_site_fract_y
 _atom_site_fract_z
 _atom_site_occupancy
 _atom_site_hle17_bader_spin_density
 _atom_site_hle17_ddec_charge
 _atom_site_hle17_ddec_spin_density
 _atom_site_hle17_ddec_sum_bond_order
 _atom_site_hle17_magmom
 _atom_site_hse06_10hf_bader_spin_density
 _atom_site_hse06_10hf_ddec_charge
 _atom_site_hse06_10hf_ddec_spin_density
 _atom_site_hse06_10hf_ddec_sum_bond_order
 _atom_site_hse06_10hf_magmom
 _atom_site_hse06_bader_spin_density
 _atom_site_hse06_ddec_charge
 _atom_site_hse06_ddec_spin_density
 _atom_site_hse06_ddec_sum_bond_order
 _atom_site_hse06_magmom
 _atom_site_pbe_bader_spin_density
 _atom_site_pbe_cm5_charge
 _atom_site_pbe_ddec_charge
 _atom_site_pbe_ddec_spin_density
 _atom_site_pbe_ddec_sum_bond_order
 _atom_site_pbe_magmom
K  K0  1  0.19368756  0.27087673  0.42289369  1  0  0.936728  0  0.469329  0  0  0.889172  0  0.669405  0  0  0.903434  0  0.64371  0  0  0.765688  0.87882  0  0.687107  0
K  K1  1  0.80631703  0.72912431  0.57710574  1  0  0.93672  0  0.469334  0  0  0.889153  0  0.669422  0  0  0.903418  0  0.643724  0  0  0.765688  0.878802  0  0.687133  0
Ag  Ag2  1  0.29141228  0.81802367  0.54999887  1  0  0.618204  0  1.371892  0  0  0.480175  0  1.794055  0  0  0.509487  0  1.750017  0  0  0.519481  0.459648  0  1.823719  0
Ag  Ag3  1  0.70858053  0.18197280  0.45000464  1  0  0.618178  0  1.371831  0  0  0.480157  0  1.793975  0  0  0.509465  0  1.749937  0  0  0.519472  0.459628  0  1.823634  0
H  H4  1  0.59550831  0.25983609  0.21768113  1  0  0.417537  0  0.87929  0  0  0.390209  0  0.938467  0  0  0.399611  0  0.924414  0  0  0.288524  0.383397  0  0.948672  0
H  H5  1  0.40449544  0.74016382  0.78231845  1  0  0.41756  0  0.879259  0  0  0.390238  0  0.938429  0  0  0.39964  0  0.924375  0  0  0.288544  0.383429  0  0.948629  0
H  H6  1  0.40212588  0.23324878  0.21076851  1  0  0.402949  0  0.892932  0  0  0.377947  0  0.95314  0  0  0.386829  0  0.939817  0  0  0.286972  0.371631  0  0.962654  0
H  H7  1  0.59787758  0.76675454  0.78922956  1  0  0.402928  0  0.89294  0  0  0.377933  0  0.953154  0  0  0.386814  0  0.939834  0  0  0.286951  0.371616  0  0.96267  0
H  H8  1  0.67989951  0.40964888  0.72482190  1  0  0.129127  0  0.933275  0  0  0.139169  0  0.989909  0  0  0.143303  0  0.986861  0  0  0.121173  0.136199  0  0.9923  0
H  H9  1  0.32010618  0.59035000  0.27517153  1  0  0.12914  0  0.93328  0  0  0.139198  0  0.989897  0  0  0.143332  0  0.986847  0  0  0.121192  0.136225  0  0.992291  0
H  H10  1  0.03934173  0.42592088  0.16620356  1  0  0.117545  0  0.976435  0  0  0.126283  0  1.036342  0  0  0.130044  0  1.033977  0  0  0.109474  0.123751  0  1.037714  0
H  H11  1  0.96067886  0.57407912  0.83379056  1  0  0.117518  0  0.976539  0  0  0.126237  0  1.036461  0  0  0.13  0  1.034093  0  0  0.109431  0.123707  0  1.037835  0
H  H12  1  0.44227948  0.49231818  0.89803701  1  0  0.094336  0  0.953005  0  0  0.105656  0  1.013039  0  0  0.108669  0  1.011505  0  0  0.104493  0.103456  0  1.014287  0
H  H13  1  0.55771920  0.50768064  0.10195968  1  0  0.09438  0  0.953001  0  0  0.105676  0  1.013067  0  0  0.108691  0  1.01153  0  0  0.104509  0.103471  0  1.014317  0
H  H14  1  0.13766171  0.56468913  0.01224788  1  0  0.085523  0  0.965667  0  0  0.096964  0  1.026443  0  0  0.099077  0  1.02633  0  0  0.102337  0.095397  0  1.026637  0
H  H15  1  0.86234144  0.43532320  0.98775076  1  0  0.085501  0  0.965598  0  0  0.097008  0  1.026333  0  0  0.099123  0  1.026215  0  0  0.102338  0.095441  0  1.02653  0
H  H16  1  0.97250748  0.83901113  0.01202242  1  0  0.096593  0  0.974053  0  0  0.104775  0  1.037472  0  0  0.107969  0  1.035846  0  0  0.097599  0.102353  0  1.038944  0
H  H17  1  0.02748698  0.16099883  0.98798346  1  0  0.096565  0  0.974127  0  0  0.104763  0  1.037532  0  0  0.107954  0  1.035911  0  0  0.097602  0.102342  0  1.039003  0
H  H18  1  0.69414548  0.98607058  0.16689758  1  0  0.097565  0  0.962287  0  0  0.107097  0  1.027055  0  0  0.110814  0  1.024141  0  0  0.105609  0.104408  0  1.029073  0
H  H19  1  0.30585322  0.01392815  0.83310574  1  0  0.097547  0  0.962345  0  0  0.107061  0  1.027121  0  0  0.110776  0  1.024212  0  0  0.105587  0.10439  0  1.02911  0
H  H20  1  0.42161203  0.30843129  0.03285514  1  0  0.094215  0  0.956064  0  0  0.105368  0  1.016252  0  0  0.108489  0  1.014467  0  0  0.104516  0.103038  0  1.017718  0
H  H21  1  0.57838775  0.69157096  0.96713835  1  0  0.0942  0  0.956029  0  0  0.105374  0  1.016174  0  0  0.108503  0  1.014414  0  0  0.104485  0.103033  0  1.017675  0
H  H22  1  0.64429882  0.03626521  0.99424520  1  0  0.097626  0  0.959129  0  0  0.109166  0  1.020591  0  0  0.111673  0  1.019743  0  0  0.106463  0.107291  0  1.021418  0
H  H23  1  0.35569677  0.96373694  0.00575482  1  0  0.097568  0  0.959117  0  0  0.109131  0  1.020559  0  0  0.111639  0  1.019711  0  0  0.106451  0.107252  0  1.021392  0
C  C24  1  0.79460803  0.17663242  0.76164994  1  0  -0.060237  0  3.780487  0  0  -0.043727  0  4.007346  0  0  -0.050303  0  4.031829  0  0  -0.008244  -0.039499  0  3.991099  0
C  C25  1  0.20539262  0.82337084  0.23835223  1  0  -0.060303  0  3.78044  0  0  -0.043759  0  4.00732  0  0  -0.050332  0  4.031802  0  0  -0.008252  -0.039532  0  3.991077  0
C  C26  1  0.78261627  0.07481828  0.83783594  1  0  -0.136961  0  3.775376  0  0  -0.117307  0  4.018772  0  0  -0.122839  0  4.041877  0  0  -0.014657  -0.113763  0  4.003407  0
C  C27  1  0.21738663  0.92518051  0.16216306  1  0  -0.13705  0  3.775441  0  0  -0.11738  0  4.018836  0  0  -0.122913  0  4.04194  0  0  -0.014667  -0.113836  0  4.003472  0
C  C28  1  0.81110137  0.63129713  0.24911078  1  0  -0.121849  0  3.734959  0  0  -0.10033  0  3.972678  0  0  -0.105379  0  3.994791  0  0  -0.007034  -0.097083  0  3.958239  0
C  C29  1  0.18890154  0.36869603  0.75088762  1  0  -0.121818  0  3.734912  0  0  -0.100261  0  3.97255  0  0  -0.105311  0  3.994671  0  0  -0.007041  -0.097014  0  3.95811  0
C  C30  1  0.67230473  0.32824501  0.78279070  1  0  -0.034567  0  3.657766  0  0  -0.059601  0  3.906698  0  0  -0.058989  0  3.924804  0  0  -0.063797  -0.06015  0  3.894696  0
C  C31  1  0.32769423  0.67175601  0.21720957  1  0  -0.034526  0  3.657523  0  0  -0.059574  0  3.90646  0  0  -0.05896  0  3.924562  0  0  -0.063795  -0.060124  0  3.894456  0
C  C32  1  0.71370731  0.78703180  0.25002695  1  0  -0.062181  0  3.806292  0  0  -0.045935  0  4.032608  0  0  -0.052229  0  4.057559  0  0  -0.010643  -0.042047  0  4.016053  0
C  C33  1  0.28628155  0.21296693  0.74997563  1  0  -0.062025  0  3.806073  0  0  -0.045798  0  4.032379  0  0  -0.052088  0  4.057332  0  0  -0.010622  -0.041907  0  4.015815  0
C  C34  1  0.96401319  0.54718782  0.16517471  1  0  -0.052164  0  3.702548  0  0  -0.075732  0  3.948459  0  0  -0.075554  0  3.96652  0  0  -0.075604  -0.075861  0  3.936256  0
C  C35  1  0.03599337  0.45281208  0.83482592  1  0  -0.052238  0  3.702735  0  0  -0.075791  0  3.948657  0  0  -0.075607  0  3.966701  0  0  -0.075587  -0.075921  0  3.936465  0
C  C36  1  0.53775911  0.37352909  0.88109007  1  0  -0.0513  0  3.709579  0  0  -0.068924  0  3.966586  0  0  -0.070867  0  3.987344  0  0  -0.076695  -0.06738  0  3.952428  0
C  C37  1  0.46224659  0.62646976  0.11890483  1  0  -0.051361  0  3.70941  0  0  -0.068985  0  3.966447  0  0  -0.070928  0  3.987206  0  0  -0.076711  -0.067427  0  3.952276  0
C  C38  1  0.94926988  0.10198832  0.66356893  1  0  0.579055  0  3.868256  0  0  0.535195  0  4.151005  0  0  0.56539  0  4.150903  0  0  0.233846  0.51464  0  4.150502  0
C  C39  1  0.05072459  0.89801607  0.33643267  1  0  0.579186  0  3.868234  0  0  0.535207  0  4.151183  0  0  0.565401  0  4.151082  0  0  0.233812  0.514644  0  4.150691  0
C  C40  1  0.01828722  0.62618914  0.07986756  1  0  -0.050288  0  3.726128  0  0  -0.062924  0  3.976948  0  0  -0.064878  0  3.998468  0  0  -0.078235  -0.061482  0  3.962409  0
C  C41  1  0.98171284  0.37382096  0.92012938  1  0  -0.050229  0  3.726124  0  0  -0.062939  0  3.976984  0  0  -0.064892  0  3.998506  0  0  -0.078243  -0.061503  0  3.962452  0
C  C42  1  0.92276157  0.78233745  0.07949608  1  0  -0.066113  0  3.736674  0  0  -0.083156  0  3.993279  0  0  -0.084785  0  4.014024  0  0  -0.087902  -0.082063  0  3.979102  0
C  C43  1  0.07723151  0.21766687  0.92051015  1  0  -0.066042  0  3.736434  0  0  -0.083127  0  3.993103  0  0  -0.084755  0  4.013848  0  0  -0.08789  -0.082034  0  3.978929  0
C  C44  1  0.76833794  0.86430012  0.16488738  1  0  -0.061347  0  3.723353  0  0  -0.086932  0  3.97849  0  0  -0.087791  0  3.99872  0  0  -0.080318  -0.086064  0  3.964448  0
C  C45  1  0.23165204  0.13569635  0.83511582  1  0  -0.0614  0  3.723188  0  0  -0.086931  0  3.978318  0  0  -0.087794  0  3.998553  0  0  -0.080252  -0.086073  0  3.964258  0
C  C46  1  0.55469704  0.85136935  0.34823429  1  0  0.56824  0  3.897812  0  0  0.525464  0  4.179021  0  0  0.555336  0  4.179663  0  0  0.225645  0.505235  0  4.177727  0
C  C47  1  0.44530168  0.14862372  0.65177063  1  0  0.568181  0  3.897681  0  0  0.525392  0  4.178904  0  0  0.555255  0  4.179544  0  0  0.225607  0.505161  0  4.177612  0
C  C48  1  0.52645382  0.27023254  0.95653036  1  0  -0.055977  0  3.720324  0  0  -0.070096  0  3.972509  0  0  -0.071595  0  3.992901  0  0  -0.079254  -0.068944  0  3.958579  0
C  C49  1  0.47354879  0.72976966  0.04346713  1  0  -0.056052  0  3.720329  0  0  -0.070166  0  3.97249  0  0  -0.07169  0  3.992898  0  0  -0.079276  -0.06902  0  3.958562  0
C  C50  1  0.65098914  0.11740077  0.93581754  1  0  -0.060482  0  3.736409  0  0  -0.083692  0  3.98409  0  0  -0.083967  0  4.00369  0  0  -0.081203  -0.083341  0  3.970946  0
C  C51  1  0.34901489  0.88259578  0.06418061  1  0  -0.060301  0  3.736335  0  0  -0.083532  0  3.984002  0  0  -0.083809  0  4.003607  0  0  -0.081162  -0.083177  0  3.970856  0
S  S52  1  0.70329523  0.57266543  0.36982957  1  0  1.240028  0  5.391818  0  0  1.156687  0  5.89036  0  0  1.201539  0  5.876651  0  0  0.551782  1.125664  0  5.899189  0
S  S53  1  0.29670824  0.42733224  0.63016937  1  0  1.239981  0  5.391658  0  0  1.156617  0  5.890202  0  0  1.201459  0  5.876491  0  0  0.551728  1.125605  0  5.899023  0
S  S54  1  0.95909142  0.89497300  0.78421296  1  0  1.238962  0  5.408258  0  0  1.147361  0  5.912949  0  0  1.192292  0  5.898819  0  0  0.562595  1.116143  0  5.921486  0
S  S55  1  0.04091006  0.10502583  0.21578330  1  0  1.239004  0  5.40823  0  0  1.147384  0  5.912933  0  0  1.19232  0  5.898799  0  0  0.562582  1.116156  0  5.921481  0
N  N56  1  0.04453793  0.94947547  0.67133428  1  0  -0.707544  0  3.166006  0  0  -0.62312  0  3.494748  0  0  -0.654274  0  3.493667  0  0  -0.430118  -0.601256  0  3.49431  0
N  N57  1  0.95546189  0.05052108  0.32866376  1  0  -0.707544  0  3.165802  0  0  -0.623122  0  3.494604  0  0  -0.654274  0  3.493522  0  0  -0.430084  -0.601252  0  3.494161  0
N  N58  1  0.53994851  0.74248273  0.41627222  1  0  -0.719381  0  3.1463  0  0  -0.633024  0  3.466166  0  0  -0.66469  0  3.466394  0  0  -0.445835  -0.611072  0  3.464882  0
N  N59  1  0.46005020  0.25751036  0.58373050  1  0  -0.719404  0  3.146282  0  0  -0.633027  0  3.466132  0  0  -0.664673  0  3.466347  0  0  -0.445837  -0.611082  0  3.464855  0
O  O60  1  0.60329805  0.47116681  0.35953494  1  0  -0.595766  0  1.952593  0  0  -0.548055  0  2.213596  0  0  -0.56961  0  2.199178  0  0  -0.297195  -0.533031  0  2.223175  0
O  O61  1  0.39670514  0.52882861  0.64046337  1  0  -0.595787  0  1.952497  0  0  -0.548071  0  2.213504  0  0  -0.569622  0  2.199085  0  0  -0.29718  -0.533057  0  2.223098  0
O  O62  1  0.11663099  0.83504372  0.83664974  1  0  -0.615529  0  1.955507  0  0  -0.556805  0  2.191337  0  0  -0.579124  0  2.179383  0  0  -0.305607  -0.540859  0  2.19856  0
O  O63  1  0.88336488  0.16495507  0.16334884  1  0  -0.615634  0  1.955581  0  0  -0.556869  0  2.191387  0  0  -0.579192  0  2.179432  0  0  -0.305654  -0.540922  0  2.198611  0
O  O64  1  0.85360625  0.79443877  0.77804141  1  0  -0.645725  0  1.996061  0  0  -0.590858  0  2.247502  0  0  -0.61307  0  2.234626  0  0  -0.339315  -0.575141  0  2.255723  0
O  O65  1  0.14639805  0.20556008  0.22195297  1  0  -0.645694  0  1.996015  0  0  -0.590818  0  2.247455  0  0  -0.613027  0  2.234576  0  0  -0.339271  -0.575096  0  2.255673  0
O  O66  1  0.85211129  0.51811822  0.42805529  1  0  -0.682941  0  1.963195  0  0  -0.633275  0  2.215461  0  0  -0.655003  0  2.20202  0  0  -0.426497  -0.618122  0  2.22396  0
O  O67  1  0.14788881  0.48188053  0.57194634  1  0  -0.682911  0  1.96322  0  0  -0.63324  0  2.215482  0  0  -0.65497  0  2.202043  0  0  -0.426486  -0.618091  0  2.22398  0
O  O68  1  0.98902480  0.16843367  0.58496722  1  0  -0.587109  0  1.952608  0  0  -0.545504  0  2.199831  0  0  -0.564916  0  2.188444  0  0  -0.362111  -0.531851  0  2.20682  0
O  O69  1  0.01096936  0.83157414  0.41503139  1  0  -0.587111  0  1.952688  0  0  -0.545467  0  2.199998  0  0  -0.564879  0  2.18861  0  0  -0.36206  -0.53181  0  2.206985  0
O  O70  1  0.44643914  0.98709895  0.36636707  1  0  -0.603938  0  1.955793  0  0  -0.564823  0  2.20545  0  0  -0.584808  0  2.194867  0  0  -0.373942  -0.550853  0  2.212063  0
O  O71  1  0.55355113  0.01289976  0.63363751  1  0  -0.603936  0  1.955847  0  0  -0.564823  0  2.205525  0  0  -0.584803  0  2.19494  0  0  -0.373938  -0.550854  0  2.212141  0
O  O72  1  0.44784689  0.30713884  0.23279252  1  0  -0.84281  0  1.777809  0  0  -0.802857  0  1.932037  0  0  -0.819279  0  1.904361  0  0  -0.641987  -0.791189  0  1.95193  0
O  O73  1  0.55215545  0.69286108  0.76720654  1  0  -0.842816  0  1.777788  0  0  -0.802856  0  1.93201  0  0  -0.819278  0  1.90434  0  0  -0.641973  -0.791185  0  1.951904  0
