# generated using pymatgen
data_Zn2H13C18N15O
_symmetry_space_group_name_H-M   'P 1'
_cell_length_a   10.03906541
_cell_length_b   10.49007335
_cell_length_c   11.84742936
_cell_angle_alpha   71.25469661
_cell_angle_beta   66.94090687
_cell_angle_gamma   79.39893102
_symmetry_Int_Tables_number   1
_chemical_formula_structural   Zn2H13C18N15O
_chemical_formula_sum   'Zn4 H26 C36 N30 O2'
_cell_volume   1084.66088355
_cell_formula_units_Z   2
loop_
 _symmetry_equiv_pos_site_id
 _symmetry_equiv_pos_as_xyz
  1  'x, y, z'
loop_
 _atom_site_type_symbol
 _atom_site_label
 _atom_site_symmetry_multiplicity
 _atom_site_fract_x
 _atom_site_fract_y
 _atom_site_fract_z
 _atom_site_occupancy
 _atom_site_hle17_bader_spin_density
 _atom_site_hle17_ddec_charge
 _atom_site_hle17_ddec_spin_density
 _atom_site_hle17_ddec_sum_bond_order
 _atom_site_hle17_magmom
 _atom_site_hse06_10hf_bader_spin_density
 _atom_site_hse06_10hf_ddec_charge
 _atom_site_hse06_10hf_ddec_spin_density
 _atom_site_hse06_10hf_ddec_sum_bond_order
 _atom_site_hse06_10hf_magmom
 _atom_site_hse06_bader_spin_density
 _atom_site_hse06_ddec_charge
 _atom_site_hse06_ddec_spin_density
 _atom_site_hse06_ddec_sum_bond_order
 _atom_site_hse06_magmom
 _atom_site_pbe_bader_spin_density
 _atom_site_pbe_cm5_charge
 _atom_site_pbe_ddec_charge
 _atom_site_pbe_ddec_spin_density
 _atom_site_pbe_ddec_sum_bond_order
 _atom_site_pbe_magmom
Zn  Zn0  1  0.21534814  0.02666668  0.33479014  1  0  0.935574  0  1.960477  0  0  0.731919  0  2.445735  0  0  0.773237  0  2.395787  0  0  0.721904  0.703044  0  2.480469  0
Zn  Zn1  1  0.78465267  0.97333378  0.66520960  1  0  0.935584  0  1.960432  0  0  0.731927  0  2.445728  0  0  0.773253  0  2.39577  0  0  0.721915  0.703048  0  2.48045  0
Zn  Zn2  1  0.00786152  0.30913764  0.28679384  1  0  0.937301  0  1.956745  0  0  0.735304  0  2.438452  0  0  0.776218  0  2.390942  0  0  0.710372  0.706831  0  2.471293  0
Zn  Zn3  1  0.99213828  0.69086181  0.71320652  1  0  0.937286  0  1.956762  0  0  0.735299  0  2.438469  0  0  0.776208  0  2.390964  0  0  0.710373  0.70682  0  2.471312  0
H  H4  1  0.18331392  0.86977411  0.72739125  1  0  0.084806  0  0.975624  0  0  0.083929  0  1.054791  0  0  0.087751  0  1.050421  0  0  0.116181  0.081077  0  1.058079  0
H  H5  1  0.81668589  0.13022534  0.27260911  1  0  0.0848  0  0.975633  0  0  0.083927  0  1.054799  0  0  0.087747  0  1.050429  0  0  0.116171  0.081075  0  1.058089  0
H  H6  1  0.21701161  0.93536032  0.89884647  1  0  0.122304  0  0.921405  0  0  0.135372  0  0.972295  0  0  0.138663  0  0.971713  0  0  0.116656  0.133104  0  0.972794  0
H  H7  1  0.78298704  0.06464013  0.10115399  1  0  0.122326  0  0.921387  0  0  0.13539  0  0.972277  0  0  0.138682  0  0.971698  0  0  0.116673  0.133123  0  0.972775  0
H  H8  1  0.86223785  0.69406611  0.17224986  1  0  0.110143  0  0.981519  0  0  0.117913  0  1.044698  0  0  0.120371  0  1.045593  0  0  0.107757  0.116146  0  1.044203  0
H  H9  1  0.13776187  0.30593434  0.82775193  1  0  0.110152  0  0.981518  0  0  0.117923  0  1.044696  0  0  0.120381  0  1.045592  0  0  0.107762  0.116155  0  1.044202  0
H  H10  1  0.84331531  0.63351226  0.99108790  1  0  0.077553  0  0.971857  0  0  0.079184  0  1.048417  0  0  0.082442  0  1.045488  0  0  0.112435  0.076673  0  1.050899  0
H  H11  1  0.15668457  0.36648618  0.00891272  1  0  0.077551  0  0.971837  0  0  0.079197  0  1.048388  0  0  0.082455  0  1.045458  0  0  0.112437  0.076686  0  1.050871  0
H  H12  1  0.74385494  0.41604511  0.21916041  1  0  0.071383  0  0.956204  0  0  0.079803  0  1.023412  0  0  0.082038  0  1.021454  0  0  0.114291  0.078143  0  1.024963  0
H  H13  1  0.25614587  0.58395535  0.78083933  1  0  0.071357  0  0.956243  0  0  0.079785  0  1.023446  0  0  0.082022  0  1.021486  0  0  0.114289  0.078125  0  1.024996  0
H  H14  1  0.54249539  0.59233220  0.26858186  1  0  0.120977  0  0.956968  0  0  0.125985  0  1.026259  0  0  0.129557  0  1.024763  0  0  0.111506  0.123455  0  1.027388  0
H  H15  1  0.45750658  0.40766725  0.73141694  1  0  0.120973  0  0.956987  0  0  0.125992  0  1.026274  0  0  0.129563  0  1.024778  0  0  0.111494  0.12346  0  1.027409  0
H  H16  1  0.70439545  0.62905083  0.54499386  1  0  0.118182  0  0.962247  0  0  0.123177  0  1.030377  0  0  0.126937  0  1.027921  0  0  0.113704  0.120417  0  1.032362  0
H  H17  1  0.29560435  0.37094862  0.45500650  1  0  0.118153  0  0.962209  0  0  0.123133  0  1.030363  0  0  0.126892  0  1.027908  0  0  0.113686  0.120373  0  1.032348  0
H  H18  1  0.88971925  0.44678091  0.49252942  1  0  0.088155  0  0.93657  0  0  0.091605  0  1.009054  0  0  0.094649  0  1.005299  0  0  0.122447  0.089531  0  1.011501  0
H  H19  1  0.11028048  0.55321955  0.50747153  1  0  0.088166  0  0.936568  0  0  0.091611  0  1.009058  0  0  0.094656  0  1.005301  0  0  0.122438  0.089537  0  1.011504  0
H  H20  1  0.35378163  0.08033734  0.04293197  1  0  0.080453  0  0.961992  0  0  0.083635  0  1.033393  0  0  0.086921  0  1.030687  0  0  0.113304  0.080968  0  1.036019  0
H  H21  1  0.64621918  0.91966312  0.95706693  1  0  0.080427  0  0.962033  0  0  0.083605  0  1.033435  0  0  0.086892  0  1.030731  0  0  0.11329  0.080939  0  1.036063  0
H  H22  1  0.54311468  0.22837396  0.86540751  1  0  0.119418  0  0.965519  0  0  0.119746  0  1.042594  0  0  0.124455  0  1.038979  0  0  0.108896  0.116216  0  1.045632  0
H  H23  1  0.45688490  0.77162852  0.13459207  1  0  0.119377  0  0.965535  0  0  0.119707  0  1.04262  0  0  0.124416  0  1.039008  0  0  0.108902  0.116178  0  1.045657  0
H  H24  1  0.58704825  0.37441077  0.15074504  1  0  0.112092  0  0.946488  0  0  0.121743  0  1.009156  0  0  0.125002  0  1.007736  0  0  0.11049  0.119411  0  1.010442  0
H  H25  1  0.41295148  0.62558969  0.84925590  1  0  0.11209  0  0.946487  0  0  0.121743  0  1.009155  0  0  0.125002  0  1.007735  0  0  0.110501  0.119409  0  1.010444  0
H  H26  1  0.40794543  0.21462178  0.31583340  1  0  0.084897  0  0.952445  0  0  0.087504  0  1.027196  0  0  0.091111  0  1.022918  0  0  0.117103  0.08489  0  1.030215  0
H  H27  1  0.59205329  0.78537767  0.68416648  1  0  0.084906  0  0.952433  0  0  0.08751  0  1.027194  0  0  0.09112  0  1.022912  0  0  0.117098  0.084894  0  1.030213  0
H  H28  1  0.04575706  0.15855532  0.49016539  1  0  0.368706  0  0.967445  0  0  0.32698  0  1.048517  0  0  0.337686  0  1.033283  0  0  0.265969  0.319429  0  1.05923  0
H  H29  1  0.95424267  0.84144514  0.50983471  1  0  0.368802  0  0.967329  0  0  0.327077  0  1.048403  0  0  0.337783  0  1.033166  0  0  0.26601  0.319525  0  1.059117  0
C  C30  1  0.11451789  0.83240401  0.82751634  1  0  0.133926  0  3.670681  0  0  0.102535  0  3.923188  0  0  0.109852  0  3.940959  0  0  0.046759  0.097515  0  3.911862  0
C  C31  1  0.88548199  0.16759443  0.17248428  1  0  0.133864  0  3.670748  0  0  0.102452  0  3.923253  0  0  0.10977  0  3.941023  0  0  0.046721  0.097431  0  3.91193  0
C  C32  1  0.13294838  0.86850437  0.92313489  1  0  -0.136003  0  3.678439  0  0  -0.157369  0  3.927607  0  0  -0.165047  0  3.948259  0  0  -0.074167  -0.15221  0  3.914255  0
C  C33  1  0.86705142  0.13149507  0.07686632  1  0  -0.136002  0  3.678387  0  0  -0.157348  0  3.927547  0  0  -0.16503  0  3.948202  0  0  -0.074161  -0.15219  0  3.914198  0
C  C34  1  0.04260605  0.81785977  0.05029523  1  0  0.083072  0  3.763712  0  0  0.094263  0  3.997003  0  0  0.100326  0  4.015771  0  0  0.024556  0.090283  0  3.984166  0
C  C35  1  0.95739484  0.18213968  0.94970477  1  0  0.083118  0  3.763682  0  0  0.094303  0  3.996976  0  0  0.100369  0  4.015741  0  0  0.024578  0.090326  0  3.984137  0
C  C36  1  0.93507172  0.73374728  0.07498563  1  0  -0.135004  0  3.68807  0  0  -0.155797  0  3.931257  0  0  -0.163062  0  3.951775  0  0  -0.079264  -0.151166  0  3.917559  0
C  C37  1  0.06492809  0.26625217  0.92501473  1  0  -0.13506  0  3.688097  0  0  -0.155858  0  3.931305  0  0  -0.163125  0  3.951821  0  0  -0.079284  -0.151227  0  3.917605  0
C  C38  1  0.92374266  0.70087857  0.97523181  1  0  0.121433  0  3.707261  0  0  0.092404  0  3.956123  0  0  0.099083  0  3.974134  0  0  0.041793  0.087789  0  3.944851  0
C  C39  1  0.07625830  0.29911987  0.02476846  1  0  0.121502  0  3.707188  0  0  0.092452  0  3.95605  0  0  0.099133  0  3.974061  0  0  0.041815  0.087839  0  3.944776  0
C  C40  1  0.05648261  0.84897687  0.15604555  1  0  0.217655  0  3.819932  0  0  0.20166  0  4.097615  0  0  0.205915  0  4.11564  0  0  0.203732  0.198766  0  4.085202  0
C  C41  1  0.94351720  0.15102258  0.84395481  1  0  0.217698  0  3.819899  0  0  0.201697  0  4.097589  0  0  0.205953  0  4.115612  0  0  0.203763  0.198803  0  4.085176  0
C  C42  1  0.72979201  0.46546023  0.29147941  1  0  0.125139  0  3.724431  0  0  0.092802  0  3.977388  0  0  0.100107  0  3.995506  0  0  0.041677  0.088014  0  3.965074  0
C  C43  1  0.27020678  0.53453820  0.70852242  1  0  0.125155  0  3.724543  0  0  0.092813  0  3.977515  0  0  0.100118  0  3.99563  0  0  0.041652  0.088025  0  3.965198  0
C  C44  1  0.62028183  0.56527818  0.31713287  1  0  -0.151203  0  3.683657  0  0  -0.168413  0  3.927532  0  0  -0.175911  0  3.947533  0  0  -0.081219  -0.163375  0  3.91402  0
C  C45  1  0.37972000  0.43472329  0.68286541  1  0  -0.15127  0  3.683776  0  0  -0.168502  0  3.92766  0  0  -0.176009  0  3.947678  0  0  -0.081249  -0.163467  0  3.914145  0
C  C46  1  0.60956114  0.62902042  0.40850411  1  0  0.080424  0  3.763349  0  0  0.094357  0  3.989539  0  0  0.099778  0  4.009125  0  0  0.025305  0.090662  0  3.97651  0
C  C47  1  0.39044076  0.37098005  0.59149443  1  0  0.080477  0  3.763315  0  0  0.094438  0  3.989485  0  0  0.099862  0  4.009067  0  0  0.025379  0.090745  0  3.976454  0
C  C48  1  0.70737599  0.58444173  0.47301911  1  0  -0.123672  0  3.681222  0  0  -0.148573  0  3.936527  0  0  -0.155399  0  3.954914  0  0  -0.070837  -0.144287  0  3.924554  0
C  C49  1  0.29262483  0.41555873  0.52698063  1  0  -0.123657  0  3.681178  0  0  -0.148527  0  3.936456  0  0  -0.155357  0  3.954845  0  0  -0.070827  -0.144245  0  3.924482  0
C  C50  1  0.81238022  0.48231290  0.44354688  1  0  0.15531  0  3.666414  0  0  0.116703  0  3.929704  0  0  0.125501  0  3.944948  0  0  0.057134  0.110883  0  3.919377  0
C  C51  1  0.18762067  0.51768655  0.55645312  1  0  0.155274  0  3.666436  0  0  0.116661  0  3.929724  0  0  0.12546  0  3.944967  0  0  0.057112  0.110842  0  3.919396  0
C  C52  1  0.49950464  0.73745979  0.43614986  1  0  0.234148  0  3.808242  0  0  0.2212  0  4.07326  0  0  0.225938  0  4.091608  0  0  0.203992  0.218055  0  4.060913  0
C  C53  1  0.50049618  0.26254066  0.56384819  1  0  0.23425  0  3.808165  0  0  0.221269  0  4.0732  0  0  0.226007  0  4.091546  0  0  0.203979  0.218124  0  4.060852  0
C  C54  1  0.40924763  0.14723908  0.06163172  1  0  0.124369  0  3.69674  0  0  0.098419  0  3.939281  0  0  0.104954  0  3.957838  0  0  0.043381  0.094201  0  3.927349  0
C  C55  1  0.59075095  0.85276238  0.93836848  1  0  0.124377  0  3.696697  0  0  0.09843  0  3.939232  0  0  0.104962  0  3.957789  0  0  0.043394  0.094208  0  3.927301  0
C  C56  1  0.51251637  0.23067405  0.96384072  1  0  -0.141409  0  3.679219  0  0  -0.160966  0  3.926863  0  0  -0.168382  0  3.946367  0  0  -0.078406  -0.156829  0  3.914173  0
C  C57  1  0.48748343  0.76932540  0.03616133  1  0  -0.141333  0  3.679217  0  0  -0.160878  0  3.926832  0  0  -0.168301  0  3.946352  0  0  -0.078389  -0.156746  0  3.914153  0
C  C58  1  0.57776478  0.31688688  0.99365933  1  0  0.077047  0  3.766482  0  0  0.089215  0  3.99791  0  0  0.094777  0  4.017516  0  0  0.021118  0.08516  0  3.98514  0
C  C59  1  0.42223379  0.68311458  0.00634171  1  0  0.077073  0  3.7665  0  0  0.089235  0  3.99796  0  0  0.094796  0  4.017567  0  0  0.021095  0.085179  0  3.98519  0
C  C60  1  0.53882442  0.31076877  0.12252068  1  0  -0.13603  0  3.691878  0  0  -0.158098  0  3.944  0  0  -0.165501  0  3.96493  0  0  -0.078673  -0.15311  0  3.930771  0
C  C61  1  0.46117639  0.68923169  0.87747906  1  0  -0.136022  0  3.691865  0  0  -0.158093  0  3.944014  0  0  -0.165495  0  3.964941  0  0  -0.07867  -0.153105  0  3.930782  0
C  C62  1  0.43683227  0.22283751  0.21500759  1  0  0.135822  0  3.690644  0  0  0.102007  0  3.943581  0  0  0.109512  0  3.960844  0  0  0.046467  0.097241  0  3.931545  0
C  C63  1  0.56316630  0.77716395  0.78499176  1  0  0.135785  0  3.690599  0  0  0.101974  0  3.943537  0  0  0.109479  0  3.960799  0  0  0.04644  0.09721  0  3.931495  0
C  C64  1  0.68239863  0.40917811  0.89276787  1  0  0.21922  0  3.823063  0  0  0.204083  0  4.096832  0  0  0.20867  0  4.114924  0  0  0.199857  0.201065  0  4.084455  0
C  C65  1  0.31759995  0.59082335  0.10723148  1  0  0.219219  0  3.823103  0  0  0.204053  0  4.096931  0  0  0.208642  0  4.115022  0  0  0.199874  0.201037  0  4.084555  0
N  N66  1  0.15549923  0.92711793  0.14610634  1  0  -0.272836  0  2.940206  0  0  -0.261655  0  3.219454  0  0  -0.268471  0  3.235926  0  0  -0.208554  -0.25655  0  3.207895  0
N  N67  1  0.84450050  0.07288253  0.85389291  1  0  -0.272948  0  2.940292  0  0  -0.261761  0  3.21955  0  0  -0.268578  0  3.236023  0  0  -0.208637  -0.256658  0  3.207993  0
N  N68  1  0.12499846  0.92675624  0.26602716  1  0  -0.131083  0  3.269589  0  0  -0.06745  0  3.580914  0  0  -0.0781  0  3.594284  0  0  -0.124674  -0.059999  0  3.571612  0
N  N69  1  0.87500019  0.07324421  0.73397246  1  0  -0.130927  0  3.269465  0  0  -0.067313  0  3.580805  0  0  -0.077964  0  3.594173  0  0  -0.124612  -0.05986  0  3.571499  0
N  N70  1  0.01242705  0.85205365  0.34581205  1  0  -0.074616  0  3.049011  0  0  -0.040232  0  3.317652  0  0  -0.042565  0  3.330603  0  0  -0.07634  -0.038444  0  3.308773  0
N  N71  1  0.98757268  0.14794681  0.65418804  1  0  -0.074676  0  3.048968  0  0  -0.040292  0  3.31763  0  0  -0.042624  0  3.330579  0  0  -0.076367  -0.038505  0  3.30875  0
N  N72  1  0.96760748  0.80205136  0.27896481  1  0  -0.258234  0  2.926211  0  0  -0.246721  0  3.201602  0  0  -0.253604  0  3.215673  0  0  -0.204646  -0.241735  0  3.191911  0
N  N73  1  0.03239334  0.19794910  0.72103409  1  0  -0.258248  0  2.926186  0  0  -0.246731  0  3.20158  0  0  -0.253614  0  3.215651  0  0  -0.204655  -0.241746  0  3.191889  0
N  N74  1  0.01232613  0.74884358  0.85294228  1  0  -0.340749  0  3.310612  0  0  -0.252268  0  3.589935  0  0  -0.271275  0  3.604271  0  0  -0.341054  -0.239519  0  3.580676  0
N  N75  1  0.98767274  0.25115384  0.14705981  1  0  -0.340777  0  3.31059  0  0  -0.252278  0  3.589913  0  0  -0.271285  0  3.604244  0  0  -0.341056  -0.23953  0  3.580656  0
N  N76  1  0.42325131  0.80456104  0.36093918  1  0  -0.274909  0  2.922649  0  0  -0.263338  0  3.191598  0  0  -0.269071  0  3.206219  0  0  -0.217433  -0.259349  0  3.181797  0
N  N77  1  0.57674850  0.19543841  0.63906034  1  0  -0.274975  0  2.922636  0  0  -0.263406  0  3.191593  0  0  -0.269139  0  3.206214  0  0  -0.217451  -0.259419  0  3.181791  0
N  N78  1  0.33460804  0.89131517  0.42304849  1  0  -0.154489  0  3.326389  0  0  -0.085361  0  3.649267  0  0  -0.097447  0  3.66166  0  0  -0.137077  -0.077045  0  3.640766  0
N  N79  1  0.66539177  0.10868427  0.57695102  1  0  -0.154474  0  3.326414  0  0  -0.085329  0  3.649281  0  0  -0.097417  0  3.661676  0  0  -0.137059  -0.07701  0  3.640772  0
N  N80  1  0.35505507  0.87889786  0.53144551  1  0  -0.080564  0  2.960126  0  0  -0.076203  0  3.251138  0  0  -0.074475  0  3.262349  0  0  -0.096478  -0.076987  0  3.243422  0
N  N81  1  0.64494582  0.12110159  0.46855365  1  0  -0.080565  0  2.960193  0  0  -0.076207  0  3.251203  0  0  -0.074479  0  3.262415  0  0  -0.096491  -0.076991  0  3.243488  0
N  N82  1  0.45903457  0.78256109  0.54121433  1  0  -0.288653  0  2.952944  0  0  -0.267414  0  3.238841  0  0  -0.276616  0  3.252233  0  0  -0.208689  -0.260842  0  3.229594  0
N  N83  1  0.54096733  0.21743937  0.45878506  1  0  -0.288676  0  2.952971  0  0  -0.267427  0  3.238875  0  0  -0.27663  0  3.252268  0  0  -0.208656  -0.260857  0  3.229629  0
N  N84  1  0.82584832  0.42480356  0.35239145  1  0  -0.349665  0  3.321385  0  0  -0.262049  0  3.604548  0  0  -0.281236  0  3.619143  0  0  -0.344434  -0.249133  0  3.594702  0
N  N85  1  0.17415358  0.57519690  0.64760794  1  0  -0.349643  0  3.321408  0  0  -0.262029  0  3.604574  0  0  -0.281215  0  3.61917  0  0  -0.344421  -0.249112  0  3.594725  0
N  N86  1  0.76162945  0.48730296  0.91025757  1  0  -0.287204  0  2.937312  0  0  -0.273702  0  3.211485  0  0  -0.280283  0  3.227647  0  0  -0.219592  -0.268958  0  3.20003  0
N  N87  1  0.23837021  0.51269850  0.08974227  1  0  -0.287237  0  2.93735  0  0  -0.273724  0  3.211536  0  0  -0.280306  0  3.227697  0  0  -0.219595  -0.26898  0  3.200081  0
N  N88  1  0.83875225  0.55387057  0.79131333  1  0  -0.160728  0  3.300827  0  0  -0.091487  0  3.613349  0  0  -0.102746  0  3.627665  0  0  -0.13272  -0.083219  0  3.603059  0
N  N89  1  0.16124748  0.44612989  0.20868676  1  0  -0.160645  0  3.300756  0  0  -0.091406  0  3.613275  0  0  -0.102667  0  3.627592  0  0  -0.132682  -0.083139  0  3.602986  0
N  N90  1  0.80863750  0.51861321  0.70515596  1  0  -0.094857  0  2.987136  0  0  -0.083986  0  3.280481  0  0  -0.084322  0  3.294158  0  0  -0.095905  -0.083543  0  3.270804  0
N  N91  1  0.19136224  0.48138725  0.29484330  1  0  -0.094843  0  2.987205  0  0  -0.083969  0  3.280543  0  0  -0.084304  0  3.294223  0  0  -0.095902  -0.083526  0  3.270867  0
N  N92  1  0.71043842  0.42777787  0.76703405  1  0  -0.273193  0  2.941246  0  0  -0.255559  0  3.230457  0  0  -0.26349  0  3.244683  0  0  -0.209795  -0.249402  0  3.220298  0
N  N93  1  0.28956124  0.57222360  0.23296579  1  0  -0.273279  0  2.941349  0  0  -0.255631  0  3.230562  0  0  -0.263561  0  3.244781  0  0  -0.209851  -0.249475  0  3.220404  0
N  N94  1  0.37104094  0.14350295  0.18541694  1  0  -0.340473  0  3.307807  0  0  -0.253906  0  3.583429  0  0  -0.272539  0  3.598163  0  0  -0.337817  -0.240705  0  3.573015  0
N  N95  1  0.62895771  0.85649750  0.81458267  1  0  -0.340476  0  3.307743  0  0  -0.253904  0  3.583363  0  0  -0.272538  0  3.598099  0  0  -0.337803  -0.2407  0  3.572944  0
O  O96  1  0.06485940  0.15417522  0.40238492  1  0  -0.933925  0  1.951196  0  0  -0.822891  0  2.283333  0  0  -0.851889  0  2.24213  0  0  -0.600996  -0.802542  0  2.311816  0
O  O97  1  0.93514149  0.84582423  0.59761508  1  0  -0.93402  0  1.951152  0  0  -0.822998  0  2.283299  0  0  -0.852004  0  2.242089  0  0  -0.60104  -0.802651  0  2.311781  0
