# generated using pymatgen
data_ZnH10C16(Cl2O3)2
_symmetry_space_group_name_H-M   'P 1'
_cell_length_a   4.72984170
_cell_length_b   10.40251780
_cell_length_c   18.79890119
_cell_angle_alpha   80.07358938
_cell_angle_beta   90.19871411
_cell_angle_gamma   83.12013221
_symmetry_Int_Tables_number   1
_chemical_formula_structural   ZnH10C16(Cl2O3)2
_chemical_formula_sum   'Zn2 H20 C32 Cl8 O12'
_cell_volume   904.26645576
_cell_formula_units_Z   2
loop_
 _symmetry_equiv_pos_site_id
 _symmetry_equiv_pos_as_xyz
  1  'x, y, z'
loop_
 _atom_site_type_symbol
 _atom_site_label
 _atom_site_symmetry_multiplicity
 _atom_site_fract_x
 _atom_site_fract_y
 _atom_site_fract_z
 _atom_site_occupancy
 _atom_site_hle17_bader_spin_density
 _atom_site_hle17_ddec_charge
 _atom_site_hle17_ddec_spin_density
 _atom_site_hle17_ddec_sum_bond_order
 _atom_site_hle17_magmom
 _atom_site_hse06_10hf_bader_spin_density
 _atom_site_hse06_10hf_ddec_charge
 _atom_site_hse06_10hf_ddec_spin_density
 _atom_site_hse06_10hf_ddec_sum_bond_order
 _atom_site_hse06_10hf_magmom
 _atom_site_hse06_bader_spin_density
 _atom_site_hse06_ddec_charge
 _atom_site_hse06_ddec_spin_density
 _atom_site_hse06_ddec_sum_bond_order
 _atom_site_hse06_magmom
 _atom_site_pbe_bader_spin_density
 _atom_site_pbe_cm5_charge
 _atom_site_pbe_ddec_charge
 _atom_site_pbe_ddec_spin_density
 _atom_site_pbe_ddec_sum_bond_order
 _atom_site_pbe_magmom
Zn  Zn0  1  0.67423910  0.53526072  0.41235755  1  0  1.17942  0  1.735314  0  0  1.005437  0  2.220121  0  0  1.056851  0  2.152348  0  0  0.706919  0.969223  0  2.266956  0
Zn  Zn1  1  0.32576187  0.46473876  0.58764083  1  0  1.179307  0  1.735669  0  0  1.005246  0  2.220526  0  0  1.056657  0  2.15276  0  0  0.706801  0.969025  0  2.267361  0
H  H2  1  0.01198448  0.87350310  0.49047115  1  0  0.108524  0  0.91429  0  0  0.118443  0  0.974002  0  0  0.120621  0  0.972513  0  0  0.116257  0.116868  0  0.975196  0
H  H3  1  0.98800175  0.12649641  0.50953308  1  0  0.108462  0  0.914451  0  0  0.118389  0  0.97415  0  0  0.120557  0  0.972673  0  0  0.116247  0.116821  0  0.975336  0
H  H4  1  0.32405201  0.89576995  0.53817872  1  0  0.109238  0  0.961814  0  0  0.108843  0  1.042098  0  0  0.11207  0  1.039323  0  0  0.110709  0.10657  0  1.044106  0
H  H5  1  0.67594025  0.10423051  0.46182116  1  0  0.109278  0  0.961881  0  0  0.108871  0  1.042155  0  0  0.112098  0  1.03938  0  0  0.110718  0.106601  0  1.044168  0
H  H6  1  0.19317363  0.17451134  0.20020505  1  0  0.136017  0  0.942338  0  0  0.138627  0  1.014161  0  0  0.142849  0  1.010642  0  0  0.103213  0.135703  0  1.016522  0
H  H7  1  0.80683446  0.82549306  0.79979285  1  0  0.13599  0  0.942254  0  0  0.138589  0  1.014098  0  0  0.142809  0  1.010584  0  0  0.103184  0.135666  0  1.016462  0
H  H8  1  0.96830930  0.80393527  0.38791155  1  0  0.115227  0  0.978597  0  0  0.124325  0  1.043602  0  0  0.127358  0  1.04198  0  0  0.1026  0.122055  0  1.045083  0
H  H9  1  0.03169189  0.19606318  0.61208321  1  0  0.115314  0  0.978471  0  0  0.12444  0  1.043457  0  0  0.127474  0  1.041831  0  0  0.102635  0.122172  0  1.044933  0
H  H10  1  0.75367641  0.83416651  0.26589413  1  0  0.111671  0  0.929675  0  0  0.125114  0  0.984916  0  0  0.128126  0  0.983496  0  0  0.104903  0.123024  0  0.985857  0
H  H11  1  0.24631923  0.16583685  0.73410014  1  0  0.111732  0  0.929747  0  0  0.125156  0  0.984994  0  0  0.128165  0  0.983579  0  0  0.104956  0.123064  0  0.985938  0
H  H12  1  0.93050132  0.41509855  0.27635312  1  0  0.1213  0  0.902414  0  0  0.1307  0  0.962536  0  0  0.133027  0  0.960692  0  0  0.120686  0.129014  0  0.964064  0
H  H13  1  0.06949832  0.58489796  0.72364502  1  0  0.121287  0  0.9024  0  0  0.130714  0  0.962498  0  0  0.13304  0  0.960659  0  0  0.120707  0.129022  0  0.964025  0
H  H14  1  0.88857793  0.58273807  0.23738846  1  0  0.101771  0  0.93083  0  0  0.110253  0  0.997569  0  0  0.11169  0  0.997157  0  0  0.113277  0.109201  0  0.998078  0
H  H15  1  0.11142594  0.41725845  0.76260969  1  0  0.101797  0  0.930817  0  0  0.110337  0  0.997476  0  0  0.111777  0  0.997064  0  0  0.113308  0.109277  0  0.997993  0
H  H16  1  0.35135295  0.88533508  0.10173954  1  0  0.100368  0  0.983694  0  0  0.102956  0  1.05954  0  0  0.106548  0  1.056657  0  0  0.086164  0.100453  0  1.061419  0
H  H17  1  0.64864597  0.11466446  0.89826575  1  0  0.10038  0  0.983673  0  0  0.102937  0  1.059582  0  0  0.106549  0  1.056662  0  0  0.086149  0.10042  0  1.061474  0
H  H18  1  0.83841626  0.56250803  0.02458962  1  0  0.122835  0  0.942649  0  0  0.133451  0  1.002994  0  0  0.136647  0  1.000923  0  0  0.103677  0.131142  0  1.00456  0
H  H19  1  0.16159030  0.43749444  0.97541325  1  0  0.122861  0  0.942538  0  0  0.133431  0  1.002947  0  0  0.13666  0  1.000834  0  0  0.103675  0.13112  0  1.004521  0
H  H20  1  0.13198803  0.73006900  0.19186041  1  0  0.098397  0  0.982305  0  0  0.10755  0  1.048775  0  0  0.109923  0  1.048503  0  0  0.095327  0.105807  0  1.049218  0
H  H21  1  0.86801431  0.26992561  0.80814377  1  0  0.09839  0  0.982342  0  0  0.107601  0  1.048735  0  0  0.109973  0  1.048466  0  0  0.095339  0.105854  0  1.049176  0
C  C22  1  0.24557733  0.86843569  0.48840805  1  0  -0.087992  0  3.617827  0  0  -0.139042  0  3.873332  0  0  -0.138004  0  3.874676  0  0  -0.067241  -0.139885  0  3.872537  0
C  C23  1  0.75441520  0.13156380  0.51159246  1  0  -0.088114  0  3.617988  0  0  -0.139129  0  3.873396  0  0  -0.138078  0  3.874741  0  0  -0.067238  -0.139964  0  3.872626  0
C  C24  1  0.36599183  0.72560759  0.48906721  1  0  0.713015  0  3.835219  0  0  0.656316  0  4.1381  0  0  0.691753  0  4.129381  0  0  0.229733  0.632107  0  4.143391  0
C  C25  1  0.63401494  0.27439386  0.51093098  1  0  0.713661  0  3.834569  0  0  0.65682  0  4.137615  0  0  0.692259  0  4.128885  0  0  0.229885  0.632589  0  4.14295  0
C  C26  1  0.26365251  0.07602955  0.31042706  1  0  0.043816  0  3.791945  0  0  0.051791  0  4.063611  0  0  0.051997  0  4.084211  0  0  0.002236  0.051359  0  4.049779  0
C  C27  1  0.73634315  0.92397383  0.68956881  1  0  0.04368  0  3.792046  0  0  0.051733  0  4.063622  0  0  0.051938  0  4.084218  0  0  0.002231  0.051305  0  4.049787  0
C  C28  1  0.20607627  0.97107674  0.36433126  1  0  0.199393  0  3.809683  0  0  0.182344  0  4.075843  0  0  0.191557  0  4.092582  0  0  0.071361  0.175798  0  4.064717  0
C  C29  1  0.79391597  0.02892370  0.63566649  1  0  0.199423  0  3.809731  0  0  0.182258  0  4.075972  0  0  0.191484  0  4.092698  0  0  0.071278  0.175705  0  4.064854  0
C  C30  1  0.14615764  0.09250438  0.24096388  1  0  -0.179213  0  3.76187  0  0  -0.215117  0  4.023242  0  0  -0.21641  0  4.04202  0  0  -0.104721  -0.213721  0  4.010052  0
C  C31  1  0.85382854  0.90750296  0.75903479  1  0  -0.179072  0  3.761565  0  0  -0.215011  0  4.023013  0  0  -0.216301  0  4.041791  0  0  -0.104675  -0.213621  0  4.009825  0
C  C32  1  0.02234651  0.88448804  0.34738793  1  0  -0.16689  0  3.760504  0  0  -0.191414  0  4.023915  0  0  -0.1954  0  4.043559  0  0  -0.111403  -0.18896  0  4.011231  0
C  C33  1  0.97764043  0.11551631  0.65260732  1  0  -0.167136  0  3.760442  0  0  -0.191704  0  4.023903  0  0  -0.195689  0  4.043536  0  0  -0.11157  -0.189253  0  4.011231  0
C  C34  1  0.96495516  0.00390964  0.22536273  1  0  0.126657  0  3.821727  0  0  0.137242  0  4.091823  0  0  0.13905  0  4.113802  0  0  0.000733  0.135685  0  4.076644  0
C  C35  1  0.03503495  0.99609866  0.77463372  1  0  0.126726  0  3.821456  0  0  0.137262  0  4.091619  0  0  0.139066  0  4.1136  0  0  0.000718  0.135709  0  4.076438  0
C  C36  1  0.90081282  0.90077479  0.27824707  1  0  -0.117889  0  3.777261  0  0  -0.143438  0  4.035576  0  0  -0.143939  0  4.054667  0  0  -0.103369  -0.142672  0  4.022564  0
C  C37  1  0.09917966  0.09923251  0.72174788  1  0  -0.11781  0  3.777109  0  0  -0.143312  0  4.035422  0  0  -0.143816  0  4.054522  0  0  -0.103291  -0.142534  0  4.022374  0
C  C38  1  0.20504464  0.52749818  0.32421444  1  0  0.695786  0  3.81755  0  0  0.640294  0  4.119032  0  0  0.674898  0  4.11182  0  0  0.223343  0.616316  0  4.123849  0
C  C39  1  0.79496135  0.47249834  0.67578423  1  0  0.695778  0  3.817699  0  0  0.640232  0  4.119289  0  0  0.674842  0  4.112083  0  0  0.223188  0.616245  0  4.124109  0
C  C40  1  0.04902461  0.49904838  0.25862943  1  0  -0.085614  0  3.652185  0  0  -0.139615  0  3.91338  0  0  -0.137574  0  3.914858  0  0  -0.064197  -0.141206  0  3.912663  0
C  C41  1  0.95097767  0.50094617  0.74136891  1  0  -0.085721  0  3.652224  0  0  -0.139779  0  3.913542  0  0  -0.137717  0  3.914963  0  0  -0.064266  -0.141359  0  3.912802  0
C  C42  1  0.35319755  0.55584755  0.15916061  1  0  0.209589  0  3.798723  0  0  0.193068  0  4.06178  0  0  0.20343  0  4.077374  0  0  0.071551  0.185988  0  4.051141  0
C  C43  1  0.64681241  0.44414997  0.84083903  1  0  0.209799  0  3.798363  0  0  0.193259  0  4.061531  0  0  0.203634  0  4.077121  0  0  0.071645  0.186178  0  4.050888  0
C  C44  1  0.55656707  0.51045865  0.11166079  1  0  0.049542  0  3.772017  0  0  0.06029  0  4.039518  0  0  0.060468  0  4.059043  0  0  -0.000472  0.059882  0  4.026453  0
C  C45  1  0.44344025  0.48954084  0.88833919  1  0  0.049427  0  3.771788  0  0  0.060154  0  4.039343  0  0  0.060309  0  4.058907  0  0  -0.000492  0.059752  0  4.026275  0
C  C46  1  0.60815615  0.73362302  0.05765959  1  0  0.131552  0  3.82637  0  0  0.142838  0  4.096342  0  0  0.14441  0  4.118026  0  0  -0.003532  0.141475  0  4.081765  0
C  C47  1  0.39185542  0.26637650  0.94234251  1  0  0.131295  0  3.826505  0  0  0.142618  0  4.096434  0  0  0.144179  0  4.118142  0  0  -0.003589  0.141256  0  4.081861  0
C  C48  1  0.41014340  0.78032340  0.10465700  1  0  -0.119898  0  3.801016  0  0  -0.148031  0  4.06261  0  0  -0.147679  0  4.08127  0  0  -0.108757  -0.148056  0  4.049683  0
C  C49  1  0.58986792  0.21967712  0.89534660  1  0  -0.119679  0  3.801182  0  0  -0.147783  0  4.06268  0  0  -0.147434  0  4.08134  0  0  -0.108651  -0.147797  0  4.049767  0
C  C50  1  0.68289227  0.59874776  0.06111155  1  0  -0.172824  0  3.763851  0  0  -0.207084  0  4.017644  0  0  -0.20835  0  4.037597  0  0  -0.105158  -0.206046  0  4.004215  0
C  C51  1  0.31711746  0.40125079  0.93889171  1  0  -0.172743  0  3.763605  0  0  -0.206951  0  4.017379  0  0  -0.20824  0  4.037342  0  0  -0.105145  -0.205921  0  4.003968  0
C  C52  1  0.28518457  0.69139731  0.15545379  1  0  -0.172269  0  3.771227  0  0  -0.190657  0  4.02784  0  0  -0.195664  0  4.04824  0  0  -0.114159  -0.187448  0  4.014243  0
C  C53  1  0.71482015  0.30859631  0.84454996  1  0  -0.172465  0  3.771379  0  0  -0.190878  0  4.028015  0  0  -0.195894  0  4.048422  0  0  -0.114254  -0.187658  0  4.014396  0
Cl  Cl54  1  0.47661827  0.18907226  0.33098578  1  0  -0.045808  0  1.417321  0  0  -0.026327  0  1.65748  0  0  -0.029748  0  1.653665  0  0  0.025343  -0.023838  0  1.660333  0
Cl  Cl55  1  0.52339856  0.81092330  0.66901352  1  0  -0.045786  0  1.417329  0  0  -0.026319  0  1.65747  0  0  -0.029743  0  1.653652  0  0  0.025319  -0.023846  0  1.660323  0
Cl  Cl56  1  0.81555368  0.02298600  0.13954915  1  0  -0.067901  0  1.461779  0  0  -0.045449  0  1.722973  0  0  -0.050542  0  1.719477  0  0  0.019266  -0.041471  0  1.724837  0
Cl  Cl57  1  0.18444755  0.97702035  0.86044802  1  0  -0.067985  0  1.461725  0  0  -0.045486  0  1.72291  0  0  -0.050584  0  1.719417  0  0  0.019278  -0.041519  0  1.724767  0
Cl  Cl58  1  0.65063213  0.34381931  0.11651594  1  0  -0.073256  0  1.448258  0  0  -0.066664  0  1.702245  0  0  -0.068482  0  1.696872  0  0  0.00145  -0.065491  0  1.705762  0
Cl  Cl59  1  0.34936749  0.65618505  0.88347983  1  0  -0.073241  0  1.448178  0  0  -0.066617  0  1.702142  0  0  -0.06843  0  1.696782  0  0  0.001454  -0.065446  0  1.705657  0
Cl  Cl60  1  0.76608967  0.84169101  0.99417075  1  0  -0.109197  0  1.42864  0  0  -0.09986  0  1.680357  0  0  -0.103279  0  1.676948  0  0  -0.017566  -0.09742  0  1.682717  0
Cl  Cl61  1  0.23391238  0.15831243  0.00583043  1  0  -0.109146  0  1.428638  0  0  -0.099825  0  1.680355  0  0  -0.103242  0  1.676954  0  0  -0.017573  -0.097384  0  1.682717  0
O  O62  1  0.56746562  0.69995807  0.44728978  1  0  -0.631713  0  2.095066  0  0  -0.55436  0  2.37187  0  0  -0.583347  0  2.353474  0  0  -0.304978  -0.534263  0  2.38386  0
O  O63  1  0.43252918  0.30003371  0.55272638  1  0  -0.632189  0  2.094292  0  0  -0.554667  0  2.371076  0  0  -0.583663  0  2.352683  0  0  -0.305152  -0.534552  0  2.383073  0
O  O64  1  0.33366256  0.96183787  0.43091618  1  0  -0.247263  0  2.381517  0  0  -0.182725  0  2.621133  0  0  -0.198778  0  2.624482  0  0  -0.180635  -0.171334  0  2.618445  0
O  O65  1  0.66632968  0.03816257  0.56908104  1  0  -0.247197  0  2.381495  0  0  -0.182559  0  2.621056  0  0  -0.198631  0  2.62441  0  0  -0.180555  -0.171181  0  2.618382  0
O  O66  1  0.47400897  0.52482018  0.32150982  1  0  -0.628559  0  2.100664  0  0  -0.555629  0  2.376873  0  0  -0.586402  0  2.363348  0  0  -0.302203  -0.534013  0  2.385704  0
O  O67  1  0.52599040  0.47517731  0.67848716  1  0  -0.628526  0  2.100611  0  0  -0.555594  0  2.3769  0  0  -0.586361  0  2.363346  0  0  -0.302177  -0.533988  0  2.385744  0
O  O68  1  0.23401238  0.46116669  0.20490344  1  0  -0.249943  0  2.426697  0  0  -0.189648  0  2.670502  0  0  -0.20606  0  2.674418  0  0  -0.180314  -0.178061  0  2.667548  0
O  O69  1  0.76599071  0.53882492  0.79509625  1  0  -0.249982  0  2.426698  0  0  -0.189755  0  2.670609  0  0  -0.206173  0  2.674527  0  0  -0.180382  -0.178165  0  2.667642  0
O  O70  1  0.06914104  0.55128467  0.37981708  1  0  -0.660926  0  2.071866  0  0  -0.586299  0  2.354435  0  0  -0.616183  0  2.336466  0  0  -0.321129  -0.565191  0  2.366422  0
O  O71  1  0.93086679  0.44871284  0.62018150  1  0  -0.660814  0  2.071999  0  0  -0.586151  0  2.354617  0  0  -0.616042  0  2.336652  0  0  -0.321004  -0.565053  0  2.366611  0
O  O72  1  0.24946468  0.64440894  0.53434966  1  0  -0.65694  0  2.103689  0  0  -0.58847  0  2.394907  0  0  -0.617382  0  2.374711  0  0  -0.31883  -0.56851  0  2.408342  0
O  O73  1  0.75049623  0.35559060  0.46565988  1  0  -0.657006  0  2.10401  0  0  -0.588579  0  2.395359  0  0  -0.617479  0  2.375148  0  0  -0.318786  -0.568624  0  2.408824  0
