# generated using pymatgen
data_ZnH31C31NO8
_symmetry_space_group_name_H-M   'P 1'
_cell_length_a   10.66747565
_cell_length_b   18.30725453
_cell_length_c   19.48846871
_cell_angle_alpha   89.97909923
_cell_angle_beta   88.67188148
_cell_angle_gamma   89.37302769
_symmetry_Int_Tables_number   1
_chemical_formula_structural   ZnH31C31NO8
_chemical_formula_sum   'Zn2 H62 C62 N2 O16'
_cell_volume   3804.69549349
_cell_formula_units_Z   2
loop_
 _symmetry_equiv_pos_site_id
 _symmetry_equiv_pos_as_xyz
  1  'x, y, z'
loop_
 _atom_site_type_symbol
 _atom_site_label
 _atom_site_symmetry_multiplicity
 _atom_site_fract_x
 _atom_site_fract_y
 _atom_site_fract_z
 _atom_site_occupancy
 _atom_site_pbe_bader_charge
 _atom_site_pbe_bader_spin_density
 _atom_site_pbe_cm5_charge
 _atom_site_pbe_ddec_charge
 _atom_site_pbe_ddec_spin_density
 _atom_site_pbe_ddec_sum_bond_order
 _atom_site_pbe_magmom
Zn  Zn0  1  0.50147553  0.41854747  0.50025424  1  1.300185  0  0.663448  0.816614  0  2.440229  0
Zn  Zn1  1  0.50670979  0.57256508  0.50071639  1  1.270922  0  0.666568  0.817687  0  2.446935  0
H  H2  1  0.95622470  0.57799343  0.39822949  1  0.04404  0  0.092021  0.075998  0  1.003076  0
H  H3  1  0.48761654  0.38322971  0.72005469  1  0.114146  0  0.097161  0.107228  0  1.063534  0
H  H4  1  0.29097163  0.47750544  0.92964043  1  0.042765  0  0.098165  0.098303  0  0.998342  0
H  H5  1  0.65075294  0.54778770  0.07160291  1  0.048659  0  0.097612  0.098625  0  0.99798  0
H  H6  1  0.26910161  0.47765376  0.05683857  1  0.050162  0  0.097879  0.098482  0  0.996679  0
H  H7  1  0.67284113  0.54742610  0.94439666  1  0.053595  0  0.097746  0.098568  0  1.000073  0
H  H8  1  0.49203018  0.30178596  0.60564414  1  0.148679  0  0.124726  0.104009  0  0.996633  0
H  H9  1  0.31910875  0.68999634  0.52097708  1  0.155588  0  0.12454  0.103356  0  1.005083  0
H  H10  1  0.50896672  0.30338980  0.39400202  1  0.116334  0  0.124528  0.103914  0  0.996907  0
H  H11  1  0.69971052  0.68660210  0.47798354  1  0.13817  0  0.125574  0.105066  0  0.991673  0
H  H12  1  0.49339651  0.16445261  0.60969755  1  0.126105  0  0.111746  0.123294  0  0.992206  0
H  H13  1  0.05179797  0.42638322  0.59871776  1  0.074154  0  0.093714  0.07749  0  0.999018  0
H  H14  1  0.31047764  0.82757072  0.51952031  1  0.058276  0  0.112588  0.123843  0  0.988591  0
H  H15  1  0.51183861  0.16611732  0.38811474  1  0.095538  0  0.11177  0.123207  0  0.990982  0
H  H16  1  0.70937600  0.82407063  0.47621639  1  0.133672  0  0.112706  0.124591  0  0.988908  0
H  H17  1  0.49903366  0.70760202  0.77254992  1  0.054407  0  0.097441  0.055631  0  0.966746  0
H  H18  1  0.66289433  0.69105043  0.78197011  1  0.051848  0  0.097011  0.053996  0  0.969744  0
H  H19  1  0.65128507  0.74904298  0.89944549  1  0.02683  0  0.093944  0.128139  0  0.991703  0
H  H20  1  0.59838242  0.81121753  0.83558389  1  0.007495  0  0.086211  0.110618  0  1.021512  0
H  H21  1  0.48786227  0.76546845  0.88997979  1  0.035943  0  0.094288  0.129253  0  0.990427  0
H  H22  1  0.36374570  0.30038221  0.20456648  1  0.028904  0  0.095687  0.051851  0  0.968289  0
H  H23  1  0.53081044  0.30380816  0.19820872  1  0.04761  0  0.096721  0.053748  0  0.96577  0
H  H24  1  0.13014414  0.45833883  0.40019406  1  0.055701  0  0.096571  0.086313  0  0.99306  0
H  H25  1  0.52200146  0.26377866  0.07426166  1  0.028644  0  0.094752  0.129056  0  0.994301  0
H  H26  1  0.45131606  0.19832104  0.13046468  1  0.016467  0  0.0889  0.116387  0  1.006032  0
H  H27  1  0.35569934  0.25875289  0.08184768  1  0.052066  0  0.093253  0.127068  0  0.995075  0
H  H28  1  0.55384243  0.69577916  0.23073820  1  0.036029  0  0.098215  0.056777  0  0.969374  0
H  H29  1  0.38881888  0.71048102  0.22494955  1  0.057296  0  0.096027  0.052703  0  0.973262  0
H  H30  1  0.42457649  0.76748500  0.10726801  1  0.036529  0  0.094018  0.128662  0  0.991709  0
H  H31  1  0.50516067  0.81533096  0.17242002  1  0.011051  0  0.087034  0.112825  0  1.013259  0
H  H32  1  0.58906514  0.75465878  0.11604751  1  0.059321  0  0.093733  0.128141  0  0.991928  0
H  H33  1  0.51808325  0.29363737  0.80116892  1  0.017469  0  0.095705  0.051856  0  0.967337  0
H  H34  1  0.35773990  0.31855826  0.78932046  1  0.027395  0  0.097547  0.054838  0  0.967272  0
H  H35  1  0.87689120  0.54566144  0.59681891  1  0.059476  0  0.096267  0.085596  0  0.99415  0
H  H36  1  0.30465878  0.27921599  0.91000035  1  0.051301  0  0.093941  0.127482  0  0.992644  0
H  H37  1  0.37555182  0.20582476  0.86251825  1  0.01436  0  0.089126  0.116083  0  1.005758  0
H  H38  1  0.46449334  0.25533945  0.92304564  1  0.026145  0  0.093222  0.127094  0  0.997956  0
H  H39  1  0.22523707  0.11423674  0.49012968  1  0.02284  0  0.094188  0.050774  0  0.977836  0
H  H40  1  0.17563694  0.02926752  0.45455934  1  0.051483  0  0.095976  0.056303  0  0.981132  0
H  H41  1  0.13596681  0.09248025  0.34202461  1  0.009327  0  0.092996  0.12567  0  0.992302  0
H  H42  1  0.04719551  0.13490652  0.40978822  1  0.0227  0  0.094894  0.126007  0  0.99697  0
H  H43  1  0.18630102  0.17677677  0.37755421  1  0.057641  0  0.096174  0.131842  0  0.988279  0
H  H44  1  0.55844204  0.87250638  0.64487790  1  0.033509  0  0.094917  0.052465  0  0.976907  0
H  H45  1  0.62429989  0.95718476  0.67169637  1  0.040555  0  0.097106  0.056788  0  0.978366  0
H  H46  1  0.94618230  0.37505026  0.47428025  1  0.056779  0  0.090278  0.075077  0  1.005619  0
H  H47  1  0.83678976  0.89585433  0.67806229  1  0.035024  0  0.093266  0.126515  0  0.991455  0
H  H48  1  0.72534915  0.85070115  0.73207838  1  0.029926  0  0.094126  0.124764  0  1.010515  0
H  H49  1  0.77033712  0.81176818  0.65141450  1  0.043655  0  0.095543  0.130499  0  0.990692  0
H  H50  1  0.78463099  0.11475925  0.50800729  1  0.038775  0  0.094722  0.051217  0  0.977577  0
H  H51  1  0.83807632  0.03027349  0.54420611  1  0.051964  0  0.096069  0.056155  0  0.98215  0
H  H52  1  0.86861634  0.09399395  0.65734092  1  0.037422  0  0.093047  0.125616  0  0.993341  0
H  H53  1  0.95793678  0.13694483  0.59066315  1  0.028128  0  0.094979  0.126194  0  0.9961  0
H  H54  1  0.81493903  0.17777368  0.62086617  1  0.009452  0  0.097013  0.1333  0  0.987078  0
H  H55  1  0.46758277  0.87300133  0.35144806  1  0.033162  0  0.094599  0.051554  0  0.979268  0
H  H56  1  0.39620169  0.95603409  0.32220128  1  0.053894  0  0.096587  0.057249  0  0.974187  0
H  H57  1  0.06036189  0.62934054  0.52312954  1  0.040624  0  0.087249  0.068536  0  1.013467  0
H  H58  1  0.18886250  0.89125730  0.31509564  1  0.039366  0  0.093366  0.126987  0  0.991151  0
H  H59  1  0.30567050  0.84737544  0.26252239  1  0.048571  0  0.094876  0.126347  0  1.005837  0
H  H60  1  0.26173727  0.80873099  0.34332137  1  0.052829  0  0.095677  0.131115  0  0.991119  0
H  H61  1  0.57047386  0.61044941  0.70933919  1  0.083655  0  0.09874  0.11335  0  1.051907  0
H  H62  1  0.43888444  0.38155703  0.27975619  1  0.099207  0  0.096599  0.1061  0  1.060362  0
H  H63  1  0.45773901  0.61370669  0.29466577  1  0.059073  0  0.099577  0.115062  0  1.050202  0
C  C64  1  0.45653189  0.49240633  0.36918100  1  1.587435  0  0.21253  0.59437  0  4.159095  0
C  C65  1  0.40236783  0.72280157  0.51101878  1  0.397771  0  0.054043  0.097035  0  3.923519  0
C  C66  1  0.50584060  0.26961465  0.44010678  1  0.456291  0  0.054936  0.097888  0  3.923342  0
C  C67  1  0.61664827  0.72087233  0.48724550  1  0.491702  0  0.054836  0.097802  0  3.926493  0
C  C68  1  0.49698187  0.19289168  0.56069904  1  -0.039233  0  -0.082862  -0.182119  0  3.957345  0
C  C69  1  0.39884074  0.79863703  0.51022584  1  0.122073  0  -0.082157  -0.179837  0  3.953926  0
C  C70  1  0.50724333  0.19379873  0.43749024  1  0.005337  0  -0.082366  -0.180847  0  3.95392  0
C  C71  1  0.62075809  0.79669779  0.48608251  1  -0.055679  0  -0.082365  -0.182278  0  3.956639  0
C  C72  1  0.50293305  0.15366307  0.49884119  1  -0.049733  0  0.013006  0.141392  0  3.99623  0
C  C73  1  0.50992831  0.83725078  0.49767719  1  -0.056749  0  0.012877  0.140119  0  4.000182  0
C  C74  1  0.42298012  0.03382159  0.45654705  1  0.463789  0  0.070923  0.103521  0  4.08292  0
C  C75  1  0.54017126  0.49141756  0.63247063  1  1.55963  0  0.211666  0.59378  0  4.158975  0
C  C76  1  0.59397973  0.95701477  0.53740674  1  0.566747  0  0.07058  0.103603  0  4.08571  0
C  C77  1  0.58956321  0.03368586  0.53938504  1  0.490009  0  0.071433  0.104966  0  4.081601  0
C  C78  1  0.42311398  0.95714350  0.45731471  1  0.574317  0  0.070516  0.103504  0  4.085647  0
C  C79  1  0.50944837  0.91793742  0.49722876  1  -0.042936  0  -0.021184  -0.121082  0  4.028208  0
C  C80  1  0.50507411  0.07298233  0.49830243  1  0.064529  0  -0.020625  -0.118811  0  4.020027  0
C  C81  1  0.26447952  0.50531925  0.52183902  1  1.584741  0  0.211299  0.594606  0  4.192363  0
C  C82  1  0.74295166  0.49683300  0.47693635  1  1.545565  0  0.210812  0.593948  0  4.195972  0
C  C83  1  0.07136955  0.47758441  0.44339646  1  -0.023985  0  -0.074612  -0.061756  0  3.625416  0
C  C84  1  0.93614335  0.52658739  0.55369947  1  -0.03702  0  -0.072973  -0.061915  0  3.620441  0
C  C85  1  0.97342319  0.43120165  0.48518183  1  -0.036346  0  -0.082724  -0.070817  0  3.659879  0
C  C86  1  0.36994542  0.49306247  0.96081463  1  0.032878  0  -0.094089  -0.127568  0  3.999749  0
C  C87  1  0.03409197  0.57303078  0.51194179  1  -0.023579  0  -0.085578  -0.074979  0  3.667511  0
C  C88  1  0.97873216  0.54466763  0.44301993  1  -0.033735  0  -0.080056  -0.070329  0  3.652593  0
C  C89  1  0.02864758  0.45958299  0.55396913  1  -0.031295  0  -0.076328  -0.063234  0  3.641362  0
C  C90  1  0.88068783  0.49769921  0.48425386  1  0.021046  0  -0.009809  -0.026722  0  3.667077  0
C  C91  1  0.12701104  0.50650028  0.51242619  1  -0.014444  0  -0.009183  -0.025166  0  3.659942  0
C  C92  1  0.54780538  0.56361026  0.74138750  1  -0.015246  0  -0.123807  -0.274086  0  4.03545  0
C  C93  1  0.44183935  0.43380400  0.25332259  1  0.068206  0  -0.125082  -0.275917  0  4.047126  0
C  C94  1  0.45370192  0.56607771  0.26157170  1  -0.019882  0  -0.123988  -0.272027  0  4.033393  0
C  C95  1  0.49968666  0.43429719  0.74732676  1  -0.082373  0  -0.125536  -0.275936  0  4.045651  0
C  C96  1  0.53273989  0.56853137  0.81269790  1  0.444164  0  0.079982  0.222276  0  4.072418  0
C  C97  1  0.57158057  0.53277224  0.04032680  1  0.037089  0  -0.094793  -0.13114  0  4.00093  0
C  C98  1  0.44137542  0.43941811  0.18177918  1  0.410509  0  0.07964  0.220799  0  4.07737  0
C  C99  1  0.45636718  0.57092527  0.18997710  1  0.423547  0  0.079151  0.21979  0  4.079094  0
C  C100  1  0.48353049  0.43992963  0.81847708  1  0.493226  0  0.079918  0.222088  0  4.073422  0
C  C101  1  0.49978990  0.50705399  0.85268928  1  0.005758  0  -0.025104  -0.140078  0  3.964242  0
C  C102  1  0.45005035  0.50784756  0.14876764  1  0.060597  0  -0.024248  -0.138466  0  3.967066  0
C  C103  1  0.53085644  0.49638271  0.70916432  1  -0.0087  0  -0.02446  0.020209  0  4.023831  0
C  C104  1  0.44851001  0.49737637  0.29266478  1  -0.046958  0  -0.024443  0.017634  0  4.029719  0
C  C105  1  0.57272594  0.69761929  0.81046039  1  0.394309  0  -0.065331  0.089491  0  3.935609  0
C  C106  1  0.57788370  0.75947547  0.86197020  1  -0.014296  0  -0.242905  -0.395827  0  3.990797  0
C  C107  1  0.44396981  0.30880044  0.16866787  1  0.429738  0  -0.064715  0.0934  0  3.932627  0
C  C108  1  0.35764517  0.49317909  0.03211413  1  -0.057659  0  -0.094271  -0.129649  0  3.998556  0
C  C109  1  0.44315504  0.25418228  0.11025487  1  -0.052381  0  -0.243268  -0.398599  0  3.991595  0
C  C110  1  0.47627846  0.70132988  0.19448898  1  0.409751  0  -0.065599  0.089221  0  3.93375  0
C  C111  1  0.50005674  0.76332889  0.14448393  1  -0.058839  0  -0.243296  -0.397565  0  3.99435  0
C  C112  1  0.43134955  0.31273529  0.82794659  1  0.443712  0  -0.064625  0.092535  0  3.935356  0
C  C113  1  0.39171773  0.26017608  0.88431144  1  -0.028663  0  -0.242719  -0.396064  0  3.989384  0
C  C114  1  0.21762771  0.08260447  0.44220353  1  0.395867  0  -0.066099  0.090213  0  3.90699  0
C  C115  1  0.14271885  0.12409382  0.38965788  1  -0.017366  0  -0.24054  -0.39182  0  3.976365  0
C  C116  1  0.64494577  0.90504665  0.64525995  1  0.414865  0  -0.065662  0.092212  0  3.904088  0
C  C117  1  0.75076232  0.86341071  0.67845087  1  -0.043107  0  -0.241522  -0.392889  0  3.975513  0
C  C118  1  0.79232047  0.08323901  0.55604428  1  0.393007  0  -0.066498  0.089732  0  3.90771  0
C  C119  1  0.58395951  0.53256158  0.96905707  1  -0.026766  0  -0.094592  -0.129466  0  4.001216  0
C  C120  1  0.86226365  0.12544060  0.60950688  1  -0.008703  0  -0.240998  -0.392779  0  3.977159  0
C  C121  1  0.37857722  0.90419485  0.34942421  1  0.38999  0  -0.066011  0.091596  0  3.905376  0
C  C122  1  0.27758871  0.86029908  0.31580253  1  -0.06852  0  -0.241433  -0.39511  0  3.977536  0
C  C123  1  0.45881459  0.51215999  0.07285189  1  -0.092883  0  -0.01027  0.10198  0  4.017743  0
C  C124  1  0.48379942  0.51174471  0.92826359  1  -0.004876  0  -0.010938  0.100017  0  4.014427  0
C  C125  1  0.49584316  0.26873551  0.55907052  1  0.457242  0  0.054939  0.097167  0  3.926778  0
N  N126  1  0.50026283  0.30641874  0.49983860  1  -1.246035  0  -0.318079  -0.191171  0  3.516139  0
N  N127  1  0.50940258  0.68469340  0.49963546  1  -1.227381  0  -0.319351  -0.195247  0  3.522325  0
O  O128  1  0.47294598  0.42920373  0.39525481  1  -1.173235  0  -0.320725  -0.554633  0  2.32231  0
O  O129  1  0.43652788  0.38017527  0.13888268  1  -1.069472  0  -0.18262  -0.202683  0  2.546623  0
O  O130  1  0.46616011  0.63576476  0.15503230  1  -1.06459  0  -0.183738  -0.204014  0  2.541438  0
O  O131  1  0.45258421  0.38184274  0.85971827  1  -1.068213  0  -0.181658  -0.202606  0  2.555287  0
O  O132  1  0.34296699  0.07032521  0.41352896  1  -1.057427  0  -0.203297  -0.232177  0  2.530904  0
O  O133  1  0.68313290  0.92050538  0.57475712  1  -1.076887  0  -0.203425  -0.233711  0  2.531943  0
O  O134  1  0.66675721  0.06999764  0.58330195  1  -1.07686  0  -0.202879  -0.232474  0  2.535435  0
O  O135  1  0.33640030  0.92071554  0.41915789  1  -1.06927  0  -0.203478  -0.233721  0  2.530471  0
O  O136  1  0.56009770  0.55061113  0.59957697  1  -1.173722  0  -0.325668  -0.55861  0  2.32639  0
O  O137  1  0.52526055  0.42875839  0.60557999  1  -1.171739  0  -0.319799  -0.551251  0  2.328326  0
O  O138  1  0.44835609  0.55220778  0.40247719  1  -1.174945  0  -0.323636  -0.553117  0  2.331904  0
O  O139  1  0.31615252  0.44236059  0.51707053  1  -1.166336  0  -0.325965  -0.555476  0  2.324615  0
O  O140  1  0.68921658  0.55862337  0.46742244  1  -1.173532  0  -0.326356  -0.56156  0  2.318041  0
O  O141  1  0.68873759  0.43571698  0.48496215  1  -1.163654  0  -0.322165  -0.549507  0  2.322276  0
O  O142  1  0.32034681  0.56569957  0.53076660  1  -1.171444  0  -0.322304  -0.555506  0  2.318684  0
O  O143  1  0.54549618  0.63248736  0.84842598  1  -1.071582  0  -0.182946  -0.20443  0  2.549014  0
