# generated using pymatgen
data_AlH6C14BrClO5
_symmetry_space_group_name_H-M   'P 1'
_cell_length_a   6.60758968
_cell_length_b   11.12982341
_cell_length_c   17.47720523
_cell_angle_alpha   87.22905367
_cell_angle_beta   80.12094059
_cell_angle_gamma   72.58876249
_symmetry_Int_Tables_number   1
_chemical_formula_structural   AlH6C14BrClO5
_chemical_formula_sum   'Al2 H12 C28 Br2 Cl2 O10'
_cell_volume   1208.21518268
_cell_formula_units_Z   2
loop_
 _symmetry_equiv_pos_site_id
 _symmetry_equiv_pos_as_xyz
  1  'x, y, z'
loop_
 _atom_site_type_symbol
 _atom_site_label
 _atom_site_symmetry_multiplicity
 _atom_site_fract_x
 _atom_site_fract_y
 _atom_site_fract_z
 _atom_site_occupancy
 _atom_site_pbe_bader_charge
 _atom_site_pbe_bader_spin_density
 _atom_site_pbe_cm5_charge
 _atom_site_pbe_ddec_charge
 _atom_site_pbe_ddec_spin_density
 _atom_site_pbe_ddec_sum_bond_order
 _atom_site_pbe_magmom
Al  Al0  1  0.51514452  0.46547672  0.50356500  1  2.500503  0  0.392985  1.639854  0  2.58148  0
Al  Al1  1  0.01310425  0.46994244  0.50295719  1  2.501915  0  0.392033  1.642811  0  2.577641  0
H  H2  1  0.31332620  0.32034582  0.54503975  1  0.602616  0  0.352861  0.430671  0  0.85503  0
H  H3  1  0.78305946  0.51767737  0.40803653  1  0.611466  0  0.342957  0.417262  0  0.881665  0
H  H4  1  0.54681770  0.60739389  0.28681389  1  0.102635  0  0.103245  0.103917  0  1.027221  0
H  H5  1  0.58036800  0.67497226  0.14917034  1  0.086033  0  0.110047  0.117596  0  0.985207  0
H  H6  1  0.17689777  0.45071231  0.10745330  1  0.093328  0  0.110527  0.128626  0  0.985166  0
H  H7  1  0.70963277  0.70602298  0.87023149  1  0.097805  0  0.110505  0.12811  0  0.988217  0
H  H8  1  0.38533304  0.44576659  0.73590782  1  0.092314  0  0.116357  0.124887  0  0.983429  0
H  H9  1  0.27435524  0.48139906  0.87879855  1  0.063622  0  0.109832  0.116344  0  0.983728  0
H  H10  1  0.25535227  0.19890211  0.40241364  1  0.110965  0  0.107061  0.129445  0  1.035864  0
H  H11  1  0.50687970  0.73177481  0.41629318  1  0.096412  0  0.112181  0.133184  0  1.03328  0
H  H12  1  0.78047376  0.84764493  0.55301802  1  0.102911  0  0.110401  0.117621  0  0.991811  0
H  H13  1  0.65896792  0.08333169  0.55089902  1  0.086978  0  0.109823  0.115749  0  0.983208  0
C  C14  1  0.87905446  0.23835083  0.49741019  1  1.546771  0  0.268795  0.650574  0  4.083975  0
C  C15  1  0.68549705  0.50920169  0.64002458  1  1.584817  0  0.270666  0.654104  0  4.090451  0
C  C16  1  0.16152248  0.69380479  0.50097386  1  1.586139  0  0.265928  0.635414  0  4.109953  0
C  C17  1  0.32139033  0.46600447  0.36113597  1  1.600128  0  0.258872  0.641097  0  4.115638  0
C  C18  1  0.34117610  0.49403714  0.27632809  1  0.007888  0  -0.021179  -0.112429  0  3.942443  0
C  C19  1  0.46530889  0.57417655  0.24689807  1  -0.016163  0  -0.080566  -0.070817  0  3.98909  0
C  C20  1  0.48450314  0.61199454  0.16996188  1  -0.007364  0  -0.083718  -0.133826  0  3.935984  0
C  C21  1  0.38168416  0.56685784  0.11822980  1  0.031266  0  0.007006  0.165549  0  4.107617  0
C  C22  1  0.25613166  0.48687315  0.14680485  1  0.068149  0  -0.086995  -0.196348  0  3.917352  0
C  C23  1  0.23482090  0.45162458  0.22460409  1  0.036448  0  0.021179  0.139495  0  4.037578  0
C  C24  1  0.41037828  0.59289859  0.03770946  1  0.022798  0  -0.039066  -0.09853  0  4.088335  0
C  C25  1  0.44309020  0.60122934  0.96700780  1  -0.346384  0  -0.03745  -0.096345  0  4.090035  0
C  C26  1  0.48984452  0.59274610  0.88501159  1  0.065983  0  0.00622  0.16344  0  4.117266  0
C  C27  1  0.63973643  0.64716156  0.84158118  1  0.062734  0  -0.089063  -0.203907  0  3.925322  0
C  C28  1  0.70336125  0.62459767  0.76195392  1  0.009875  0  0.025864  0.144304  0  4.02636  0
C  C29  1  0.61698116  0.54771446  0.72333140  1  0.05149  0  -0.014444  -0.105349  0  3.927831  0
C  C30  1  0.45695225  0.50096850  0.76679199  1  0.012621  0  -0.075025  -0.070769  0  3.993458  0
C  C31  1  0.39407072  0.52156859  0.84591777  1  -0.017738  0  -0.08356  -0.136844  0  3.955964  0
C  C32  1  0.95913590  0.09853306  0.48967013  1  -0.011396  0  -0.007747  -0.07986  0  3.935235  0
C  C33  1  0.17054427  0.03351572  0.45086568  1  0.010635  0  0.001227  0.070135  0  3.949215  0
C  C34  1  0.82109282  0.03162609  0.52385956  1  0.045349  0  -0.079358  -0.085819  0  3.990009  0
C  C35  1  0.30780931  0.09680722  0.40612139  1  0.111948  0  -0.095953  -0.178842  0  3.952689  0
C  C36  1  0.50534193  0.03111139  0.36540567  1  -0.172067  0  -0.020598  0.065377  0  3.98356  0
C  C37  1  0.09734993  0.83353254  0.49354345  1  -0.004287  0  -0.005423  -0.075041  0  3.934398  0
C  C38  1  0.88920117  0.89967218  0.52547078  1  -0.086305  0  -0.079378  -0.089882  0  3.992943  0
C  C39  1  0.24182366  0.89824979  0.45369087  1  -0.010228  0  0.002706  0.071156  0  3.945024  0
C  C40  1  0.44803849  0.83364595  0.41270233  1  0.092878  0  -0.092742  -0.171345  0  3.942772  0
C  C41  1  0.57634022  0.89764912  0.36880524  1  -0.069355  0  -0.02153  0.063243  0  3.98041  0
Br  Br42  1  0.67548077  0.12298539  0.30508790  1  -0.039316  0  0.030823  -0.045829  0  1.475982  0
Br  Br43  1  0.84480908  0.80214286  0.31281585  1  -0.051185  0  0.038551  -0.04  0  1.483622  0
Cl  Cl44  1  0.08117025  0.35035120  0.25197625  1  -0.186615  0  0.002431  -0.059334  0  1.541645  0
Cl  Cl45  1  0.88552831  0.69833484  0.71451267  1  -0.180148  0  0.010353  -0.056532  0  1.512848  0
O  O46  1  0.68029741  0.29030844  0.49453913  1  -1.263564  0  -0.238005  -0.605559  0  2.356232  0
O  O47  1  0.87201106  0.50917830  0.60674975  1  -1.255601  0  -0.229578  -0.579815  0  2.383  0
O  O48  1  0.02122849  0.63992760  0.49376337  1  -1.249075  0  -0.229108  -0.582536  0  2.380204  0
O  O49  1  0.47460713  0.47248145  0.39469046  1  -1.260673  0  -0.23994  -0.602154  0  2.362721  0
O  O50  1  0.35064226  0.63833671  0.51399344  1  -1.259418  0  -0.23044  -0.57345  0  2.360445  0
O  O51  1  0.14957147  0.44383300  0.39474884  1  -1.260258  0  -0.24306  -0.610152  0  2.423734  0
O  O52  1  0.01217734  0.29530417  0.50929558  1  -1.26575  0  -0.237162  -0.599321  0  2.34976  0
O  O53  1  0.55261517  0.47385782  0.60851022  1  -1.261766  0  -0.232727  -0.586318  0  2.347253  0
O  O54  1  0.27649077  0.41056083  0.53647768  1  -1.406574  0  -0.447504  -0.980393  0  2.18455  0
O  O55  1  0.75665812  0.51568244  0.46443353  1  -1.416192  0  -0.450115  -0.982621  0  2.211372  0
