# generated using pymatgen
data_CdH16C19N3O8
_symmetry_space_group_name_H-M   'P 1'
_cell_length_a   9.09326429
_cell_length_b   11.12226094
_cell_length_c   22.55644959
_cell_angle_alpha   90.00004606
_cell_angle_beta   89.99989363
_cell_angle_gamma   102.43167220
_symmetry_Int_Tables_number   1
_chemical_formula_structural   CdH16C19N3O8
_chemical_formula_sum   'Cd4 H64 C76 N12 O32'
_cell_volume   2227.81766989
_cell_formula_units_Z   4
loop_
 _symmetry_equiv_pos_site_id
 _symmetry_equiv_pos_as_xyz
  1  'x, y, z'
loop_
 _atom_site_type_symbol
 _atom_site_label
 _atom_site_symmetry_multiplicity
 _atom_site_fract_x
 _atom_site_fract_y
 _atom_site_fract_z
 _atom_site_occupancy
 _atom_site_pbe_bader_charge
 _atom_site_pbe_bader_spin_density
 _atom_site_pbe_cm5_charge
 _atom_site_pbe_ddec_charge
 _atom_site_pbe_ddec_spin_density
 _atom_site_pbe_ddec_sum_bond_order
 _atom_site_pbe_magmom
Cd  Cd0  1  0.93466960  0.68842611  0.53740261  1  1.290596  0  0.758552  0.923818  0  2.090379  0
Cd  Cd1  1  0.06532773  0.81157108  0.03740008  1  1.290627  0  0.758565  0.923862  0  2.090271  0
Cd  Cd2  1  0.06532763  0.31157645  0.46259766  1  1.290585  0  0.758564  0.923874  0  2.09036  0
Cd  Cd3  1  0.93467230  0.18842507  0.96259842  1  1.290586  0  0.758553  0.92383  0  2.090364  0
H  H4  1  0.89086546  0.54128782  0.43214844  1  0.640992  0  0.295428  0.404531  0  0.916512  0
H  H5  1  0.10913398  0.95871161  0.93214861  1  0.641044  0  0.295432  0.404501  0  0.916557  0
H  H6  1  0.10913568  0.45870834  0.56785182  1  0.641052  0  0.295433  0.404529  0  0.916518  0
H  H7  1  0.89087027  0.04128825  0.06785165  1  0.64096  0  0.29536  0.404384  0  0.916714  0
H  H8  1  0.80545477  0.45951820  0.48144390  1  0.634457  0  0.286289  0.386022  0  0.951882  0
H  H9  1  0.19454682  0.04048152  0.98144384  1  0.634464  0  0.286288  0.386006  0  0.951892  0
H  H10  1  0.19454815  0.54048074  0.51855726  1  0.634441  0  0.286308  0.386039  0  0.951852  0
H  H11  1  0.80545610  0.95951741  0.01855776  1  0.634468  0  0.286262  0.386031  0  0.951872  0
H  H12  1  0.38851586  0.61648771  0.43997391  1  0.133377  0  0.126874  0.133519  0  0.964951  0
H  H13  1  0.61148198  0.88350987  0.93996834  1  0.133578  0  0.126845  0.133499  0  0.965125  0
H  H14  1  0.61147797  0.38350563  0.56003168  1  0.13361  0  0.126829  0.133497  0  0.965145  0
H  H15  1  0.38851804  0.11648628  0.06003060  1  0.133533  0  0.126844  0.133502  0  0.965111  0
H  H16  1  0.62338914  0.67625246  0.37820480  1  0.140933  0  0.130848  0.146699  0  0.948398  0
H  H17  1  0.37661504  0.82375614  0.87819895  1  0.14091  0  0.13087  0.146699  0  0.948336  0
H  H18  1  0.37661140  0.32375013  0.62180123  1  0.140959  0  0.130879  0.146737  0  0.948366  0
H  H19  1  0.62338840  0.17624922  0.12179866  1  0.140957  0  0.130851  0.146697  0  0.948342  0
H  H20  1  0.66458060  0.87495660  0.32033047  1  0.189689  0  0.142537  0.134749  0  0.989455  0
H  H21  1  0.33541610  0.62505187  0.82032413  1  0.189745  0  0.142593  0.13491  0  0.989401  0
H  H22  1  0.33541709  0.12504779  0.67967689  1  0.189735  0  0.142588  0.134881  0  0.989423  0
H  H23  1  0.66458072  0.37495343  0.17967348  1  0.189821  0  0.14257  0.134792  0  0.98943  0
H  H24  1  0.24644214  0.93567043  0.37224572  1  0.168904  0  0.142558  0.134236  0  0.972606  0
H  H25  1  0.75355030  0.56433072  0.87223859  1  0.168756  0  0.14259  0.134358  0  0.972665  0
H  H26  1  0.75355486  0.06433121  0.62776119  1  0.168748  0  0.142603  0.134384  0  0.972582  0
H  H27  1  0.24644624  0.43566908  0.12775680  1  0.168916  0  0.142541  0.134301  0  0.972661  0
H  H28  1  0.53437793  0.10076072  0.34618772  1  0.126614  0  0.116741  0.114393  0  1.002745  0
H  H29  1  0.46561390  0.39924153  0.84618714  1  0.126616  0  0.116753  0.114423  0  1.002715  0
H  H30  1  0.46561287  0.89923810  0.65381299  1  0.126651  0  0.116771  0.11444  0  1.002682  0
H  H31  1  0.53438177  0.60075917  0.15381091  1  0.126565  0  0.116745  0.114408  0  1.002714  0
H  H32  1  0.58744863  0.02718332  0.28338879  1  0.120348  0  0.123969  0.119185  0  0.971095  0
H  H33  1  0.41254539  0.47281338  0.78338519  1  0.120255  0  0.12398  0.119223  0  0.971011  0
H  H34  1  0.41254919  0.97281281  0.71661591  1  0.120447  0  0.12395  0.119185  0  0.970975  0
H  H35  1  0.58744674  0.52718637  0.21661331  1  0.120345  0  0.123961  0.119176  0  0.971058  0
H  H36  1  0.31610624  0.19465691  0.34227719  1  0.074413  0  0.100436  0.103696  0  1.034646  0
H  H37  1  0.68388404  0.30534349  0.84227730  1  0.074447  0  0.100444  0.103704  0  1.034531  0
H  H38  1  0.68389163  0.80534382  0.65772175  1  0.074407  0  0.10046  0.103726  0  1.034573  0
H  H39  1  0.31610901  0.69465994  0.15772075  1  0.07437  0  0.100426  0.103658  0  1.034607  0
H  H40  1  0.10546655  0.24308516  0.28539155  1  0.08464  0  0.105322  0.109157  0  0.993166  0
H  H41  1  0.89452677  0.25690878  0.78539281  1  0.084589  0  0.105295  0.109191  0  0.993044  0
H  H42  1  0.89452727  0.75690818  0.71460783  1  0.084564  0  0.105282  0.109129  0  0.993142  0
H  H43  1  0.10547070  0.74309469  0.21460834  1  0.084529  0  0.105343  0.109179  0  0.993032  0
H  H44  1  0.02593243  0.13501672  0.18945448  1  0.093019  0  0.108246  0.116402  0  0.987096  0
H  H45  1  0.97406657  0.36497626  0.68945483  1  0.09307  0  0.10826  0.116433  0  0.987073  0
H  H46  1  0.97406621  0.86497391  0.81054623  1  0.093051  0  0.10825  0.116424  0  0.987071  0
H  H47  1  0.02593240  0.63502448  0.31054544  1  0.093045  0  0.108229  0.116392  0  0.987119  0
H  H48  1  0.37461047  0.93224916  0.20732034  1  0.090918  0  0.102811  0.110117  0  1.015151  0
H  H49  1  0.62539704  0.56775656  0.70731952  1  0.091195  0  0.102787  0.110087  0  1.015132  0
H  H50  1  0.62540224  0.06775813  0.79267904  1  0.091207  0  0.102756  0.110033  0  1.01523  0
H  H51  1  0.37459748  0.43223955  0.29267632  1  0.091133  0  0.102782  0.110077  0  1.015194  0
H  H52  1  0.90741460  0.93082252  0.46568304  1  0.179659  0  0.119837  0.103124  0  1.020301  0
H  H53  1  0.09259113  0.56918067  0.96568042  1  0.179701  0  0.119863  0.103155  0  1.020394  0
H  H54  1  0.09258842  0.06918560  0.53431589  1  0.179752  0  0.119875  0.103157  0  1.020313  0
H  H55  1  0.90740619  0.43080902  0.03431808  1  0.179264  0  0.119919  0.103169  0  1.020342  0
H  H56  1  0.73747235  0.07593940  0.45588442  1  0.148344  0  0.109324  0.113199  0  1.064717  0
H  H57  1  0.26253399  0.42406125  0.95588401  1  0.148374  0  0.109318  0.113231  0  1.064661  0
H  H58  1  0.26253375  0.92406783  0.54411319  1  0.148334  0  0.109328  0.113295  0  1.064809  0
H  H59  1  0.73746286  0.57592660  0.04411714  1  0.148456  0  0.109288  0.113241  0  1.064729  0
H  H60  1  0.40150613  0.81320001  0.55309502  1  0.130613  0  0.109804  0.129535  0  1.031034  0
H  H61  1  0.59850314  0.68680556  0.05308982  1  0.130602  0  0.109798  0.129562  0  1.031025  0
H  H62  1  0.59850136  0.18681274  0.44690879  1  0.130523  0  0.109795  0.129573  0  1.031164  0
H  H63  1  0.40150263  0.31319156  0.94690602  1  0.13057  0  0.109792  0.129565  0  1.031128  0
H  H64  1  0.59050476  0.68406899  0.56203472  1  0.146052  0  0.122305  0.10556  0  0.988207  0
H  H65  1  0.40950492  0.81593843  0.06202882  1  0.146137  0  0.122298  0.105572  0  0.988215  0
H  H66  1  0.40950272  0.31594376  0.43796688  1  0.14599  0  0.122335  0.105627  0  0.988304  0
H  H67  1  0.59049708  0.18405682  0.93796657  1  0.145973  0  0.122354  0.105657  0  0.988354  0
C  C68  1  0.30115142  0.77220844  0.41085902  1  0.041137  0  0.005547  -0.050603  0  3.95059  0
C  C69  1  0.69884214  0.72778908  0.91085554  1  0.042184  0  0.005518  -0.050647  0  3.95079  0
C  C70  1  0.69884646  0.22779229  0.58914568  1  0.042211  0  0.005447  -0.050706  0  3.950932  0
C  C71  1  0.30115169  0.27220426  0.08914428  1  0.041873  0  0.005476  -0.050632  0  3.950633  0
C  C72  1  0.40791168  0.69855873  0.41224748  1  -0.003835  0  -0.036425  -0.020693  0  3.883267  0
C  C73  1  0.59208371  0.80144616  0.91224367  1  -0.003992  0  -0.036449  -0.020679  0  3.883452  0
C  C74  1  0.59208491  0.30144566  0.58775634  1  -0.004044  0  -0.036399  -0.020613  0  3.883486  0
C  C75  1  0.40791370  0.19855273  0.08775616  1  -0.003406  0  -0.036439  -0.020713  0  3.883466  0
C  C76  1  0.53782102  0.73130470  0.37792953  1  0.032216  0  -0.057059  -0.093604  0  3.933932  0
C  C77  1  0.46217718  0.76870201  0.87792315  1  0.031818  0  -0.056977  -0.093454  0  3.933873  0
C  C78  1  0.46217778  0.26869971  0.62207738  1  0.031858  0  -0.057057  -0.093647  0  3.933982  0
C  C79  1  0.53782179  0.23129872  0.12207579  1  0.031665  0  -0.056973  -0.093478  0  3.93387  0
C  C80  1  0.56146124  0.83878414  0.34487558  1  0.386206  0  0.077243  0.046156  0  3.801441  0
C  C81  1  0.43853136  0.66122157  0.84486829  1  0.386325  0  0.077156  0.045992  0  3.801427  0
C  C82  1  0.43853402  0.16121932  0.65513178  1  0.386185  0  0.077186  0.046154  0  3.801377  0
C  C83  1  0.56146431  0.33877914  0.15512887  1  0.385925  0  0.077204  0.046177  0  3.801397  0
C  C84  1  0.32734993  0.87651112  0.37532152  1  0.422098  0  0.081241  0.033552  0  3.781922  0
C  C85  1  0.67264644  0.62348822  0.87531669  1  0.421933  0  0.081261  0.033374  0  3.782131  0
C  C86  1  0.67264882  0.12348869  0.62468407  1  0.422085  0  0.081262  0.033409  0  3.782244  0
C  C87  1  0.32735184  0.37650975  0.12468180  1  0.422132  0  0.081307  0.033417  0  3.782072  0
C  C88  1  0.16289207  0.74854935  0.44949236  1  1.618579  0  0.199221  0.556951  0  4.271745  0
C  C89  1  0.83709599  0.75144448  0.94948568  1  1.617563  0  0.199392  0.557212  0  4.270987  0
C  C90  1  0.83709914  0.25144672  0.55051544  1  1.617412  0  0.199506  0.557285  0  4.270861  0
C  C91  1  0.16289963  0.24855163  0.05051281  1  1.617658  0  0.199395  0.557208  0  4.270903  0
C  C92  1  0.49195333  0.03068546  0.31245546  1  0.186889  0  -0.048408  -0.136062  0  3.849557  0
C  C93  1  0.50804039  0.46931494  0.81245267  1  0.186947  0  -0.048473  -0.13609  0  3.849408  0
C  C94  1  0.50804762  0.96931438  0.68754835  1  0.186613  0  -0.048397  -0.135954  0  3.849397  0
C  C95  1  0.49195064  0.53068480  0.18754538  1  0.186946  0  -0.048427  -0.136043  0  3.849535  0
C  C96  1  0.36039016  0.05909528  0.27917900  1  0.009377  0  -0.024739  0.062773  0  4.027226  0
C  C97  1  0.63960521  0.44090235  0.77917743  1  0.009356  0  -0.02468  0.062756  0  4.027537  0
C  C98  1  0.63961033  0.94090272  0.72082126  1  0.00944  0  -0.024738  0.062637  0  4.027635  0
C  C99  1  0.36038889  0.55909650  0.22081885  1  0.009286  0  -0.024784  0.062646  0  4.027246  0
C  C100  1  0.28368513  0.14699963  0.30045811  1  -0.032752  0  -0.085732  -0.122069  0  3.949035  0
C  C101  1  0.71630841  0.35299984  0.80045644  1  -0.03286  0  -0.085791  -0.122133  0  3.949041  0
C  C102  1  0.71631275  0.85300109  0.69954349  1  -0.032772  0  -0.085782  -0.122132  0  3.949181  0
C  C103  1  0.28368506  0.64700085  0.19954250  1  -0.032802  0  -0.085734  -0.122016  0  3.949032  0
C  C104  1  0.16403979  0.17473947  0.26823944  1  -0.0005  0  -0.085795  -0.058881  0  3.99116  0
C  C105  1  0.83595429  0.32525722  0.76823988  1  -0.000439  0  -0.085767  -0.058905  0  3.990893  0
C  C106  1  0.83595891  0.82525575  0.73175950  1  -0.000148  0  -0.085766  -0.058801  0  3.991062  0
C  C107  1  0.16404184  0.67474533  0.23175906  1  -9.9e-05  0  -0.085799  -0.058859  0  3.991036  0
C  C108  1  0.11946101  0.11480430  0.21493673  1  -0.073092  0  -0.077508  -0.082854  0  3.944493  0
C  C109  1  0.88053550  0.38519236  0.71493805  1  -0.072846  0  -0.077517  -0.082856  0  3.944499  0
C  C110  1  0.88053791  0.88519184  0.78506088  1  -0.07298  0  -0.077517  -0.082911  0  3.944542  0
C  C111  1  0.11946104  0.61480744  0.28506133  1  -0.072782  0  -0.07747  -0.082846  0  3.944555  0
C  C112  1  0.19583461  0.02723677  0.19313006  1  0.009062  0  -0.022069  -0.033583  0  3.997896  0
C  C113  1  0.80416884  0.47276085  0.69313147  1  0.009454  0  -0.022096  -0.033751  0  3.998029  0
C  C114  1  0.80417034  0.97276586  0.80686755  1  0.009279  0  -0.022041  -0.033693  0  3.997982  0
C  C115  1  0.19582591  0.52723618  0.30686747  1  0.009033  0  -0.022073  -0.033679  0  3.997971  0
C  C116  1  0.31609266  0.00003803  0.22533233  1  -0.114092  0  -0.088131  -0.150321  0  3.958981  0
C  C117  1  0.68391222  0.49996147  0.72533295  1  -0.114993  0  -0.088088  -0.150165  0  3.959023  0
C  C118  1  0.68391624  0.99996279  0.77466528  1  -0.11498  0  -0.088094  -0.150118  0  3.959067  0
C  C119  1  0.31608079  0.50003738  0.27466288  1  -0.114789  0  -0.088049  -0.150134  0  3.958888  0
C  C120  1  0.15163725  0.96295014  0.13542924  1  1.548233  0  0.189397  0.553992  0  4.245403  0
C  C121  1  0.84837134  0.53704541  0.63543134  1  1.548227  0  0.189445  0.55405  0  4.245304  0
C  C122  1  0.84836876  0.03704790  0.86456970  1  1.548173  0  0.189458  0.554061  0  4.245421  0
C  C123  1  0.15163135  0.46295261  0.36456804  1  1.548043  0  0.1894  0.553988  0  4.245475  0
C  C124  1  0.79505580  0.90929322  0.48508463  1  0.45374  0  0.052571  0.106404  0  3.914569  0
C  C125  1  0.20495274  0.59071277  0.98508192  1  0.453798  0  0.052448  0.106176  0  3.914973  0
C  C126  1  0.20495232  0.09071770  0.51491519  1  0.453933  0  0.052463  0.106271  0  3.914887  0
C  C127  1  0.79504834  0.40927879  0.01491701  1  0.454482  0  0.052444  0.106259  0  3.915006  0
C  C128  1  0.69791234  0.98930802  0.47900217  1  -0.138146  0  -0.086651  -0.172136  0  3.929807  0
C  C129  1  0.30209356  0.51069611  0.97900024  1  -0.138155  0  -0.086656  -0.17214  0  3.929924  0
C  C130  1  0.30209201  0.01070103  0.52099854  1  -0.138249  0  -0.086642  -0.172227  0  3.930076  0
C  C131  1  0.69790642  0.48929545  0.02100003  1  -0.138495  0  -0.086653  -0.172222  0  3.929973  0
C  C132  1  0.55284228  0.95843320  0.50325692  1  0.017841  0  0.00054  0.082604  0  4.002778  0
C  C133  1  0.44716430  0.54156954  0.00325488  1  0.017873  0  0.000588  0.082584  0  4.002796  0
C  C134  1  0.44716585  0.04157772  0.49674512  1  0.07369  0  0.000573  0.082546  0  4.002555  0
C  C135  1  0.55283504  0.45842385  0.99674450  1  0.073603  0  0.000582  0.082604  0  4.002504  0
C  C136  1  0.51256250  0.84550455  0.53351389  1  -0.020105  0  -0.08668  -0.18382  0  3.94558  0
C  C137  1  0.48744464  0.65450098  0.03351009  1  -0.020087  0  -0.086609  -0.183773  0  3.945468  0
C  C138  1  0.48744788  0.15451098  0.46648726  1  -0.020755  0  -0.086613  -0.183784  0  3.945545  0
C  C139  1  0.51255488  0.34548873  0.96648575  1  -0.02074  0  -0.086644  -0.183806  0  3.9455  0
C  C140  1  0.61683381  0.77126537  0.53811208  1  0.42285  0  0.047475  0.091801  0  3.946894  0
C  C141  1  0.38317220  0.72874017  0.03810705  1  0.422783  0  0.047471  0.091784  0  3.946966  0
C  C142  1  0.38317100  0.22874553  0.46188952  1  0.423389  0  0.047441  0.09171  0  3.947051  0
C  C143  1  0.61682603  0.27125321  0.96188834  1  0.423299  0  0.047409  0.091653  0  3.947138  0
N  N144  1  0.45671898  0.90923838  0.34420000  1  -1.195952  0  -0.198218  0.110998  0  3.704193  0
N  N145  1  0.54327160  0.59076364  0.84419437  1  -1.195827  0  -0.198178  0.110965  0  3.704101  0
N  N146  1  0.54327646  0.09076140  0.65580559  1  -1.195826  0  -0.198198  0.110825  0  3.704206  0
N  N147  1  0.45672187  0.40923705  0.15580368  1  -1.195921  0  -0.198191  0.110936  0  3.704175  0
N  N148  1  0.75552121  0.80217278  0.51439066  1  -1.234527  0  -0.324305  -0.222109  0  3.49347  0
N  N149  1  0.24448822  0.69783276  0.01438661  1  -1.234659  0  -0.32428  -0.221994  0  3.493634  0
N  N150  1  0.24448448  0.19783721  0.48561005  1  -1.234602  0  -0.324343  -0.222062  0  3.49377  0
N  N151  1  0.75551356  0.30216157  0.98561100  1  -1.234439  0  -0.324294  -0.221988  0  3.493765  0
N  N152  1  0.12310482  0.87651185  0.63465895  1  0.816359  0  0.088816  0.716105  0  4.432052  0
N  N153  1  0.87689593  0.62349189  0.13465971  1  0.816319  0  0.088875  0.71618  0  4.431971  0
N  N154  1  0.87689862  0.12349352  0.36533777  1  0.815551  0  0.089018  0.716152  0  4.431942  0
N  N155  1  0.12310433  0.37650518  0.86533789  1  0.815611  0  0.088962  0.716046  0  4.4321  0
O  O156  1  0.05615835  0.79808896  0.43630328  1  -1.155586  0  -0.311379  -0.52691  0  2.138736  0
O  O157  1  0.94383638  0.70190492  0.93629827  1  -1.154949  0  -0.311431  -0.52699  0  2.138458  0
O  O158  1  0.94383924  0.20190625  0.56370231  1  -1.154834  0  -0.311463  -0.527033  0  2.138407  0
O  O159  1  0.05616103  0.29809396  0.06370066  1  -1.154965  0  -0.311423  -0.526997  0  2.138373  0
O  O160  1  0.16825108  0.68294134  0.49615262  1  -1.162901  0  -0.320329  -0.569037  0  2.312503  0
O  O161  1  0.83174524  0.81705996  0.99615084  1  -1.163238  0  -0.320446  -0.569188  0  2.311975  0
O  O162  1  0.83174680  0.31705939  0.50384942  1  -1.163215  0  -0.320509  -0.569231  0  2.311967  0
O  O163  1  0.16825460  0.18293986  0.00384765  1  -1.163342  0  -0.320431  -0.569161  0  2.312043  0
O  O164  1  0.03505378  0.97941737  0.10804555  1  -1.185262  0  -0.327151  -0.574188  0  2.2183  0
O  O165  1  0.96495266  0.52057354  0.60804666  1  -1.185372  0  -0.327178  -0.574193  0  2.218179  0
O  O166  1  0.96495130  0.02057700  0.89195383  1  -1.185371  0  -0.327187  -0.574224  0  2.218189  0
O  O167  1  0.03505067  0.47942264  0.39195272  1  -1.185254  0  -0.327146  -0.574186  0  2.218248  0
O  O168  1  0.23383898  0.89187838  0.11569426  1  -1.165855  0  -0.33499  -0.574665  0  2.222234  0
O  O169  1  0.76616974  0.60812174  0.61569512  1  -1.165789  0  -0.335013  -0.574662  0  2.222135  0
O  O170  1  0.76616592  0.10811966  0.88430467  1  -1.165763  0  -0.335018  -0.574647  0  2.222253  0
O  O171  1  0.23383544  0.39188180  0.38430293  1  -1.165643  0  -0.335039  -0.574687  0  2.222209  0
O  O172  1  0.20676255  0.79960332  0.63097260  1  -0.557741  0  -0.211333  -0.46858  0  1.905083  0
O  O173  1  0.79324349  0.70039954  0.13097434  1  -0.557644  0  -0.211358  -0.468585  0  1.905057  0
O  O174  1  0.79325063  0.20040581  0.36902146  1  -0.55733  0  -0.211388  -0.468511  0  1.905  0
O  O175  1  0.20675098  0.29959197  0.86902149  1  -0.557294  0  -0.211405  -0.468542  0  1.905081  0
O  O176  1  0.14620486  0.96222748  0.67209748  1  -0.51855  0  -0.202911  -0.457185  0  1.916484  0
O  O177  1  0.85379990  0.53777542  0.17209822  1  -0.518473  0  -0.202854  -0.457131  0  1.916495  0
O  O178  1  0.85380119  0.03777516  0.32790146  1  -0.518215  0  -0.202883  -0.457091  0  1.916516  0
O  O179  1  0.14620169  0.46222258  0.82790116  1  -0.518184  0  -0.202859  -0.457056  0  1.916556  0
O  O180  1  0.01113112  0.86826423  0.59842634  1  -0.586693  0  -0.217298  -0.485128  0  2.032417  0
O  O181  1  0.98887483  0.63173769  0.09842613  1  -0.586773  0  -0.217371  -0.485226  0  2.032352  0
O  O182  1  0.98887429  0.13174024  0.40157304  1  -0.586593  0  -0.21745  -0.485325  0  2.032414  0
O  O183  1  0.01113030  0.36826127  0.90157369  1  -0.586681  0  -0.217413  -0.485253  0  2.032469  0
O  O184  1  0.81732467  0.54310948  0.46417213  1  -1.240404  0  -0.596847  -0.766862  0  1.986214  0
O  O185  1  0.18267550  0.95688907  0.96417180  1  -1.240395  0  -0.596868  -0.766834  0  1.986271  0
O  O186  1  0.18267756  0.45688669  0.53582814  1  -1.240385  0  -0.596876  -0.766879  0  1.986214  0
O  O187  1  0.81733096  0.04311082  0.03583024  1  -1.240382  0  -0.59678  -0.766761  0  1.986259  0
