# generated using pymatgen
data_TbH22C33NO10
_symmetry_space_group_name_H-M   'P 1'
_cell_length_a   8.51584337
_cell_length_b   17.96820132
_cell_length_c   26.43263226
_cell_angle_alpha   87.81809421
_cell_angle_beta   80.74345439
_cell_angle_gamma   76.26056121
_symmetry_Int_Tables_number   1
_chemical_formula_structural   TbH22C33NO10
_chemical_formula_sum   'Tb4 H88 C132 N4 O40'
_cell_volume   3877.67967559
_cell_formula_units_Z   4
loop_
 _symmetry_equiv_pos_site_id
 _symmetry_equiv_pos_as_xyz
  1  'x, y, z'
loop_
 _atom_site_type_symbol
 _atom_site_label
 _atom_site_symmetry_multiplicity
 _atom_site_fract_x
 _atom_site_fract_y
 _atom_site_fract_z
 _atom_site_occupancy
 _atom_site_pbe_bader_charge
 _atom_site_pbe_bader_spin_density
 _atom_site_pbe_cm5_charge
 _atom_site_pbe_ddec_charge
 _atom_site_pbe_ddec_spin_density
 _atom_site_pbe_ddec_sum_bond_order
 _atom_site_pbe_magmom
Tb  Tb0  1  0.88171592  0.50010323  0.23631269  1  2.218896  0  1.521724  2.220323  0  2.022722  0
Tb  Tb1  1  0.13216055  0.99994866  0.73634599  1  2.216514  0  1.521855  2.220812  0  2.021863  0
Tb  Tb2  1  0.60625107  0.99995826  0.78819046  1  2.175711  0  1.537056  2.08764  0  2.202662  0
Tb  Tb3  1  0.35584892  0.50007481  0.28814179  1  2.172884  0  1.537452  2.086658  0  2.205712  0
H  H4  1  0.35412221  0.61639783  0.50942548  1  0.135551  0  0.100655  0.108577  0  1.04999  0
H  H5  1  0.59070908  0.24584100  0.33342913  1  0.097657  0  0.112834  0.121091  0  0.98285  0
H  H6  1  0.70210922  0.79744871  0.20342402  1  0.083326  0  0.094374  0.091553  0  1.051175  0
H  H7  1  0.01898766  0.16662659  0.72429936  1  0.111147  0  0.109253  0.093012  0  1.077392  0
H  H8  1  0.13264268  0.10886383  0.57694419  1  0.078204  0  0.113978  0.131692  0  1.000311  0
H  H9  1  0.77763641  0.12869089  0.98069152  1  0.129279  0  0.107825  0.115385  0  0.992748  0
H  H10  1  0.54317438  0.92891443  0.66549561  1  0.149867  0  0.130396  0.063699  0  1.018866  0
H  H11  1  0.50166167  0.38125913  0.10978961  1  0.055256  0  0.106214  0.117674  0  1.027984  0
H  H12  1  0.56151157  0.22698857  0.72090675  1  0.098041  0  0.106542  0.109571  0  1.031408  0
H  H13  1  0.74112370  0.39533418  0.38743199  1  0.099606  0  0.111488  0.121398  0  1.001626  0
H  H14  1  0.86192174  0.62880511  0.48085292  1  0.099479  0  0.106779  0.114176  0  0.995664  0
H  H15  1  0.24085510  0.72734262  0.22104456  1  0.108612  0  0.106017  0.108621  0  1.031125  0
H  H16  1  0.99120026  0.39124486  0.07689065  1  0.076736  0  0.114001  0.13185  0  1.001298  0
H  H17  1  0.36382608  0.59686130  0.41638469  1  0.117498  0  0.117131  0.124556  0  0.98568  0
H  H18  1  0.53969499  0.35192215  0.67630081  1  0.065117  0  0.102248  0.097642  0  1.040319  0
H  H19  1  0.72478636  0.67071878  0.13412142  1  0.11571  0  0.108506  0.112005  0  1.027391  0
H  H20  1  0.57617599  0.61088824  0.81141062  1  0.117198  0  0.110628  0.12242  0  0.991024  0
H  H21  1  0.80154403  0.35069927  0.65708684  1  0.124036  0  0.107251  0.105358  0  1.038687  0
H  H22  1  0.37243380  0.09669543  0.91658424  1  0.13314  0  0.11749  0.124593  0  0.98466  0
H  H23  1  0.14627885  0.82900866  0.63406228  1  0.1012  0  0.108714  0.112139  0  1.025454  0
H  H24  1  0.79178932  0.07102860  0.66546107  1  0.163683  0  0.1303  0.063062  0  1.018519  0
H  H25  1  0.63549887  0.29936586  0.07696553  1  0.122604  0  0.1071  0.135495  0  1.007904  0
H  H26  1  0.58859750  0.38877983  0.04402215  1  0.058038  0  0.103977  0.112624  0  0.979936  0
H  H27  1  0.50269515  0.49920686  0.53917990  1  0.11942  0  0.112725  0.111996  0  1.026875  0
H  H28  1  0.45636136  0.88075690  0.52415355  1  0.051929  0  0.110213  0.119171  0  0.974871  0
H  H29  1  0.95728176  0.50087542  0.53914388  1  0.113097  0  0.112508  0.11176  0  1.027009  0
H  H30  1  0.22667209  0.89491889  0.88759610  1  0.119357  0  0.111147  0.120424  0  1.001647  0
H  H31  1  0.95334415  0.30017558  0.06352658  1  0.046323  0  0.105257  0.122466  0  0.989994  0
H  H32  1  0.93532503  0.88894689  0.31158464  1  0.131635  0  0.110801  0.121047  0  0.992568  0
H  H33  1  0.25059211  0.70232586  0.70343331  1  0.085277  0  0.093885  0.091141  0  1.051366  0
H  H34  1  0.72849511  0.88893448  0.54400547  1  0.056758  0  0.103305  0.111656  0  0.980909  0
H  H35  1  0.21915476  0.40361088  0.41645762  1  0.125995  0  0.117083  0.123832  0  0.986415  0
H  H36  1  0.75247694  0.11119853  0.31160228  1  0.129949  0  0.110815  0.122824  0  0.989972  0
H  H37  1  0.88628991  0.10508531  0.88731744  1  0.117033  0  0.110862  0.120956  0  1.003009  0
H  H38  1  0.20949119  0.29468362  0.58507788  1  0.076793  0  0.103478  0.10115  0  1.022755  0
H  H39  1  0.98307775  0.69982430  0.06352169  1  0.046883  0  0.105383  0.123093  0  0.990392  0
H  H40  1  0.90150187  0.14932391  0.15712565  1  0.120288  0  0.107473  0.1055  0  1.037603  0
H  H41  1  0.26521457  0.95542747  0.19721090  1  0.120803  0  0.111257  0.113053  0  1.00976  0
H  H42  1  0.38874813  0.61840892  0.10973724  1  0.041687  0  0.104777  0.115879  0  1.026527  0
H  H43  1  0.07588351  0.75438814  0.33340517  1  0.099979  0  0.113339  0.12152  0  0.981402  0
H  H44  1  0.08687400  0.61917102  0.02416861  1  0.049686  0  0.110215  0.119639  0  0.9741  0
H  H45  1  0.53682431  0.04457450  0.19726552  1  0.121667  0  0.111041  0.112794  0  1.008648  0
H  H46  1  0.72119194  0.88359104  0.00949484  1  0.125557  0  0.101048  0.108646  0  1.050668  0
H  H47  1  0.04626359  0.29750486  0.70330558  1  0.082138  0  0.095221  0.092575  0  1.052005  0
H  H48  1  0.43338192  0.80011509  0.56349484  1  0.038966  0  0.10539  0.123118  0  0.989765  0
H  H49  1  0.28795667  0.70038667  0.07694505  1  0.073681  0  0.106355  0.135693  0  1.006482  0
H  H50  1  0.75730350  0.88143863  0.60977829  1  0.047371  0  0.106473  0.117817  0  1.027015  0
H  H51  1  0.65672776  0.37152207  0.48076551  1  0.123068  0  0.107755  0.115606  0  0.99481  0
H  H52  1  0.14076257  0.32932031  0.13421979  1  0.116944  0  0.108299  0.111092  0  1.027718  0
H  H53  1  0.18231543  0.85236888  0.17649422  1  0.096471  0  0.102756  0.09727  0  1.039541  0
H  H54  1  0.61346521  0.38890812  0.81154088  1  0.118504  0  0.110697  0.121175  0  0.992681  0
H  H55  1  0.53786449  0.27270188  0.22114602  1  0.107558  0  0.10625  0.109296  0  1.030983  0
H  H56  1  0.58621193  0.25434216  0.83333604  1  0.100422  0  0.112643  0.120915  0  0.981823  0
H  H57  1  0.24135138  0.87131036  0.98094963  1  0.105856  0  0.107613  0.115003  0  0.994155  0
H  H58  1  0.25408503  0.20534228  0.08508401  1  0.077853  0  0.102163  0.099725  0  1.023246  0
H  H59  1  0.13603904  0.38368222  0.50944433  1  0.109052  0  0.10194  0.110252  0  1.049716  0
H  H60  1  0.25721500  0.83321746  0.72437100  1  0.111481  0  0.109324  0.092667  0  1.077787  0
H  H61  1  0.72763380  0.11133540  0.54402272  1  0.062395  0  0.103068  0.112463  0  0.979313  0
H  H62  1  0.73854880  0.79950148  0.57693960  1  0.081835  0  0.107054  0.136221  0  1.005687  0
H  H63  1  0.20529548  0.70505924  0.58494569  1  0.082669  0  0.102848  0.100835  0  1.022666  0
H  H64  1  0.61264172  0.42894485  0.16553345  1  0.142424  0  0.130455  0.063381  0  1.018912  0
H  H65  1  0.75235185  0.00073597  0.03926058  1  0.117032  0  0.112513  0.111966  0  1.025508  0
H  H66  1  0.93190175  0.60873307  0.07688192  1  0.081265  0  0.114615  0.132445  0  1.001193  0
H  H67  1  0.68487104  0.20072457  0.57702616  1  0.122424  0  0.106651  0.136758  0  1.006623  0
H  H68  1  0.36734534  0.61095296  0.04397497  1  0.05762  0  0.102882  0.111746  0  0.980403  0
H  H69  1  0.63318080  0.11877741  0.60979898  1  0.055432  0  0.106429  0.118884  0  1.02604  0
H  H70  1  0.87080007  0.60519770  0.38747139  1  0.110069  0  0.110464  0.120459  0  1.001848  0
H  H71  1  0.26899121  0.11647517  0.00957115  1  0.112699  0  0.100225  0.107999  0  1.048268  0
H  H72  1  0.94057599  0.85063242  0.15729191  1  0.124931  0  0.107226  0.105385  0  1.036608  0
H  H73  1  0.71851303  0.77305089  0.72105019  1  0.103495  0  0.105872  0.108502  0  1.030237  0
H  H74  1  0.00355637  0.19997799  0.56363323  1  0.036401  0  0.105496  0.122795  0  0.98969  0
H  H75  1  0.78446667  0.64800759  0.67657716  1  0.114247  0  0.103172  0.097759  0  1.04113  0
H  H76  1  0.64085205  0.14771539  0.17659566  1  0.093875  0  0.101692  0.095726  0  1.040447  0
H  H77  1  0.29082004  0.89118325  0.57683167  1  0.069896  0  0.114416  0.132223  0  1.000735  0
H  H78  1  0.33267220  0.45509028  0.69724447  1  0.120658  0  0.110891  0.112467  0  1.009608  0
H  H79  1  0.09393276  0.20234021  0.20329741  1  0.061996  0  0.095025  0.092273  0  1.051091  0
H  H80  1  0.97030964  0.54476062  0.69720122  1  0.120558  0  0.111433  0.112468  0  1.009239  0
H  H81  1  0.58192282  0.74547229  0.83317023  1  0.100035  0  0.112525  0.120844  0  0.983825  0
H  H82  1  0.71138784  0.90315879  0.91647031  1  0.129755  0  0.116715  0.123205  0  0.98552  0
H  H83  1  0.21972841  0.17083511  0.63434243  1  0.118182  0  0.109198  0.113249  0  1.026758  0
H  H84  1  0.93565884  0.33331988  0.22427488  1  0.101938  0  0.108615  0.09189  0  1.077839  0
H  H85  1  0.01990680  0.11938672  0.52422354  1  0.051786  0  0.110376  0.119743  0  0.974528  0
H  H86  1  0.66047369  0.79469156  0.08499807  1  0.085906  0  0.102536  0.099646  0  1.023219  0
H  H87  1  0.22186028  0.57105352  0.16550740  1  0.146172  0  0.13055  0.063617  0  1.020372  0
H  H88  1  0.83973362  0.66657654  0.22441935  1  0.108169  0  0.109314  0.092964  0  1.077072  0
H  H89  1  0.88883343  0.38080644  0.02419420  1  0.04924  0  0.109681  0.118575  0  0.975107  0
H  H90  1  0.54141069  0.64919573  0.65716454  1  0.117184  0  0.106984  0.104315  0  1.039218  0
H  H91  1  0.20821500  0.99925484  0.03916019  1  0.111737  0  0.112103  0.11232  0  1.026236  0
C  C92  1  0.20715874  0.07619746  0.84214138  1  1.586529  0  0.239608  0.659445  0  4.150436  0
C  C93  1  0.01814003  0.13746645  0.56360001  1  0.297397  0  -0.126667  -0.262512  0  3.892135  0
C  C94  1  0.02230978  0.06901995  0.23971984  1  0.933664  0  0.16228  0.353957  0  3.977068  0
C  C95  1  0.04677261  0.08116301  0.09397040  1  -0.093286  0  -0.016997  -0.017233  0  3.97439  0
C  C96  1  0.73634095  0.94553922  0.18342860  1  -0.009311  0  -0.016325  -0.013299  0  3.96404  0
C  C97  1  0.92987891  0.21440289  0.74396082  1  0.049779  0  -0.075126  -0.07513  0  3.942599  0
C  C98  1  0.79218369  0.16059828  0.29350709  1  -0.015466  0  -0.075151  -0.097702  0  3.941748  0
C  C99  1  0.63351733  0.03027358  0.11596968  1  -0.108324  0  -0.014348  -0.010967  0  3.96674  0
C  C100  1  0.38253520  0.90177448  0.09606937  1  0.949408  0  0.163041  0.352128  0  3.978189  0
C  C101  1  0.48607363  0.69181015  0.17983816  1  -0.054341  0  -0.005093  -0.023356  0  3.938574  0
C  C102  1  0.86501575  0.68698397  0.66719775  1  -0.029774  0  -0.076364  -0.090298  0  3.960798  0
C  C103  1  0.41913212  0.56890803  0.73975402  1  0.954414  0  0.163119  0.355266  0  3.974235  0
C  C104  1  0.50227136  0.59943061  0.64630087  1  -0.073147  0  -0.063601  -0.099795  0  3.911825  0
C  C105  1  0.88410062  0.44566368  0.68333007  1  0.053332  0  -0.016461  -0.013476  0  3.965509  0
C  C106  1  0.99179979  0.76502613  0.30547833  1  -0.096313  0  -0.075113  -0.088178  0  3.939342  0
C  C107  1  0.09616334  0.39697630  0.43108908  1  -0.041982  0  -0.074824  -0.076985  0  3.943265  0
C  C108  1  0.38809312  0.48921819  0.66779919  1  -0.08703  0  -0.061871  -0.101355  0  3.898968  0
C  C109  1  0.57165678  0.77992862  0.11586847  1  -0.043768  0  -0.080268  -0.095295  0  3.969889  0
C  C110  1  0.76929808  0.12326403  0.78878076  1  1.560816  0  0.213336  0.609265  0  4.191826  0
C  C111  1  0.91376833  0.83948335  0.29353257  1  -0.000471  0  -0.075401  -0.096649  0  3.941717  0
C  C112  1  0.50505014  0.66035299  0.79335347  1  0.043588  0  -0.073852  -0.095321  0  3.940978  0
C  C113  1  0.47220428  0.60345184  0.43105097  1  -0.020419  0  -0.07478  -0.078652  0  3.943224  0
C  C114  1  0.45223629  0.16806704  0.12833393  1  -0.036256  0  -0.013607  -0.008549  0  3.972838  0
C  C115  1  0.89435584  0.28556001  0.24393295  1  -0.007056  0  -0.073207  -0.072036  0  3.939062  0
C  C116  1  0.48144791  0.24275488  0.69208322  1  -0.040279  0  -0.078342  -0.085822  0  3.943678  0
C  C117  1  0.70263676  0.33947527  0.79346087  1  -0.020807  0  -0.075957  -0.098483  0  3.942733  0
C  C118  1  0.99166688  0.87036700  0.05685158  1  0.917493  0  0.157924  0.342188  0  3.997888  0
C  C119  1  0.95109866  0.12954107  0.05668954  1  0.921469  0  0.159554  0.345698  0  3.995887  0
C  C120  1  0.43258457  0.55425951  0.68337375  1  0.022944  0  -0.015599  -0.01169  0  3.96222  0
C  C121  1  0.30822981  0.63784125  0.08111767  1  0.306204  0  -0.130533  -0.281685  0  3.917372  0
C  C122  1  0.85167499  0.90042753  0.14640518  1  -0.038322  0  -0.063721  -0.101303  0  3.908428  0
C  C123  1  0.11763169  0.89125955  0.91459167  1  -0.049873  0  -0.075353  -0.082525  0  3.946636  0
C  C124  1  0.28992214  0.21121247  0.64239877  1  -0.076727  0  -0.081973  -0.1015  0  3.960036  0
C  C125  1  0.78412698  0.78845544  0.23190036  1  -0.073761  0  -0.085928  -0.110184  0  3.974548  0
C  C126  1  0.00109122  0.66806531  0.62828248  1  -0.05358  0  -0.015045  -0.008586  0  3.970735  0
C  C127  1  0.33378548  0.74300450  0.19211347  1  -0.082779  0  -0.078595  -0.086156  0  3.944231  0
C  C128  1  0.30176543  0.81324826  0.16715807  1  0.018082  0  -0.076197  -0.088861  0  3.958857  0
C  C129  1  0.46780184  0.61421132  0.48308102  1  -0.077188  0  -0.085376  -0.116052  0  3.977331  0
C  C130  1  0.60622537  0.71117179  0.14223395  1  -0.035378  0  -0.080767  -0.098623  0  3.962143  0
C  C131  1  0.31223116  0.22011883  0.11592013  1  0.009907  0  -0.080658  -0.097558  0  3.969223  0
C  C132  1  0.07932442  0.05437063  0.18333200  1  -0.005283  0  -0.016131  -0.012498  0  3.963806  0
C  C133  1  0.96964955  0.53037676  0.61588606  1  0.018441  0  -0.013964  -0.009991  0  3.965713  0
C  C134  1  0.12118876  0.58213313  0.14257714  1  1.343587  0  0.18414  0.319361  0  4.070584  0
C  C135  1  0.90790663  0.12142609  0.96627944  1  -0.127678  0  -0.078714  -0.09837  0  3.950414  0
C  C136  1  0.41430908  0.46956270  0.61593051  1  0.025935  0  -0.012938  -0.006558  0  3.963152  0
C  C137  1  0.93162170  0.14833756  0.25558735  1  -0.049582  0  -0.014817  -0.001978  0  3.985176  0
C  C138  1  0.84170305  0.43094677  0.73971759  1  0.955688  0  0.163357  0.356198  0  3.974343  0
C  C139  1  0.88734263  0.88482919  0.70556223  1  1.596367  0  0.241416  0.65479  0  4.165233  0
C  C140  1  0.41512087  0.64819467  0.75558060  1  -0.109316  0  -0.015194  -0.003579  0  3.985293  0
C  C141  1  0.62434183  0.57638590  0.34208170  1  1.61087  0  0.241952  0.664289  0  4.142628  0
C  C142  1  0.40745623  0.11521700  0.70569682  1  1.628124  0  0.238437  0.651133  0  4.165587  0
C  C143  1  0.83140263  0.37042873  0.55668314  1  0.922662  0  0.157544  0.34072  0  4.000154  0
C  C144  1  0.68748191  0.26500157  0.80540320  1  0.012098  0  -0.074595  -0.087685  0  3.941445  0
C  C145  1  0.27271132  0.38484028  0.20565609  1  1.633188  0  0.239455  0.650785  0  4.169024  0
C  C146  1  0.75124216  0.29809846  0.28011637  1  -0.074794  0  -0.003548  -0.018833  0  3.923677  0
C  C147  1  0.00123932  0.09950923  0.14626525  1  -0.036691  0  -0.063893  -0.101804  0  3.911121  0
C  C148  1  0.13638062  0.09815071  0.89679619  1  -0.112809  0  -0.004677  -0.023813  0  3.92666  0
C  C149  1  0.03393086  0.59830657  0.59606043  1  0.956261  0  0.163401  0.353111  0  3.976719  0
C  C150  1  0.82705397  0.75727024  0.69209426  1  -0.095568  0  -0.077753  -0.085329  0  3.943555  0
C  C151  1  0.10175780  0.71993353  0.61584050  1  -0.022231  0  -0.080522  -0.09864  0  3.968629  0
C  C152  1  0.88875904  0.37826145  0.50114141  1  -0.147191  0  -0.019449  -0.014166  0  4.011347  0
C  C153  1  0.12559502  0.87854762  0.96648776  1  -0.025959  0  -0.080408  -0.101191  0  3.951534  0
C  C154  1  0.85865516  0.91878728  0.09409996  1  -0.052301  0  -0.017333  -0.018124  0  3.975625  0
C  C155  1  0.73677231  0.93088463  0.23982151  1  0.930176  0  0.163641  0.355965  0  3.973752  0
C  C156  1  0.70261336  0.23510253  0.30547354  1  -0.01242  0  -0.075632  -0.089727  0  3.943871  0
C  C157  1  0.96846220  0.70195064  0.28020065  1  -0.043472  0  -0.004467  -0.020257  0  3.923031  0
C  C158  1  0.64257539  0.37679306  0.28877610  1  1.553426  0  0.213707  0.610951  0  4.190206  0
C  C159  1  0.03110098  0.63731829  0.06353533  1  0.28392  0  -0.127221  -0.264773  0  3.895406  0
C  C160  1  0.25129323  0.28888382  0.14231581  1  -0.094083  0  -0.080274  -0.098429  0  3.962107  0
C  C161  1  0.52154472  0.61527328  0.20556300  1  1.61709  0  0.240916  0.653096  0  4.166176  0
C  C162  1  0.87853182  0.41884673  0.59395199  1  -0.061772  0  -0.016448  -0.018678  0  3.976248  0
C  C163  1  0.32383108  0.71132837  0.73183761  1  -0.040525  0  -0.085647  -0.109557  0  3.974545  0
C  C164  1  0.06863090  0.62331770  0.28885969  1  1.573171  0  0.21395  0.612083  0  4.191024  0
C  C165  1  0.72286906  0.13816756  0.58117703  1  0.242194  0  -0.132083  -0.285673  0  3.917854  0
C  C166  1  0.85141885  0.40050863  0.64624899  1  -0.043285  0  -0.063972  -0.100863  0  3.911874  0
C  C167  1  0.82636224  0.89657302  0.93112841  1  -0.107753  0  -0.074318  -0.076315  0  3.941299  0
C  C168  1  0.94484012  0.28853344  0.73179403  1  -0.133949  0  -0.086491  -0.110154  0  3.974866  0
C  C169  1  0.75817609  0.60878653  0.41450004  1  -0.043313  0  -0.07634  -0.084219  0  3.946215  0
C  C170  1  0.52086864  0.09821461  0.09615489  1  0.97742  0  0.165273  0.355238  0  3.975681  0
C  C171  1  0.17112410  0.01617197  0.07922210  1  -0.016478  0  -0.057311  -0.087165  0  3.889045  0
C  C172  1  0.37065413  0.33180938  0.62828735  1  -0.02335  0  -0.013378  -0.006116  0  3.971581  0
C  C173  1  0.20472644  0.98939535  0.16775958  1  -0.101422  0  -0.062446  -0.10174  0  3.902611  0
C  C174  1  0.32687662  0.78543555  0.74396826  1  -0.03685  0  -0.075256  -0.072804  0  3.943138  0
C  C175  1  0.83269351  0.88576905  0.98316332  1  -0.003315  0  -0.085873  -0.117458  0  3.975001  0
C  C176  1  0.42175063  0.79787729  0.78002039  1  -0.04596  0  -0.002397  -0.019235  0  3.926468  0
C  C177  1  0.62668288  0.01054228  0.16782869  1  -0.031976  0  -0.062138  -0.100185  0  3.899685  0
C  C178  1  0.90429800  0.08212032  0.64257057  1  1.329319  0  0.184699  0.320775  0  4.067595  0
C  C179  1  0.28232752  0.27990717  0.61594607  1  -0.010544  0  -0.081285  -0.098399  0  3.969488  0
C  C180  1  0.82680896  0.39161327  0.41445349  1  -0.01983  0  -0.076793  -0.084036  0  3.944492  0
C  C181  1  0.61078660  0.36192189  0.08115700  1  0.240288  0  -0.132324  -0.281746  0  3.919055  0
C  C182  1  0.98346411  0.21140357  0.23177301  1  -0.045639  0  -0.086311  -0.109579  0  3.971938  0
C  C183  1  0.33376157  0.30826905  0.17994893  1  -0.042438  0  -0.004676  -0.020007  0  3.937812  0
C  C184  1  0.73615512  0.41793111  0.14258355  1  1.343619  0  0.185139  0.321972  0  4.070364  0
C  C185  1  0.95134553  0.92363147  0.84214844  1  1.603197  0  0.239706  0.661576  0  4.140108  0
C  C186  1  0.03332784  0.42390861  0.34209137  1  1.604944  0  0.241498  0.662529  0  4.138044  0
C  C187  1  0.81199021  0.85160186  0.25567444  1  -0.03522  0  -0.014606  -0.001941  0  3.984132  0
C  C188  1  0.36985745  0.40159376  0.59608783  1  0.940495  0  0.161482  0.347807  0  3.980496  0
C  C189  1  0.25006172  0.96972636  0.11589377  1  0.024314  0  -0.014007  -0.008801  0  3.966452  0
C  C190  1  0.79920380  0.20192939  0.78010231  1  -0.089737  0  -0.003276  -0.017441  0  3.92519  0
C  C191  1  0.45353290  0.91788744  0.64257670  1  1.334869  0  0.184547  0.319872  0  4.067456  0
C  C192  1  0.61151826  0.62959284  0.55673835  1  0.909647  0  0.161428  0.347774  0  3.994964  0
C  C193  1  0.48295883  0.51610260  0.57924459  1  -0.069023  0  -0.057958  -0.085236  0  3.88734  0
C  C194  1  0.01640435  0.12180583  0.00113692  1  -0.094017  0  -0.022344  -0.021465  0  4.015074  0
C  C195  1  0.52729592  0.58112730  0.59399551  1  -0.031219  0  -0.017649  -0.021406  0  3.977821  0
C  C196  1  0.44280959  0.87656562  0.78868170  1  1.564664  0  0.213936  0.611437  0  4.19045  0
C  C197  1  0.82994160  0.35166902  0.75558167  1  -0.075469  0  -0.014264  -0.000664  0  3.98218  0
C  C198  1  0.94414854  0.51069843  0.66774672  1  -0.149497  0  -0.061869  -0.100183  0  3.900764  0
C  C199  1  0.04868821  0.38595568  0.48308984  1  -0.008603  0  -0.087292  -0.119696  0  3.978486  0
C  C200  1  0.39205406  0.19174711  0.67996279  1  -0.079676  0  -0.004784  -0.021732  0  3.934629  0
C  C201  1  0.18406663  0.11422807  0.98315074  1  -0.069037  0  -0.0855  -0.115948  0  3.974236  0
C  C202  1  0.98448606  0.40213010  0.39677676  1  -0.045569  0  -0.00495  -0.024382  0  3.922642  0
C  C203  1  0.61823369  0.59826729  0.39677440  1  -0.048696  0  -0.004984  -0.024829  0  3.925218  0
C  C204  1  0.86130965  0.71435926  0.24407628  1  0.000255  0  -0.073887  -0.072631  0  3.938669  0
C  C205  1  0.92840414  0.80829106  0.67981230  1  0.00249  0  -0.005154  -0.022448  0  3.939839  0
C  C206  1  0.75345855  0.62150306  0.46639557  1  -0.020144  0  -0.078682  -0.098979  0  3.953445  0
C  C207  1  0.06791537  0.78871142  0.64219589  1  -0.054321  0  -0.080974  -0.098514  0  3.958805  0
C  C208  1  0.93739940  0.48390459  0.57920096  1  -0.052689  0  -0.057571  -0.084637  0  3.888258  0
C  C209  1  0.41922936  0.83197431  0.12827984  1  -0.0873  0  -0.01362  -0.010181  0  3.973571  0
C  C210  1  0.24276668  0.10330820  0.93115450  1  0.009171  0  -0.074977  -0.077576  0  3.942121  0
C  C211  1  0.50843434  0.73481531  0.80526649  1  -0.073061  0  -0.074665  -0.088232  0  3.94456  0
C  C212  1  0.96809287  0.10868766  0.91440612  1  0.060566  0  -0.076374  -0.084289  0  3.947286  0
C  C213  1  0.46832308  0.31293991  0.66708340  1  -0.004472  0  -0.076654  -0.091958  0  3.961421  0
C  C214  1  0.53077484  0.18683642  0.16723211  1  -0.050401  0  -0.074771  -0.08683  0  3.959479  0
C  C215  1  0.47382344  0.25706628  0.19221105  1  -0.094397  0  -0.079058  -0.08843  0  3.945024  0
C  C216  1  0.69626828  0.86205533  0.58113742  1  0.321427  0  -0.132306  -0.282698  0  3.918402  0
C  C217  1  0.74917627  0.98380227  0.07932516  1  0.010136  0  -0.057338  -0.085356  0  3.886941  0
C  C218  1  0.41870277  0.86262951  0.56351737  1  0.311467  0  -0.126134  -0.262924  0  3.892864  0
C  C219  1  0.77967935  0.37878513  0.46633007  1  -0.033376  0  -0.081361  -0.103312  0  3.952377  0
C  C220  1  0.60968499  0.62182746  0.50118078  1  -0.091599  0  -0.021795  -0.018842  0  4.016316  0
C  C221  1  0.90529717  0.36268254  0.06356004  1  0.295971  0  -0.126595  -0.261872  0  3.894208  0
C  C222  1  0.96720082  0.90171902  0.89683492  1  -0.032397  0  -0.006076  -0.025765  0  3.925274  0
C  C223  1  0.98219289  0.87815844  0.00127878  1  -0.096042  0  -0.020879  -0.016272  0  4.008798  0
N  N224  1  0.52005595  0.88347522  0.59735794  1  -1.241967  0  -0.282652  0.028714  0  3.706795  0
N  N225  1  0.15340361  0.61647396  0.09735435  1  -1.206457  0  -0.280372  0.03141  0  3.708228  0
N  N226  1  0.88291082  0.11662144  0.59739202  1  -1.20997  0  -0.280595  0.029186  0  3.708345  0
N  N227  1  0.74923004  0.38347177  0.09738263  1  -1.208341  0  -0.281059  0.027609  0  3.708667  0
O  O228  1  0.68531117  0.67348580  0.57257677  1  -1.102734  0  -0.259169  -0.41746  0  2.162364  0
O  O229  1  0.80616298  0.94175614  0.83168325  1  -1.198039  0  -0.425916  -0.699412  0  2.364982  0
O  O230  1  0.33659519  0.40327777  0.55213157  1  -1.082216  0  -0.250471  -0.390641  0  2.124699  0
O  O231  1  0.38679372  0.93236988  0.75946519  1  -1.207316  0  -0.414274  -0.760718  0  2.415595  0
O  O232  1  0.03943493  0.06461227  0.65826513  1  -1.175274  0  -0.349533  -0.550686  0  2.391586  0
O  O233  1  0.36278826  0.05790743  0.83179382  1  -1.185436  0  -0.425552  -0.698358  0  2.36797  0
O  O234  1  0.75340586  0.57546207  0.31050565  1  -1.193158  0  -0.376662  -0.659076  0  2.309448  0
O  O235  1  0.04607032  0.01597578  0.27068876  1  -1.07593  0  -0.260788  -0.396302  0  2.070426  0
O  O236  1  0.81270940  0.48392776  0.77072007  1  -1.077087  0  -0.261652  -0.397492  0  2.071682  0
O  O237  1  0.81735724  0.17334152  0.07249387  1  -1.102011  0  -0.25777  -0.416004  0  2.164461  0
O  O238  1  0.85383400  0.43545180  0.15823517  1  -1.168709  0  -0.349696  -0.551658  0  2.393801  0
O  O239  1  0.07946537  0.92467889  0.81059285  1  -1.187907  0  -0.376657  -0.658236  0  2.307701  0
O  O240  1  0.45800762  0.90343274  0.05211457  1  -1.088041  0  -0.251749  -0.392533  0  2.123152  0
O  O241  1  0.37652478  0.41456265  0.22215454  1  -1.205259  0  -0.396459  -0.670811  0  2.312291  0
O  O242  1  0.49747656  0.55813277  0.33164096  1  -1.201613  0  -0.428036  -0.700932  0  2.370514  0
O  O243  1  0.52756066  0.88614935  0.82217556  1  -1.168516  0  -0.372885  -0.612989  0  2.184174  0
O  O244  1  0.17082997  0.44199062  0.33169761  1  -1.203035  0  -0.427703  -0.700092  0  2.366929  0
O  O245  1  0.41767392  0.51588220  0.77073717  1  -1.079379  0  -0.262249  -0.397671  0  2.068888  0
O  O246  1  0.11074631  0.07527811  0.81050244  1  -1.181896  0  -0.376929  -0.657652  0  2.313152  0
O  O247  1  0.73729713  0.91474152  0.72200629  1  -1.209212  0  -0.397269  -0.672923  0  2.311629  0
O  O248  1  0.06883621  0.56748311  0.25960674  1  -1.203779  0  -0.414705  -0.760493  0  2.415509  0
O  O249  1  0.66983130  0.58473505  0.20790078  1  -1.200728  0  -0.402362  -0.682526  0  2.404718  0
O  O250  1  0.74168899  0.32658192  0.57248965  1  -1.095906  0  -0.256091  -0.4133  0  2.164723  0
O  O251  1  0.51493121  0.38642875  0.32233201  1  -1.158488  0  -0.372224  -0.613067  0  2.182746  0
O  O252  1  0.00519565  0.91517058  0.70803886  1  -1.195351  0  -0.402368  -0.683739  0  2.405591  0
O  O253  1  0.93594206  0.42484175  0.31046546  1  -1.185319  0  -0.376849  -0.658199  0  2.305348  0
O  O254  1  0.98775058  0.56476133  0.15825288  1  -1.170872  0  -0.348435  -0.549749  0  2.392059  0
O  O255  1  0.28746403  0.08468336  0.70801692  1  -1.198632  0  -0.401087  -0.681503  0  2.40511  0
O  O256  1  0.85431686  0.06745222  0.75953102  1  -1.205732  0  -0.413746  -0.759694  0  2.41711  0
O  O257  1  0.40134630  0.58551182  0.22210780  1  -1.196261  0  -0.396516  -0.671383  0  2.311986  0
O  O258  1  0.48892743  0.09648915  0.05224533  1  -1.087977  0  -0.253535  -0.394908  0  2.12052  0
O  O259  1  0.54093835  0.08546725  0.72224953  1  -1.207584  0  -0.39582  -0.670958  0  2.311697  0
O  O260  1  0.30269592  0.93536463  0.65825549  1  -1.169554  0  -0.348561  -0.550101  0  2.39258  0
O  O261  1  0.10934255  0.82645611  0.07271684  1  -1.100019  0  -0.256183  -0.414228  0  2.164706  0
O  O262  1  0.65116879  0.11369674  0.82231210  1  -1.170168  0  -0.372448  -0.612485  0  2.182399  0
O  O263  1  0.67162146  0.43255532  0.25947722  1  -1.210822  0  -0.413965  -0.759348  0  2.416063  0
O  O264  1  0.12211948  0.41542710  0.20802833  1  -1.203981  0  -0.401697  -0.682059  0  2.406396  0
O  O265  1  0.68166176  0.98390986  0.27079533  1  -1.078234  0  -0.262132  -0.397371  0  2.067874  0
O  O266  1  0.16293723  0.61378382  0.32236501  1  -1.179988  0  -0.371742  -0.612738  0  2.184701  0
O  O267  1  0.11109110  0.59663895  0.55210512  1  -1.090698  0  -0.251754  -0.393365  0  2.121325  0
