# generated using pymatgen
data_NiH34C36(NO3)2
_symmetry_space_group_name_H-M   'P 1'
_cell_length_a   6.07927111
_cell_length_b   7.35409059
_cell_length_c   17.65464791
_cell_angle_alpha   93.48363683
_cell_angle_beta   99.62930662
_cell_angle_gamma   96.82647638
_symmetry_Int_Tables_number   1
_chemical_formula_structural   NiH34C36(NO3)2
_chemical_formula_sum   'Ni1 H34 C36 N2 O6'
_cell_volume   770.03150577
_cell_formula_units_Z   1
loop_
 _symmetry_equiv_pos_site_id
 _symmetry_equiv_pos_as_xyz
  1  'x, y, z'
loop_
 _atom_site_type_symbol
 _atom_site_label
 _atom_site_symmetry_multiplicity
 _atom_site_fract_x
 _atom_site_fract_y
 _atom_site_fract_z
 _atom_site_occupancy
 _atom_site_hle17_ddec_charge
 _atom_site_hle17_ddec_spin_density
 _atom_site_hle17_ddec_sum_bond_order
 _atom_site_hle17_magmom
 _atom_site_hse06_10hf_ddec_charge
 _atom_site_hse06_10hf_ddec_spin_density
 _atom_site_hse06_10hf_ddec_sum_bond_order
 _atom_site_hse06_10hf_magmom
 _atom_site_hse06_ddec_charge
 _atom_site_hse06_ddec_spin_density
 _atom_site_hse06_ddec_sum_bond_order
 _atom_site_hse06_magmom
 _atom_site_pbe_cm5_charge
 _atom_site_pbe_ddec_charge
 _atom_site_pbe_ddec_spin_density
 _atom_site_pbe_ddec_sum_bond_order
 _atom_site_pbe_magmom
Ni  Ni0  1  0.49999912  0.49999047  0.99999728  1  0.740975  0.009855  2.043898  0.012  0.763563  0.004431  2.475942  0.009  0.913166  0.001737  2.34362  0.007  0.548294  0.657645  0.00457  2.573647  0.008
H  H1  1  0.70747022  0.06886597  0.36078514  1  0.091408  -3e-06  1.007561  0.0  0.098281  3e-06  1.075438  0.0  0.099602  3e-06  1.078163  0.0  0.095146  0.097488  4e-06  1.073349  0.0
H  H2  1  0.29248480  0.93108720  0.63921624  1  0.091388  -2e-06  1.007743  0.0  0.098322  3e-06  1.075558  0.0  0.099638  3e-06  1.078299  0.0  0.095164  0.097529  4e-06  1.073468  0.0
H  H3  1  0.27632534  0.79874428  0.32503212  1  0.096272  6e-06  0.959421  0.0  0.107923  1e-05  1.020019  0.0  0.110526  8e-06  1.019665  0.0  0.10076  0.105943  9e-06  1.020611  0.0
H  H4  1  0.72368038  0.20127636  0.67497070  1  0.09631  6e-06  0.959387  0.0  0.107936  1e-05  1.02001  0.0  0.110537  8e-06  1.019656  0.0  0.100764  0.105954  9e-06  1.020602  0.0
H  H5  1  0.05395148  0.63116083  0.20573484  1  0.107597  -4.5e-05  0.948004  0.0  0.117411  -6e-05  1.009059  0.0  0.120728  -4.8e-05  1.006697  0.0  0.105222  0.115173  -5.2e-05  1.010547  0.0
H  H6  1  0.94607807  0.36883384  0.79426530  1  0.107633  -4.5e-05  0.948063  0.0  0.117455  -6e-05  1.00911  0.0  0.120781  -4.8e-05  1.006721  0.0  0.105236  0.11522  -5.2e-05  1.010586  0.0
H  H7  1  0.48060566  0.89194812  0.24306160  1  0.087438  3e-06  0.992274  0.0  0.095763  1e-06  1.059418  0.0  0.098802  5e-06  1.057379  0.0  0.099292  0.093413  -2e-06  1.061233  0.0
H  H8  1  0.51935936  0.10797030  0.75694577  1  0.087364  3e-06  0.992443  0.0  0.095713  1e-06  1.059605  0.0  0.098768  5e-06  1.057529  0.0  0.099241  0.09336  -2e-06  1.061419  0.0
H  H9  1  0.53451993  0.19998067  0.51697461  1  0.089264  -0.0  0.959763  0.0  0.100777  0.0  1.021665  0.0  0.103002  0.0  1.021622  0.0  0.099164  0.09911  0.0  1.021885  0.0
H  H10  1  0.46541050  0.80003872  0.48302410  1  0.089273  1e-06  0.959658  0.0  0.100734  0.0  1.021609  0.0  0.103002  0.0  1.021516  0.0  0.099149  0.099066  0.0  1.021828  0.0
H  H11  1  0.84179943  0.42345628  0.49149123  1  0.085112  -1e-06  0.958676  0.0  0.100265  -0.0  1.012203  0.0  0.102638  -0.0  1.011535  0.0  0.099531  0.098499  -0.0  1.012862  0.0
H  H12  1  0.15815824  0.57657074  0.50851923  1  0.084957  -0.0  0.95891  0.0  0.100227  -0.0  1.012309  0.0  0.102598  -0.0  1.01164  0.0  0.099557  0.098469  -0.0  1.012958  0.0
H  H13  1  0.82791769  0.54428981  0.36142818  1  0.08272  1e-06  0.98158  0.0  0.092413  2e-06  1.046104  0.0  0.094132  2e-06  1.047166  0.0  0.09377  0.09121  1e-06  1.045302  0.0
H  H14  1  0.17207942  0.45569779  0.63857415  1  0.082775  1e-06  0.981401  0.0  0.092432  2e-06  1.045973  0.0  0.094156  2e-06  1.047027  0.0  0.093769  0.091218  1e-06  1.045183  0.0
H  H15  1  0.49499254  0.44039870  0.25857480  1  0.089021  2e-06  0.964426  0.0  0.100763  0.0  1.021548  0.0  0.102895  4e-06  1.021368  0.0  0.096601  0.099178  -2e-06  1.021844  0.0
H  H16  1  0.50504839  0.55956097  0.74141153  1  0.088968  2e-06  0.964457  0.0  0.100733  0.0  1.02155  0.0  0.102864  4e-06  1.021374  0.0  0.096597  0.099147  -2e-06  1.021843  0.0
H  H17  1  0.18486607  0.21637924  0.28437023  1  0.082484  -1e-06  0.976031  0.0  0.093248  1e-06  1.03887  0.0  0.095793  1e-06  1.038652  0.0  0.094299  0.091529  1e-06  1.038835  0.0
H  H18  1  0.81515674  0.78358183  0.71561532  1  0.082553  1e-06  0.976137  0.0  0.093293  1e-06  1.038987  0.0  0.09584  1e-06  1.038767  0.0  0.094318  0.091573  1e-06  1.038953  0.0
H  H19  1  0.18701945  0.15980629  0.53499503  1  0.085684  1e-06  0.974743  0.0  0.097132  -1e-06  1.039964  0.0  0.099477  -1e-06  1.039519  0.0  0.09741  0.095404  -1e-06  1.040396  0.0
H  H20  1  0.81291664  0.84022482  0.46499133  1  0.085474  -0.0  0.97469  0.0  0.096904  -1e-06  1.039948  0.0  0.099227  -1e-06  1.039534  0.0  0.097338  0.095167  -1e-06  1.040408  0.0
H  H21  1  0.81286194  0.31132119  0.12097386  1  0.121453  -2.7e-05  0.971622  0.0  0.136144  -6.7e-05  1.040648  0.0  0.137967  -6.9e-05  1.039702  0.0  0.1098  0.134493  -4.8e-05  1.041846  0.0
H  H22  1  0.18716717  0.68867420  0.87903761  1  0.121349  -2.7e-05  0.971612  0.0  0.136102  -6.7e-05  1.040587  0.0  0.137923  -6.9e-05  1.039647  0.0  0.109819  0.134452  -4.8e-05  1.041787  0.0
H  H23  1  0.88462492  0.14058761  0.18599461  1  0.098339  -1.8e-05  0.951452  0.0  0.117981  -6e-06  1.015701  0.0  0.118473  -9e-06  1.016958  0.0  0.100846  0.117601  -3e-06  1.014782  0.0
H  H24  1  0.11541021  0.85940820  0.81400979  1  0.098351  -1.9e-05  0.951396  0.0  0.117963  -6e-06  1.015697  0.0  0.118455  -9e-06  1.016958  0.0  0.100843  0.117584  -3e-06  1.014779  0.0
H  H25  1  0.72414362  0.07289556  0.09264983  1  0.109338  -2e-06  0.922362  0.0  0.129603  -1.5e-05  0.982226  0.0  0.130165  -1.4e-05  0.982518  0.0  0.107783  0.129069  -1.2e-05  0.9822  0.0
H  H26  1  0.27589652  0.92710979  0.90735629  1  0.109384  -2e-06  0.922132  0.0  0.129636  -1.5e-05  0.98205  0.0  0.130198  -1.4e-05  0.982349  0.0  0.107861  0.129106  -1.2e-05  0.982018  0.0
H  H27  1  0.27395376  0.97914411  0.05599128  1  0.112719  3.4e-05  0.938932  0.0  0.130142  1.9e-05  1.003247  0.0  0.131207  2e-05  1.002622  0.0  0.110875  0.129261  1.2e-05  1.003832  0.0
H  H28  1  0.72607775  0.02086493  0.94402251  1  0.112661  3.6e-05  0.939024  0.0  0.130144  1.9e-05  1.003301  0.0  0.131183  2e-05  1.002686  0.0  0.110841  0.129254  1.2e-05  1.003894  0.0
H  H29  1  0.01950861  0.87302618  0.08271350  1  0.11203  -9e-06  0.937776  0.0  0.13113  -1.1e-05  1.002138  0.0  0.131436  -5e-06  1.002875  0.0  0.108655  0.130824  -1.5e-05  1.001577  0.0
H  H30  1  0.98054570  0.12698208  0.91731436  1  0.112285  -8e-06  0.937711  0.0  0.131371  -1.1e-05  1.002073  0.0  0.131683  -5e-06  1.00281  0.0  0.108794  0.131063  -1.5e-05  1.001511  0.0
H  H31  1  0.24940728  0.97077692  0.15467247  1  0.101563  -1e-05  0.95618  0.0  0.122814  -2e-06  1.019557  0.0  0.122829  -1e-06  1.019999  0.0  0.104287  0.122672  -3e-06  1.019388  0.0
H  H32  1  0.75065588  0.02927183  0.84534596  1  0.101771  -8e-06  0.956003  0.0  0.123054  -2e-06  1.019342  0.0  0.123063  -1e-06  1.019782  0.0  0.104355  0.122889  -3e-06  1.019193  0.0
H  H33  1  0.09580052  0.43245026  0.07032390  1  0.072375  0.00046  0.925545  0.001  0.077939  0.000519  0.996707  0.001  0.077889  0.00053  0.99235  0.001  0.138052  0.077737  0.00038  1.000472  0.001
H  H34  1  0.90420567  0.56754597  0.92967237  1  0.072303  0.000463  0.925588  0.001  0.077865  0.000519  0.996757  0.001  0.077817  0.00053  0.992396  0.001  0.138008  0.077658  0.00038  1.000532  0.001
C  C35  1  0.78155521  0.97024448  0.32767545  1  -0.125703  -1.3e-05  3.75104  0.0  -0.141963  -2.3e-05  3.997168  0.0  -0.145707  -4e-06  4.018511  0.0  -0.093285  -0.139519  -2.8e-05  3.982762  0.0
C  C36  1  0.21842719  0.02973948  0.67231813  1  -0.125867  -1.4e-05  3.751305  0.0  -0.142263  -2.3e-05  3.997454  0.0  -0.146012  -6e-06  4.0188  0.0  -0.093497  -0.139824  -2.8e-05  3.98305  0.0
C  C37  1  0.10173997  0.82081649  0.30683246  1  -0.125279  0.000106  3.723607  0.0  -0.144085  7.1e-05  3.974508  0.0  -0.148109  7.9e-05  3.994165  0.0  -0.090675  -0.14145  5.1e-05  3.96155  0.0
C  C38  1  0.89826964  0.17920987  0.69316678  1  -0.125425  0.000108  3.723884  0.0  -0.144274  7.1e-05  3.974741  0.0  -0.148302  7.9e-05  3.994401  0.0  -0.09079  -0.141637  5.1e-05  3.961786  0.0
C  C39  1  0.97503863  0.72378143  0.24015248  1  -0.066621  -0.000216  3.723997  0.0  -0.089321  -0.000292  3.973446  0.0  -0.087041  -0.000279  3.990975  0.0  -0.083246  -0.090794  -0.000234  3.961628  0.0
C  C40  1  0.02498136  0.27622709  0.75984602  1  -0.066489  -0.000217  3.724307  0.0  -0.089204  -0.000292  3.973696  0.0  -0.086914  -0.000281  3.99123  0.0  -0.083247  -0.090687  -0.000234  3.961895  0.0
C  C41  1  0.74978563  0.75044470  0.21677075  1  -0.075969  0.000486  3.775299  0.001  -0.052449  0.000722  4.004072  0.001  -0.060919  0.000638  4.025708  0.001  -0.022228  -0.046976  0.000636  3.989788  0.001
C  C42  1  0.25022074  0.24953686  0.78321705  1  -0.076276  0.000487  3.776284  0.001  -0.052713  0.000721  4.005052  0.001  -0.061205  0.000639  4.026716  0.001  -0.022305  -0.04723  0.000635  3.990759  0.001
C  C43  1  0.65517627  0.87252708  0.26190185  1  -0.075394  -0.000287  3.775373  0.0  -0.098992  -0.000309  4.022318  0.0  -0.098664  -0.000277  4.042067  0.0  -0.087524  -0.098969  -0.000261  4.00915  0.0
C  C44  1  0.34480598  0.12743483  0.73809205  1  -0.074976  -0.000293  3.775867  0.0  -0.098614  -0.000309  4.022748  0.0  -0.098282  -0.000277  4.042511  0.0  -0.087242  -0.09859  -0.000261  4.009577  0.0
C  C45  1  0.60111908  0.66101661  0.14449651  1  0.610754  2.3e-05  3.914849  0.001  0.570506  -0.000494  4.214258  0.0  0.609602  -0.000462  4.210924  0.0  0.199847  0.543292  -0.000372  4.215652  0.0
C  C46  1  0.39886569  0.33896646  0.85548864  1  0.610989  2.8e-05  3.914227  0.001  0.57069  -0.000494  4.213715  0.0  0.609795  -0.000463  4.210382  0.0  0.19991  0.543462  -0.000372  4.215112  0.0
C  C47  1  0.52257335  0.25461680  0.46065185  1  -0.111537  2e-06  3.738859  0.0  -0.129694  1e-06  3.983493  0.0  -0.132099  1e-06  4.004761  0.0  -0.090308  -0.128055  -1e-06  3.969064  0.0
C  C48  1  0.47736047  0.74540255  0.53934758  1  -0.111388  -2.2e-05  3.738978  0.0  -0.129542  1e-06  3.983657  0.0  -0.131983  1e-06  4.004906  0.0  -0.090314  -0.127902  -1e-06  3.969235  0.0
C  C49  1  0.69725281  0.38027828  0.44592915  1  -0.065841  -2e-06  3.787309  0.0  -0.079238  -1e-06  4.036682  0.0  -0.080882  -1e-06  4.057579  0.0  -0.09183  -0.077964  -0.0  4.022334  0.0
C  C50  1  0.30269538  0.61973689  0.55407136  1  -0.065823  1.1e-05  3.787408  0.0  -0.079308  -1e-06  4.036774  0.0  -0.08095  -2e-06  4.057679  0.0  -0.09197  -0.078041  0.0  4.02243  0.0
C  C51  1  0.68974118  0.44777156  0.37332058  1  -0.079168  1e-06  3.767586  0.0  -0.093982  1e-06  4.017766  0.0  -0.095699  2e-06  4.039399  0.0  -0.096332  -0.092599  -1e-06  4.002788  0.0
C  C52  1  0.31024242  0.55223681  0.62667963  1  -0.079165  -1.8e-05  3.767529  0.0  -0.093943  1e-06  4.017711  0.0  -0.095662  3e-06  4.039339  0.0  -0.096287  -0.092553  -1e-06  4.002745  0.0
C  C53  1  0.50416231  0.38784901  0.31530179  1  -0.071792  -8e-06  3.786216  0.0  -0.081482  -9e-06  4.029332  0.0  -0.083367  -8e-06  4.051519  0.0  -0.096747  -0.080183  -8e-06  4.014174  0.0
C  C54  1  0.49584067  0.61212955  0.68469028  1  -0.071671  7e-06  3.786519  0.0  -0.081383  -9e-06  4.029621  0.0  -0.083267  -8e-06  4.051812  0.0  -0.096676  -0.080082  -8e-06  4.014448  0.0
C  C55  1  0.32965197  0.26129780  0.32976772  1  -0.115388  2e-06  3.738258  0.0  -0.131847  -2e-06  3.977894  0.0  -0.134938  1e-06  3.999557  0.0  -0.093495  -0.129483  -5e-06  3.962789  0.0
C  C56  1  0.67033887  0.73868608  0.67022738  1  -0.115333  -2.3e-05  3.738893  0.0  -0.131806  -2e-06  3.978499  0.0  -0.1349  1e-06  4.000163  0.0  -0.093525  -0.129438  -5e-06  3.963387  0.0
C  C57  1  0.33450883  0.19256349  0.40287000  1  0.044832  -1.1e-05  3.796681  0.0  0.062096  -4e-06  4.025087  0.0  0.061807  -4e-06  4.049645  0.0  -0.011357  0.062405  -3e-06  4.008372  0.0
C  C58  1  0.66543097  0.80744218  0.59712807  1  0.044539  9e-06  3.796845  0.0  0.061872  -4e-06  4.02519  0.0  0.061582  -4e-06  4.049763  0.0  -0.011257  0.062183  -3e-06  4.008467  0.0
C  C59  1  0.14513361  0.06354993  0.41787809  1  0.000121  -2e-06  3.72629  0.0  0.010923  -1e-06  3.962781  0.0  0.010291  3e-06  3.985742  0.0  -0.007105  0.011127  -1.1e-05  3.947289  0.0
C  C60  1  0.85483616  0.93648092  0.58211379  1  0.000301  -5.8e-05  3.726049  0.0  0.011045  -1e-06  3.962505  0.0  0.01041  3e-06  3.985464  0.0  -0.007177  0.011252  -1.1e-05  3.947007  0.0
C  C61  1  0.00833195  0.94744550  0.35081377  1  0.064244  -9.5e-05  3.78404  0.0  0.07886  -8.4e-05  4.014214  0.0  0.080592  -7.6e-05  4.036612  0.0  -0.004669  0.077717  -7.3e-05  3.999183  0.0
C  C62  1  0.99165340  0.05257692  0.64918137  1  0.064178  -9.6e-05  3.784186  0.0  0.078999  -8.4e-05  4.014105  0.0  0.080734  -7.4e-05  4.036509  0.0  -0.004515  0.077852  -7.3e-05  3.999077  0.0
C  C63  1  0.08900736  0.06084170  0.48967962  1  -0.106029  -7.6e-05  3.775178  0.0  -0.131076  -4.5e-05  4.03401  0.0  -0.132714  -3.4e-05  4.054257  0.0  -0.092828  -0.129759  -4.8e-05  4.019882  0.0
C  C64  1  0.91095227  0.93922096  0.51030957  1  -0.106022  -2.9e-05  3.775179  0.0  -0.131079  -4.5e-05  4.034096  0.0  -0.132705  -3.3e-05  4.054371  0.0  -0.092855  -0.129768  -4.8e-05  4.019961  0.0
C  C65  1  0.86088795  0.17291483  0.12538847  1  -0.179923  0.000177  3.629837  0.0  -0.27947  0.000128  3.875593  0.0  -0.27726  0.000133  3.886655  0.0  -0.131068  -0.280642  0.000101  3.86832  0.0
C  C66  1  0.13912650  0.82709295  0.87462278  1  -0.17999  0.00018  3.629863  0.0  -0.27955  0.000128  3.875735  0.0  -0.277351  0.000133  3.886804  0.0  -0.131145  -0.280732  0.000101  3.868468  0.0
C  C67  1  0.15798608  0.98614487  0.09688088  1  -0.168102  8e-05  3.630823  0.0  -0.270744  0.00011  3.879534  0.0  -0.266344  0.000107  3.88951  0.0  -0.136251  -0.273267  8.3e-05  3.872479  0.0
C  C68  1  0.84206605  0.01386525  0.90313845  1  -0.168729  7e-05  3.631109  0.0  -0.271431  0.000109  3.879829  0.0  -0.266996  0.000102  3.889807  0.0  -0.13654  -0.273932  8.3e-05  3.872787  0.0
C  C69  1  0.17476118  0.30601380  0.06921283  1  0.380321  -0.000745  3.730371  -0.001  0.309475  -9.8e-05  4.016989  -0.001  0.341892  -0.000183  4.024029  -0.001  0.185116  0.286879  -4.2e-05  4.011401  -0.001
C  C70  1  0.82526420  0.69398489  0.93078896  1  0.380517  -0.000761  3.730387  -0.001  0.309677  -9.8e-05  4.016984  -0.001  0.342093  -0.000184  4.024008  -0.001  0.185225  0.287077  -4.2e-05  4.011407  -0.001
N  N71  1  0.06726402  0.16080178  0.09472812  1  -0.07198  0.000635  3.511322  0.001  0.032992  0.000981  3.740787  0.001  0.013008  0.001006  3.765794  0.001  -0.27342  0.046384  0.000721  3.723435  0.001
N  N72  1  0.93277315  0.83920485  0.90527961  1  -0.071767  0.000646  3.511487  0.001  0.033186  0.000981  3.740982  0.001  0.013216  0.00101  3.765962  0.001  -0.273459  0.046588  0.000721  3.72361  0.001
O  O73  1  0.36081045  0.29943388  0.04574148  1  -0.469117  0.010641  2.202266  0.012  -0.440563  0.009896  2.494895  0.01  -0.491483  0.010621  2.485151  0.01  -0.289851  -0.404225  0.007117  2.501452  0.007
O  O74  1  0.63922399  0.70056238  0.95425497  1  -0.469222  0.010639  2.202395  0.012  -0.440672  0.009889  2.495007  0.01  -0.491584  0.010615  2.48525  0.01  -0.289852  -0.404335  0.007113  2.501563  0.007
O  O75  1  0.39431386  0.66925050  0.13484876  1  -0.60686  -0.000993  1.953368  -0.001  -0.570922  -0.001385  2.191541  -0.001  -0.597882  -0.001188  2.181244  -0.001  -0.312363  -0.552644  -0.001222  2.199438  -0.001
O  O76  1  0.60571354  0.33074450  0.86514562  1  -0.607076  -0.001001  1.952687  -0.001  -0.57111  -0.00139  2.19089  -0.001  -0.598084  -0.001191  2.180586  -0.001  -0.312434  -0.552828  -0.001228  2.198789  -0.001
O  O77  1  0.70136728  0.58196206  0.09380195  1  -0.580748  -0.014998  2.09991  -0.015  -0.560402  -0.01176  2.389136  -0.011  -0.618101  -0.01136  2.378738  -0.01  -0.315946  -0.518552  -0.008948  2.395462  -0.008
O  O78  1  0.29865989  0.41803156  0.90619237  1  -0.580722  -0.015008  2.099819  -0.015  -0.560372  -0.011765  2.389134  -0.011  -0.618073  -0.011364  2.378737  -0.01  -0.315921  -0.518519  -0.008953  2.395459  -0.008
