# generated using pymatgen
data_CuH10C18(NO)4
_symmetry_space_group_name_H-M   'P 1'
_cell_length_a   6.78596121
_cell_length_b   8.26733850
_cell_length_c   14.22034029
_cell_angle_alpha   106.23595070
_cell_angle_beta   97.54344667
_cell_angle_gamma   93.09458719
_symmetry_Int_Tables_number   1
_chemical_formula_structural   CuH10C18(NO)4
_chemical_formula_sum   'Cu2 H20 C36 N8 O8'
_cell_volume   755.88656368
_cell_formula_units_Z   2
loop_
 _symmetry_equiv_pos_site_id
 _symmetry_equiv_pos_as_xyz
  1  'x, y, z'
loop_
 _atom_site_type_symbol
 _atom_site_label
 _atom_site_symmetry_multiplicity
 _atom_site_fract_x
 _atom_site_fract_y
 _atom_site_fract_z
 _atom_site_occupancy
 _atom_site_hle17_ddec_charge
 _atom_site_hle17_ddec_spin_density
 _atom_site_hle17_ddec_sum_bond_order
 _atom_site_hle17_magmom
 _atom_site_hse06_10hf_ddec_charge
 _atom_site_hse06_10hf_ddec_spin_density
 _atom_site_hse06_10hf_ddec_sum_bond_order
 _atom_site_hse06_10hf_magmom
 _atom_site_hse06_ddec_charge
 _atom_site_hse06_ddec_spin_density
 _atom_site_hse06_ddec_sum_bond_order
 _atom_site_hse06_magmom
 _atom_site_pbe_cm5_charge
 _atom_site_pbe_ddec_charge
 _atom_site_pbe_ddec_spin_density
 _atom_site_pbe_ddec_sum_bond_order
 _atom_site_pbe_magmom
Cu  Cu0  1  0.59810255  0.52081900  0.40623418  1  0.858344  -0.685971  1.868382  -0.486  0.848488  -0.798304  2.265234  -0.631  0.945406  -0.887157  2.192504  -0.732  0.749028  0.788636  -0.707981  2.315938  -0.543
Cu  Cu1  1  0.40190087  0.47918008  0.59376913  1  0.85842  0.685965  1.868303  0.486  0.848448  0.798298  2.265321  0.631  0.945448  0.887154  2.19247  0.732  0.749042  0.788584  0.707981  2.315994  0.543
H  H2  1  0.54140256  0.14686553  0.59610714  1  0.113354  -0.000157  0.956257  0.0  0.117279  -0.000135  1.025397  0.0  0.120928  -0.000134  1.023083  0.0  0.106629  0.114737  -0.000126  1.027294  0.0
H  H3  1  0.45857226  0.85313149  0.40389742  1  0.11326  0.000153  0.956304  0.0  0.117171  0.000135  1.025485  0.0  0.120829  0.000134  1.023177  0.0  0.106627  0.11463  0.000126  1.027388  0.0
H  H4  1  0.08614839  0.99887977  0.40470127  1  0.11716  -0.000781  0.951759  -0.001  0.124516  -0.000496  1.014561  -0.001  0.127045  -0.000284  1.014162  0.0  0.105577  0.12299  -0.000665  1.014652  -0.001
H  H5  1  0.91383598  0.00113222  0.59530065  1  0.117081  0.000784  0.951824  0.001  0.124399  0.000497  1.014658  0.001  0.126923  0.000284  1.014266  0.0  0.105505  0.122878  0.000665  1.014749  0.001
H  H6  1  0.97865396  0.33292570  0.41106695  1  0.106429  -0.001625  0.949615  -0.003  0.113083  -0.001354  1.013284  -0.003  0.115767  -0.000969  1.010473  -0.002  0.124908  0.110433  -0.001573  1.016091  -0.003
H  H7  1  0.02134864  0.66706704  0.58893461  1  0.106345  0.001624  0.949653  0.003  0.113051  0.001355  1.013277  0.003  0.115736  0.00097  1.010465  0.002  0.124882  0.110398  0.001572  1.016088  0.003
H  H8  1  0.14132233  0.14821641  0.28101154  1  0.115298  -0.000623  0.965746  -0.001  0.124393  -0.00057  1.02636  -0.001  0.127498  -0.000396  1.025423  0.0  0.110584  0.121781  -0.000675  1.027651  -0.001
H  H9  1  0.85867445  0.85177632  0.71898470  1  0.115308  0.000622  0.965721  0.001  0.124368  0.00057  1.02637  0.001  0.127472  0.000396  1.025436  0.0  0.110575  0.121754  0.000675  1.027661  0.001
H  H10  1  0.98402911  0.07989593  0.10069652  1  0.110691  -0.000429  0.949941  -0.001  0.111039  -6.1e-05  1.0273  0.0  0.115285  -1.1e-05  1.022504  0.0  0.109909  0.107975  -0.000116  1.03077  0.0
H  H11  1  0.01597617  0.92010423  0.89929795  1  0.110678  0.000428  0.949809  0.001  0.111019  6.1e-05  1.027208  0.0  0.115269  1.1e-05  1.022403  0.0  0.109876  0.107937  0.000115  1.030696  0.0
H  H12  1  0.12452070  0.44842335  0.01504802  1  0.099486  -0.000104  0.96565  0.0  0.107945  2.4e-05  1.032856  0.0  0.111262  2.4e-05  1.029138  0.0  0.109667  0.105518  2.1e-05  1.035592  0.0
H  H13  1  0.87549460  0.55158558  0.98495060  1  0.09951  0.000101  0.965654  0.0  0.107935  -2.4e-05  1.032902  0.0  0.111265  -2.4e-05  1.029157  0.0  0.10968  0.105519  -2.1e-05  1.035648  0.0
H  H14  1  0.99218648  0.62519876  0.16830362  1  0.126742  -0.00026  0.947477  0.0  0.131288  -0.000261  1.014251  0.0  0.136217  -0.000188  1.010786  0.0  0.112148  0.127661  -0.00031  1.016921  0.0
H  H15  1  0.00782375  0.37481655  0.83169425  1  0.126724  0.000259  0.947436  0.0  0.131313  0.000261  1.014161  0.0  0.136244  0.000189  1.010693  0.0  0.112159  0.127684  0.00031  1.016823  0.0
H  H16  1  0.18154168  0.64751947  0.33414939  1  0.088701  -0.000703  0.94302  -0.001  0.098855  -0.000625  1.002757  -0.001  0.100991  -0.000434  1.000604  -0.001  0.122052  0.096769  -0.000761  1.00479  -0.001
H  H17  1  0.81846187  0.35247951  0.66584829  1  0.088678  0.000705  0.94298  0.001  0.098843  0.000625  1.002714  0.001  0.100978  0.000434  1.000556  0.001  0.122082  0.096753  0.000761  1.004748  0.001
H  H18  1  0.36496965  0.15035236  0.77708493  1  0.10811  1.4e-05  0.95922  0.0  0.113413  -3e-06  1.024008  0.0  0.117548  4e-06  1.020898  0.0  0.116758  0.110026  -1.1e-05  1.026668  0.0
H  H19  1  0.63504055  0.84966298  0.22291435  1  0.108055  -1.3e-05  0.959095  0.0  0.11334  3e-06  1.023904  0.0  0.117472  -4e-06  1.020796  0.0  0.116712  0.10996  1.1e-05  1.026565  0.0
H  H20  1  0.67686792  0.00949518  0.80596375  1  0.089621  -4.2e-05  0.959812  0.0  0.098128  -2.5e-05  1.022164  0.0  0.101207  -6e-06  1.019868  0.0  0.115127  0.095742  -4.7e-05  1.024023  0.0
H  H21  1  0.32314365  0.99051883  0.19403330  1  0.089642  4e-05  0.959775  0.0  0.098128  2.5e-05  1.022155  0.0  0.101207  6e-06  1.019858  0.0  0.115128  0.095746  4.7e-05  1.024012  0.0
C  C22  1  0.51066790  0.18966923  0.44755592  1  0.679562  -0.004534  3.87475  -0.006  0.646588  0.000812  4.164034  0.0  0.685658  0.000423  4.15493  0.0  0.204134  0.619216  0.001468  4.169291  0.0
C  C23  1  0.48932064  0.81031868  0.55244604  1  0.679011  0.004536  3.875405  0.006  0.646127  -0.000813  4.16456  0.0  0.685196  -0.000423  4.155461  0.0  0.203858  0.618755  -0.00147  4.16981  0.0
C  C24  1  0.51407502  0.08443709  0.51656073  1  -0.167085  -0.000301  3.690413  0.0  -0.184111  -0.002057  3.936975  -0.002  -0.189961  -0.001116  3.951944  -0.001  -0.084738  -0.180672  -0.002834  3.927733  -0.003
C  C25  1  0.48588921  0.91555886  0.48344506  1  -0.166779  0.000309  3.690507  0.0  -0.183807  0.002057  3.936961  0.002  -0.189671  0.001115  3.951941  0.001  -0.084681  -0.180372  0.002834  3.927721  0.003
C  C26  1  0.87840217  0.78761938  0.40686265  1  0.647377  0.003529  3.948857  0.007  0.611135  0.000306  4.253244  0.002  0.647578  0.000505  4.24643  0.002  0.188042  0.586154  -9.4e-05  4.256577  0.002
C  C27  1  0.12158870  0.21238625  0.59314224  1  0.647126  -0.003528  3.948971  -0.007  0.610891  -0.000306  4.253345  -0.002  0.647331  -0.000503  4.246546  -0.002  0.187937  0.585902  9.4e-05  4.256664  -0.002
C  C28  1  0.00155367  0.95230724  0.45347027  1  -0.163765  -0.016522  3.662202  -0.016  -0.181718  -0.005562  3.912012  -0.006  -0.187718  -0.003629  3.928256  -0.004  -0.091418  -0.17754  -0.007183  3.900786  -0.008
C  C29  1  0.99842903  0.04770352  0.54653205  1  -0.163373  0.016518  3.662164  0.016  -0.181267  0.005562  3.911938  0.006  -0.187262  0.003629  3.928188  0.004  -0.091256  -0.177084  0.007183  3.900704  0.008
C  C30  1  0.91358015  0.30449417  0.33311357  1  0.163532  0.009787  3.613231  0.011  0.132928  0.001405  3.869114  0.003  0.145305  0.002665  3.883719  0.004  0.068368  0.124419  0.000362  3.861125  0.001
C  C31  1  0.08642199  0.69549475  0.66688596  1  0.163516  -0.009793  3.613288  -0.011  0.132867  -0.001405  3.869173  -0.003  0.145242  -0.002665  3.88379  -0.004  0.068279  0.124355  -0.000362  3.861172  -0.001
C  C32  1  0.00288636  0.19777607  0.25861535  1  -0.103034  -0.012939  3.677874  -0.014  -0.114989  -0.005811  3.926422  -0.007  -0.122919  -0.005129  3.946576  -0.006  -0.072932  -0.110217  -0.006064  3.913932  -0.007
C  C33  1  0.99711103  0.80221035  0.74138135  1  -0.103087  0.012953  3.677795  0.014  -0.115005  0.005811  3.926362  0.007  -0.122935  0.00513  3.946515  0.006  -0.072908  -0.110233  0.006064  3.913859  0.007
C  C34  1  0.91769539  0.16226367  0.16009773  1  -0.020142  0.011259  3.655637  0.01  -0.046162  0.003783  3.906062  0.004  -0.041927  0.004003  3.922593  0.004  -0.05502  -0.049001  0.00346  3.895167  0.003
C  C35  1  0.08230896  0.83773024  0.83989991  1  -0.020053  -0.011275  3.655242  -0.01  -0.046091  -0.003782  3.905688  -0.004  -0.041853  -0.004005  3.922215  -0.004  -0.055009  -0.048921  -0.00346  3.894797  -0.003
C  C36  1  0.74133369  0.23501391  0.13675456  1  -0.032735  -0.007994  3.742101  -0.009  -0.020781  -0.003467  3.972239  -0.004  -0.026293  -0.00305  3.997237  -0.004  0.005448  -0.017215  -0.003647  3.955616  -0.004
C  C37  1  0.25867032  0.76497747  0.86324267  1  -0.03289  0.008009  3.742035  0.009  -0.02095  0.003467  3.972166  0.004  -0.026461  0.00305  3.997162  0.004  0.00543  -0.017375  0.003647  3.955514  0.004
C  C38  1  0.65930452  0.33882946  0.21581352  1  0.148304  0.004594  3.752995  0.006  0.13715  -7.4e-05  4.000173  0.001  0.144393  0.001179  4.020703  0.003  0.125023  0.132454  -0.001025  3.98692  0.0
C  C39  1  0.34070078  0.66116066  0.78418501  1  0.148248  -0.004609  3.752922  -0.006  0.137086  7.3e-05  4.000124  -0.001  0.144328  -0.00118  4.020659  -0.003  0.124976  0.132387  0.001024  3.986866  0.0
C  C40  1  0.47572086  0.41306583  0.19865356  1  0.150517  -0.000159  3.76424  0.0  0.141623  -0.000512  4.010904  0.0  0.148384  -0.000148  4.030518  0.0  0.121445  0.137098  -0.000739  3.998227  -0.001
C  C41  1  0.52428376  0.58693066  0.80134732  1  0.150682  0.000164  3.764054  0.0  0.141759  0.00051  4.010702  0.0  0.148534  0.000149  4.030332  0.0  0.121475  0.137229  0.000738  3.998014  0.001
C  C42  1  0.37695498  0.38888876  0.10179775  1  -0.026741  -0.001094  3.750531  -0.001  -0.012426  -0.000799  3.977157  -0.001  -0.016715  -0.000637  3.999715  -0.001  0.005408  -0.010041  -0.000933  3.962661  -0.001
C  C43  1  0.62304072  0.61110787  0.89820325  1  -0.026725  0.00109  3.750577  0.001  -0.012345  0.0008  3.977123  0.001  -0.016682  0.000636  3.999744  0.001  0.005438  -0.009946  0.000933  3.962608  0.001
C  C44  1  0.20019708  0.46701742  0.09007053  1  -0.027076  0.003925  3.676805  0.004  -0.05685  0.002162  3.92684  0.002  -0.051609  0.001915  3.94212  0.002  -0.061979  -0.060433  0.002413  3.916864  0.002
C  C45  1  0.79980430  0.53298795  0.90992940  1  -0.027144  -0.003916  3.676974  -0.004  -0.056921  -0.002163  3.927006  -0.002  -0.051664  -0.001915  3.942306  -0.002  -0.062004  -0.060524  -0.002413  3.916976  -0.002
C  C46  1  0.12909031  0.56277851  0.17301405  1  -0.11199  -0.003484  3.699005  -0.004  -0.12295  -0.002151  3.949177  -0.003  -0.130522  -0.001826  3.968311  -0.002  -0.077038  -0.118283  -0.002334  3.93716  -0.003
C  C47  1  0.87091475  0.43723185  0.82698550  1  -0.112003  0.003479  3.698975  0.004  -0.122987  0.002152  3.949153  0.003  -0.130564  0.001825  3.968282  0.002  -0.077061  -0.118315  0.002334  3.937137  0.003
C  C48  1  0.23534793  0.57730184  0.26711697  1  0.153904  0.003893  3.665874  0.004  0.126998  0.001381  3.921339  0.002  0.138036  0.001543  3.93724  0.002  0.060341  0.11942  0.001254  3.912127  0.002
C  C49  1  0.76465907  0.42270091  0.73288223  1  0.15403  -0.003893  3.665889  -0.004  0.127088  -0.001381  3.92137  -0.002  0.138132  -0.001543  3.937269  -0.002  0.060312  0.119505  -0.001254  3.912149  -0.002
C  C50  1  0.63960142  0.20859912  0.03607957  1  0.123094  -2e-05  3.765356  0.0  0.119396  -0.000516  4.013158  -0.001  0.121411  -0.000233  4.036183  0.0  0.119649  0.117982  -0.000707  3.997557  -0.001
C  C51  1  0.36040375  0.79140113  0.96391983  1  0.123174  6e-06  3.765357  0.0  0.119595  0.000516  4.012988  0.001  0.121612  0.000232  4.036007  0.0  0.119708  0.118179  0.000706  3.997391  0.001
C  C52  1  0.46106650  0.28534780  0.01897347  1  0.124606  -0.001057  3.768558  -0.001  0.11851  -0.000365  4.018338  0.0  0.120692  -0.000389  4.040248  0.0  0.120117  0.11711  -0.000331  4.00349  0.0
C  C53  1  0.53893434  0.71465382  0.98102795  1  0.124571  0.001065  3.768549  0.001  0.118401  0.000364  4.018337  0.0  0.120596  0.000388  4.040256  0.0  0.120087  0.116998  0.000331  4.003486  0.0
C  C54  1  0.44283860  0.16694189  0.85195278  1  0.086913  -0.001024  3.667227  -0.001  0.062399  -0.000246  3.927338  0.0  0.06499  -0.000338  3.942605  0.0  0.056922  0.060594  -0.000167  3.917494  0.0
C  C55  1  0.55716847  0.83307223  0.14804610  1  0.086915  0.001035  3.667261  0.001  0.062443  0.000245  3.927313  0.0  0.065035  0.000339  3.942583  0.0  0.056968  0.060631  0.000167  3.917476  0.0
C  C56  1  0.61894945  0.08967782  0.86904994  1  0.076758  0.00024  3.698412  0.0  0.051481  -6.8e-05  3.960629  0.0  0.05396  1e-06  3.97724  0.0  0.053163  0.049716  -0.000131  3.949628  0.0
C  C57  1  0.38106192  0.91033495  0.13094831  1  0.076819  -0.000246  3.698422  0.0  0.051539  6.8e-05  3.960622  0.0  0.054016  -1e-06  3.977233  0.0  0.053195  0.049774  0.000131  3.94962  0.0
N  N58  1  0.40427822  0.50530100  0.27972773  1  -0.337253  -0.034078  3.309719  -0.043  -0.300517  -0.027719  3.615772  -0.038  -0.325868  -0.023037  3.630119  -0.034  -0.335372  -0.286052  -0.029328  3.608889  -0.039
N  N59  1  0.59572478  0.49469422  0.72027144  1  -0.337395  0.034084  3.309657  0.043  -0.300622  0.027725  3.615729  0.038  -0.325994  0.023041  3.630076  0.034  -0.335343  -0.286151  0.029336  3.608817  0.039
N  N60  1  0.74628019  0.37234874  0.31144810  1  -0.296793  -0.096291  3.357811  -0.118  -0.255487  -0.069517  3.652637  -0.092  -0.289368  -0.056439  3.674341  -0.078  -0.336069  -0.236381  -0.073384  3.641278  -0.093
N  N61  1  0.25372696  0.62764386  0.68854953  1  -0.296655  0.096304  3.357613  0.118  -0.25531  0.069519  3.652428  0.092  -0.289211  0.056442  3.674137  0.078  -0.336008  -0.236199  0.073389  3.641044  0.093
N  N62  1  0.36450777  0.26430665  0.92635862  1  -0.286454  0.00025  3.030521  0.0  -0.256998  -4.9e-05  3.297972  0.0  -0.265232  1.9e-05  3.312743  0.0  -0.296866  -0.25111  -9.3e-05  3.287854  0.0
N  N63  1  0.63549787  0.73569742  0.07364281  1  -0.286379  -0.000259  3.030455  0.0  -0.256927  5e-05  3.297888  0.0  -0.26516  -1.8e-05  3.312655  0.0  -0.296839  -0.251037  9.3e-05  3.287777  0.0
N  N64  1  0.71723627  0.10954728  0.95948088  1  -0.295932  -0.000971  3.045787  -0.001  -0.265436  -0.000345  3.312765  0.0  -0.274075  -0.000338  3.328616  0.0  -0.30037  -0.259164  -0.000339  3.30181  0.0
N  N65  1  0.28276761  0.89045423  0.04051722  1  -0.29604  0.000981  3.045773  0.001  -0.265586  0.000345  3.312722  0.0  -0.274224  0.000339  3.328571  0.0  -0.300457  -0.259316  0.000339  3.301773  0.0
O  O66  1  0.56106807  0.35346506  0.49136933  1  -0.642223  0.049449  2.135504  0.062  -0.621998  0.026606  2.450502  0.035  -0.675085  0.020471  2.437231  0.028  -0.351632  -0.584336  0.030022  2.458898  0.039
O  O67  1  0.43893435  0.64652644  0.50863273  1  -0.64198  -0.049441  2.135962  -0.062  -0.621784  -0.026602  2.450921  -0.035  -0.67487  -0.020469  2.43765  -0.028  -0.351469  -0.584121  -0.030023  2.459313  -0.039
O  O68  1  0.47018941  0.12816993  0.35638460  1  -0.564586  0.025201  1.907215  0.031  -0.533761  0.013015  2.131593  0.018  -0.559042  0.008355  2.124439  0.012  -0.298249  -0.514589  0.017251  2.135298  0.022
O  O69  1  0.52980373  0.87181920  0.64361857  1  -0.564405  -0.025208  1.907216  -0.031  -0.533617  -0.013018  2.131552  -0.018  -0.558895  -0.008357  2.124392  -0.012  -0.298191  -0.514446  -0.017256  2.135251  -0.022
O  O70  1  0.82628040  0.70427531  0.46631227  1  -0.611517  -0.085792  2.035771  -0.112  -0.589325  -0.041784  2.314178  -0.062  -0.634303  -0.02807  2.307206  -0.045  -0.330148  -0.558403  -0.049263  2.318474  -0.069
O  O71  1  0.17370967  0.29572397  0.53369016  1  -0.611523  0.085779  2.035639  0.112  -0.589275  0.04178  2.313999  0.062  -0.634268  0.028067  2.30703  0.045  -0.330139  -0.558353  0.049261  2.318276  0.069
O  O72  1  0.82895786  0.74275114  0.31458728  1  -0.601297  0.000125  1.919578  -0.001  -0.573237  -0.000449  2.154796  -0.001  -0.59905  0.00016  2.147375  0.0  -0.318608  -0.553093  -0.000723  2.158324  -0.002
O  O73  1  0.17103942  0.25724680  0.68541755  1  -0.601241  -0.000122  1.919708  0.001  -0.573207  0.000449  2.154948  0.001  -0.599025  -0.00016  2.147532  0.0  -0.318574  -0.553064  0.000723  2.158469  0.002
