# generated using pymatgen
data_ZnH11C14N2O7
_symmetry_space_group_name_H-M   'P 1'
_cell_length_a   7.20571682
_cell_length_b   9.50914318
_cell_length_c   12.30739014
_cell_angle_alpha   68.35934165
_cell_angle_beta   80.74662428
_cell_angle_gamma   73.83602301
_symmetry_Int_Tables_number   1
_chemical_formula_structural   ZnH11C14N2O7
_chemical_formula_sum   'Zn2 H22 C28 N4 O14'
_cell_volume   751.27945613
_cell_formula_units_Z   2
loop_
 _symmetry_equiv_pos_site_id
 _symmetry_equiv_pos_as_xyz
  1  'x, y, z'
loop_
 _atom_site_type_symbol
 _atom_site_label
 _atom_site_symmetry_multiplicity
 _atom_site_fract_x
 _atom_site_fract_y
 _atom_site_fract_z
 _atom_site_occupancy
 _atom_site_hle17_bader_spin_density
 _atom_site_hle17_ddec_charge
 _atom_site_hle17_ddec_spin_density
 _atom_site_hle17_ddec_sum_bond_order
 _atom_site_hle17_magmom
 _atom_site_hse06_10hf_bader_spin_density
 _atom_site_hse06_10hf_ddec_charge
 _atom_site_hse06_10hf_ddec_spin_density
 _atom_site_hse06_10hf_ddec_sum_bond_order
 _atom_site_hse06_10hf_magmom
 _atom_site_hse06_bader_spin_density
 _atom_site_hse06_ddec_charge
 _atom_site_hse06_ddec_spin_density
 _atom_site_hse06_ddec_sum_bond_order
 _atom_site_hse06_magmom
 _atom_site_pbe_bader_spin_density
 _atom_site_pbe_cm5_charge
 _atom_site_pbe_ddec_charge
 _atom_site_pbe_ddec_spin_density
 _atom_site_pbe_ddec_sum_bond_order
 _atom_site_pbe_magmom
Zn  Zn0  1  0.11371875  0.12655453  0.11555676  1  0  1.12179  0  1.712739  0  0  0.941207  0  2.180402  0  0  0.989942  0  2.119947  0  0  0.705419  0.906679  0  2.222503  0
Zn  Zn1  1  0.88628701  0.87344985  0.88444165  1  0  1.121794  0  1.712746  0  0  0.941203  0  2.180409  0  0  0.989931  0  2.119959  0  0  0.70542  0.906672  0  2.222507  0
H  H2  1  0.35309686  0.14999875  0.92520339  1  0  0.445521  0  0.819042  0  0  0.420689  0  0.883067  0  0  0.430474  0  0.868781  0  0  0.311844  0.413597  0  0.891712  0
H  H3  1  0.64689594  0.85001042  0.07480031  1  0  0.445544  0  0.819187  0  0  0.420734  0  0.883034  0  0  0.430519  0  0.868749  0  0  0.311911  0.413641  0  0.891787  0
H  H4  1  0.47130173  0.15700260  0.02108552  1  0  0.426044  0  0.882893  0  0  0.392442  0  0.950984  0  0  0.40373  0  0.935012  0  0  0.289101  0.384415  0  0.962367  0
H  H5  1  0.52870359  0.84299249  0.97891875  1  0  0.426031  0  0.882893  0  0  0.392402  0  0.951033  0  0  0.403691  0  0.93506  0  0  0.289087  0.384375  0  0.962417  0
H  H6  1  0.50279336  0.57231937  0.37735198  1  0  0.127194  0  0.967276  0  0  0.128235  0  1.042854  0  0  0.132868  0  1.038158  0  0  0.112943  0.124861  0  1.046247  0
H  H7  1  0.49722601  0.42767324  0.62264139  1  0  0.127104  0  0.967455  0  0  0.128184  0  1.042999  0  0  0.132817  0  1.038304  0  0  0.112947  0.124815  0  1.046384  0
H  H8  1  0.53324945  0.22662750  0.22165369  1  0  0.132674  0  0.939099  0  0  0.137813  0  1.002843  0  0  0.142336  0  0.998939  0  0  0.118214  0.135072  0  1.004752  0
H  H9  1  0.46674145  0.77337011  0.77834603  1  0  0.132761  0  0.939019  0  0  0.137884  0  1.002792  0  0  0.142403  0  0.998894  0  0  0.118252  0.135173  0  1.004665  0
H  H10  1  0.35201251  0.43337696  0.05459400  1  0  0.10686  0  0.944768  0  0  0.11647  0  1.004765  0  0  0.119339  0  1.004295  0  0  0.107906  0.113932  0  1.005906  0
H  H11  1  0.64797714  0.56662531  0.94540371  1  0  0.106915  0  0.944777  0  0  0.116498  0  1.004787  0  0  0.119365  0  1.00432  0  0  0.10793  0.113959  0  1.005929  0
H  H12  1  0.94360501  0.44005716  0.13657942  1  0  0.088974  0  0.92704  0  0  0.099409  0  0.987232  0  0  0.102308  0  0.984509  0  0  0.120585  0.097212  0  0.989258  0
H  H13  1  0.05638764  0.55995318  0.86342153  1  0  0.088964  0  0.927069  0  0  0.099361  0  0.987314  0  0  0.102259  0  0.984596  0  0  0.120541  0.097163  0  0.989339  0
H  H14  1  0.91472574  0.56563237  0.28392295  1  0  0.121265  0  0.932408  0  0  0.134981  0  0.984937  0  0  0.138232  0  0.984308  0  0  0.115368  0.132447  0  0.985949  0
H  H15  1  0.08527075  0.43436863  0.71608275  1  0  0.121269  0  0.932489  0  0  0.13499  0  0.985004  0  0  0.138242  0  0.984376  0  0  0.115368  0.13246  0  0.986016  0
H  H16  1  0.20869101  0.11923947  0.51764422  1  0  0.129082  0  0.950333  0  0  0.141576  0  1.003376  0  0  0.145036  0  1.001956  0  0  0.114616  0.139124  0  1.004445  0
H  H17  1  0.79129604  0.88076049  0.48236081  1  0  0.12904  0  0.950362  0  0  0.141546  0  1.003404  0  0  0.145005  0  1.001985  0  0  0.114588  0.139106  0  1.004463  0
H  H18  1  0.23025483  0.01147358  0.35944859  1  0  0.088998  0  0.947175  0  0  0.090824  0  1.020953  0  0  0.094377  0  1.016945  0  0  0.117556  0.088145  0  1.023936  0
H  H19  1  0.76972847  0.98852528  0.64055458  1  0  0.089117  0  0.947167  0  0  0.090906  0  1.020962  0  0  0.09446  0  1.016952  0  0  0.117618  0.088248  0  1.02392  0
H  H20  1  0.98899221  0.33922566  0.59186032  1  0  0.099314  0  0.914084  0  0  0.119692  0  0.968463  0  0  0.120544  0  0.968711  0  0  0.105219  0.118819  0  0.96868  0
H  H21  1  0.01100656  0.66077763  0.40814296  1  0  0.099354  0  0.914118  0  0  0.119714  0  0.968487  0  0  0.120567  0  0.968741  0  0  0.105213  0.118835  0  0.968695  0
H  H22  1  0.20413391  0.39824053  0.53193888  1  0  0.090654  0  0.92008  0  0  0.110363  0  0.97857  0  0  0.110866  0  0.978945  0  0  0.10181  0.109999  0  0.978216  0
H  H23  1  0.79586853  0.60175113  0.46806085  1  0  0.090706  0  0.920031  0  0  0.110409  0  0.978503  0  0  0.110913  0  0.978878  0  0  0.101831  0.110037  0  0.97814  0
C  C24  1  0.33197546  0.61870804  0.12021381  1  0  -0.03838  0  3.680992  0  0  -0.030201  0  3.915838  0  0  -0.032253  0  3.934495  0  0  0.005519  -0.028866  0  3.90366  0
C  C25  1  0.66802553  0.38129409  0.87978231  1  0  -0.038541  0  3.68111  0  0  -0.030331  0  3.915963  0  0  -0.032396  0  3.934616  0  0  0.005429  -0.028993  0  3.903785  0
C  C26  1  0.37533489  0.65889396  0.21079275  1  0  -0.046092  0  3.702057  0  0  -0.029497  0  3.935551  0  0  -0.035714  0  3.95587  0  0  -0.004843  -0.025728  0  3.922344  0
C  C27  1  0.62468095  0.34110102  0.78920103  1  0  -0.046023  0  3.701737  0  0  -0.029438  0  3.935261  0  0  -0.035644  0  3.955571  0  0  -0.004848  -0.025685  0  3.922073  0
C  C28  1  0.47030794  0.54310225  0.30610532  1  0  -0.10201  0  3.683183  0  0  -0.140109  0  3.94605  0  0  -0.138385  0  3.962994  0  0  -0.071861  -0.140899  0  3.934666  0
C  C29  1  0.52970514  0.45689277  0.69388783  1  0  -0.101892  0  3.683171  0  0  -0.140043  0  3.945969  0  0  -0.138319  0  3.96291  0  0  -0.071871  -0.140838  0  3.934591  0
C  C30  1  0.52259535  0.38959510  0.30828290  1  0  0.062846  0  3.748581  0  0  0.04711  0  4.007996  0  0  0.04315  0  4.031906  0  0  0.071588  0.049463  0  3.992096  0
C  C31  1  0.47740233  0.61040359  0.69171522  1  0  0.062647  0  3.748879  0  0  0.047043  0  4.008155  0  0  0.043081  0  4.032065  0  0  0.071634  0.049408  0  3.99224  0
C  C32  1  0.48613658  0.34730383  0.21797820  1  0  -0.087964  0  3.708798  0  0  -0.119959  0  3.974367  0  0  -0.118334  0  3.992237  0  0  -0.077876  -0.120871  0  3.961853  0
C  C33  1  0.51384689  0.65269503  0.78202251  1  0  -0.088061  0  3.708877  0  0  -0.120112  0  3.974464  0  0  -0.118484  0  3.992335  0  0  -0.078003  -0.121053  0  3.961933  0
C  C34  1  0.38713004  0.46320725  0.12497166  1  0  -0.076335  0  3.730541  0  0  -0.095271  0  3.983513  0  0  -0.098784  0  4.004539  0  0  -0.081468  -0.093001  0  3.969883  0
C  C35  1  0.61285424  0.53679392  0.87502755  1  0  -0.076314  0  3.730553  0  0  -0.09522  0  3.983523  0  0  -0.098723  0  4.004539  0  0  -0.081437  -0.09295  0  3.9699  0
C  C36  1  0.23373087  0.74258116  0.01524128  1  0  0.664301  0  3.91137  0  0  0.610243  0  4.213848  0  0  0.644895  0  4.205261  0  0  0.216837  0.586485  0  4.218902  0
C  C37  1  0.76627376  0.25742325  0.98475314  1  0  0.664435  0  3.911185  0  0  0.610331  0  4.21374  0  0  0.644999  0  4.205134  0  0  0.216955  0.586574  0  4.218793  0
C  C38  1  0.32595923  0.82718598  0.20229533  1  0  0.638398  0  3.941485  0  0  0.587607  0  4.239904  0  0  0.621206  0  4.233449  0  0  0.201774  0.564685  0  4.243639  0
C  C39  1  0.67405564  0.17281132  0.79770275  1  0  0.638442  0  3.941387  0  0  0.587616  0  4.239883  0  0  0.621213  0  4.233432  0  0  0.201789  0.564694  0  4.243619  0
C  C40  1  0.00018752  0.37261522  0.22249953  1  0  0.136732  0  3.718941  0  0  0.104846  0  3.973974  0  0  0.112723  0  3.993005  0  0  0.046543  0.099693  0  3.961036  0
C  C41  1  0.99981027  0.62738693  0.77750251  1  0  0.136793  0  3.718832  0  0  0.104927  0  3.973835  0  0  0.112803  0  3.992863  0  0  0.046589  0.099777  0  3.960891  0
C  C42  1  0.98463771  0.44207760  0.30627823  1  0  -0.173786  0  3.692817  0  0  -0.193861  0  3.945129  0  0  -0.203949  0  3.969062  0  0  -0.084667  -0.187342  0  3.929313  0
C  C43  1  0.01535769  0.55792225  0.69372786  1  0  -0.173827  0  3.692756  0  0  -0.1939  0  3.945055  0  0  -0.203992  0  3.968988  0  0  -0.084668  -0.187384  0  3.929248  0
C  C44  1  0.06054406  0.35281575  0.41536558  1  0  0.164944  0  3.699659  0  0  0.177138  0  3.946039  0  0  0.183206  0  3.968597  0  0  0.016269  0.173422  0  3.930372  0
C  C45  1  0.93944565  0.64718535  0.58463651  1  0  0.164993  0  3.699543  0  0  0.177182  0  3.945887  0  0  0.183259  0  3.968434  0  0  0.016253  0.173454  0  3.930218  0
C  C46  1  0.14856637  0.19509134  0.43429805  1  0  -0.169112  0  3.683988  0  0  -0.193891  0  3.939766  0  0  -0.203208  0  3.961697  0  0  -0.083695  -0.187557  0  3.924347  0
C  C47  1  0.85141975  0.80490749  0.56570493  1  0  -0.169059  0  3.683998  0  0  -0.193841  0  3.939782  0  0  -0.203159  0  3.961707  0  0  -0.083631  -0.187516  0  3.924376  0
C  C48  1  0.16022818  0.13337655  0.34688283  1  0  0.146221  0  3.694567  0  0  0.111403  0  3.955519  0  0  0.119546  0  3.973016  0  0  0.048653  0.106387  0  3.943109  0
C  C49  1  0.83976011  0.86662457  0.65311936  1  0  0.146147  0  3.694746  0  0  0.111341  0  3.955713  0  0  0.119487  0  3.973209  0  0  0.048608  0.106303  0  3.943304  0
C  C50  1  0.05362065  0.41524606  0.51231082  1  0  -0.157346  0  3.704968  0  0  -0.202619  0  3.958094  0  0  -0.203727  0  3.969613  0  0  -0.154145  -0.201575  0  3.949747  0
C  C51  1  0.94638413  0.58475136  0.48769121  1  0  -0.157552  0  3.705032  0  0  -0.202748  0  3.958109  0  0  -0.203872  0  3.969638  0  0  -0.154165  -0.201663  0  3.949735  0
N  N52  1  0.61936203  0.26727220  0.40863813  1  0  0.467666  0  3.957024  0  0  0.521325  0  4.21743  0  0  0.542537  0  4.22554  0  0  0.053443  0.507057  0  4.212215  0
N  N53  1  0.38063737  0.73272066  0.59135985  1  0  0.467865  0  3.956962  0  0  0.521449  0  4.217435  0  0  0.542658  0  4.225547  0  0  0.053491  0.50718  0  4.212217  0
N  N54  1  0.08725241  0.22120269  0.24164642  1  0  -0.376666  0  3.338313  0  0  -0.290629  0  3.621888  0  0  -0.312142  0  3.636544  0  0  -0.341431  -0.275966  0  3.611668  0
N  N55  1  0.91273959  0.77880535  0.75835359  1  0  -0.376718  0  3.338332  0  0  -0.290652  0  3.621861  0  0  -0.312163  0  3.636513  0  0  -0.341447  -0.275985  0  3.611641  0
O  O56  1  0.07496739  0.72138849  0.99677472  1  0  -0.638479  0  2.043644  0  0  -0.56629  0  2.318282  0  0  -0.596396  0  2.301985  0  0  -0.318004  -0.544748  0  2.32857  0
O  O57  1  0.92503752  0.27861939  0.00322115  1  0  -0.638569  0  2.043599  0  0  -0.566375  0  2.318272  0  0  -0.596488  0  2.301969  0  0  -0.31804  -0.544831  0  2.328559  0
O  O58  1  0.31115491  0.85201120  0.95300675  1  0  -0.595909  0  1.956301  0  0  -0.543373  0  2.171435  0  0  -0.568553  0  2.160866  0  0  -0.298999  -0.525457  0  2.178022  0
O  O59  1  0.68884940  0.14799554  0.04698216  1  0  -0.595918  0  1.956239  0  0  -0.543391  0  2.171405  0  0  -0.568577  0  2.160833  0  0  -0.299073  -0.525476  0  2.177992  0
O  O60  1  0.14653306  0.90008807  0.18344624  1  0  -0.649267  0  2.002113  0  0  -0.579521  0  2.268249  0  0  -0.608386  0  2.25096  0  0  -0.332144  -0.559124  0  2.279746  0
O  O61  1  0.85348154  0.09991386  0.81655628  1  0  -0.649327  0  2.002076  0  0  -0.579591  0  2.268246  0  0  -0.608455  0  2.250964  0  0  -0.332208  -0.559197  0  2.279744  0
O  O62  1  0.45732972  0.88527390  0.20939631  1  0  -0.602285  0  1.892978  0  0  -0.556309  0  2.102323  0  0  -0.578971  0  2.092491  0  0  -0.315996  -0.539835  0  2.108201  0
O  O63  1  0.54268878  0.11471986  0.79060494  1  0  -0.602285  0  1.89298  0  0  -0.556269  0  2.102349  0  0  -0.578932  0  2.092522  0  0  -0.315947  -0.539794  0  2.108222  0
O  O64  1  0.62940798  0.30021076  0.49619686  1  0  -0.359461  0  1.777053  0  0  -0.34681  0  1.975729  0  0  -0.359572  0  1.972483  0  0  -0.128567  -0.33861  0  1.978258  0
O  O65  1  0.37058697  0.69977751  0.50380435  1  0  -0.359518  0  1.776993  0  0  -0.346884  0  1.97575  0  0  -0.359643  0  1.972501  0  0  -0.128584  -0.338681  0  1.978279  0
O  O66  1  0.68739408  0.13571968  0.40138757  1  0  -0.341073  0  1.781907  0  0  -0.328223  0  1.972129  0  0  -0.339125  0  1.968807  0  0  -0.115168  -0.321298  0  1.974542  0
O  O67  1  0.31260702  0.86427781  0.59860657  1  0  -0.341132  0  1.781724  0  0  -0.328245  0  1.971967  0  0  -0.339146  0  1.968642  0  0  -0.115209  -0.321334  0  1.974389  0
O  O68  1  0.33575351  0.17906824  0.99576479  1  0  -0.845222  0  1.920619  0  0  -0.776728  0  2.145354  0  0  -0.79973  0  2.108829  0  0  -0.572291  -0.760541  0  2.16996  0
O  O69  1  0.66425112  0.82093381  0.00424003  1  0  -0.845278  0  1.920721  0  0  -0.776761  0  2.145337  0  0  -0.79976  0  2.108809  0  0  -0.572373  -0.760571  0  2.170041  0
