# generated using pymatgen
data_Zn4H30C54O13
_symmetry_space_group_name_H-M   'P 1'
_cell_length_a   14.01214175
_cell_length_b   14.01216157
_cell_length_c   17.54123628
_cell_angle_alpha   113.54167567
_cell_angle_beta   113.54109740
_cell_angle_gamma   90.00181710
_symmetry_Int_Tables_number   1
_chemical_formula_structural   Zn4H30C54O13
_chemical_formula_sum   'Zn8 H60 C108 O26'
_cell_volume   2841.98250663
_cell_formula_units_Z   2
loop_
 _symmetry_equiv_pos_site_id
 _symmetry_equiv_pos_as_xyz
  1  'x, y, z'
loop_
 _atom_site_type_symbol
 _atom_site_label
 _atom_site_symmetry_multiplicity
 _atom_site_fract_x
 _atom_site_fract_y
 _atom_site_fract_z
 _atom_site_occupancy
 _atom_site_pbe_bader_charge
 _atom_site_pbe_bader_spin_density
 _atom_site_pbe_cm5_charge
 _atom_site_pbe_ddec_charge
 _atom_site_pbe_ddec_spin_density
 _atom_site_pbe_ddec_sum_bond_order
 _atom_site_pbe_magmom
Zn  Zn0  1  0.64777921  0.50417654  0.07764093  1  1.314714  0  0.671444  0.958264  0  2.391179  0
Zn  Zn1  1  0.42651493  0.35223000  0.92234604  1  1.311822  0  0.671685  0.958472  0  2.391381  0
Zn  Zn2  1  0.42984843  0.57347814  0.07763833  1  1.314409  0  0.671565  0.958575  0  2.392398  0
Zn  Zn3  1  0.49582350  0.57017236  0.92241111  1  1.312908  0  0.671548  0.95828  0  2.392204  0
Zn  Zn4  1  0.32016909  0.74582364  0.42240942  1  1.3129  0  0.671495  0.958255  0  2.392531  0
Zn  Zn5  1  0.25417313  0.89778402  0.57764161  1  1.314836  0  0.671479  0.958321  0  2.391067  0
Zn  Zn6  1  0.10222775  0.67651219  0.42234400  1  1.311821  0  0.671607  0.958295  0  2.391553  0
Zn  Zn7  1  0.32347791  0.67984897  0.57763497  1  1.314459  0  0.671629  0.95865  0  2.392161  0
H  H8  1  0.71811135  0.82590609  0.97560636  1  0.103853  0  0.107157  0.112657  0  1.001603  0
H  H9  1  0.85017390  0.28181484  0.02436115  1  0.129424  0  0.107376  0.112851  0  1.001266  0
H  H10  1  0.25757844  0.14984014  0.97564038  1  0.088358  0  0.107355  0.113308  0  1.001459  0
H  H11  1  0.17408335  0.74244379  0.02435173  1  0.089422  0  0.107085  0.112902  0  1.001968  0
H  H12  1  0.49244614  0.42408648  0.52434976  1  0.089357  0  0.107092  0.11289  0  1.001931  0
H  H13  1  0.57590384  0.96810776  0.47560195  1  0.103784  0  0.107217  0.112658  0  1.001605  0
H  H14  1  0.03181198  0.10017104  0.52436113  1  0.129445  0  0.107394  0.112847  0  1.001239  0
H  H15  1  0.89983183  0.50757542  0.47563482  1  0.088238  0  0.107363  0.113317  0  1.001379  0
H  H16  1  0.85930458  0.98444051  0.05083866  1  0.077436  0  0.102477  0.106019  0  1.006195  0
H  H17  1  0.93346293  0.14063253  0.94908790  1  0.087072  0  0.102382  0.105479  0  1.005122  0
H  H18  1  0.19154859  0.06643136  0.05081495  1  0.085559  0  0.102552  0.1057  0  1.00495  0
H  H19  1  0.01555323  0.80847099  0.94918965  1  0.081183  0  0.102848  0.106088  0  1.005714  0
H  H20  1  0.55847300  0.26555770  0.44919180  1  0.081231  0  0.102889  0.106153  0  1.005652  0
H  H21  1  0.73443695  0.10930226  0.55083672  1  0.077485  0  0.102448  0.105978  0  1.006249  0
H  H22  1  0.89063277  0.18345893  0.44908559  1  0.087185  0  0.102377  0.105491  0  1.00498  0
H  H23  1  0.81642907  0.44154403  0.55081333  1  0.085498  0  0.102536  0.10566  0  1.005016  0
H  H24  1  0.04862307  0.87432141  0.25105661  1  0.073321  0  0.102325  0.1051  0  0.99762  0
H  H25  1  0.62313365  0.95129396  0.74887568  1  0.064559  0  0.102637  0.105512  0  0.997768  0
H  H26  1  0.20238099  0.37674747  0.25104569  1  0.075075  0  0.102907  0.106492  0  0.997803  0
H  H27  1  0.12567383  0.79759967  0.74898170  1  0.066443  0  0.102727  0.105884  0  0.997581  0
H  H28  1  0.54760198  0.37567134  0.24897875  1  0.067176  0  0.102737  0.105952  0  0.997676  0
H  H29  1  0.62432199  0.29862575  0.75105778  1  0.07329  0  0.102309  0.105096  0  0.997631  0
H  H30  1  0.70129166  0.87312856  0.24887186  1  0.064249  0  0.102618  0.10549  0  0.99787  0
H  H31  1  0.12674539  0.45237996  0.75104143  1  0.075172  0  0.10291  0.106495  0  0.997846  0
H  H32  1  0.90570346  0.71783977  0.17671394  1  0.088888  0  0.10527  0.108175  0  1.019699  0
H  H33  1  0.54099012  0.09426684  0.82322293  1  0.074275  0  0.105441  0.10842  0  1.018769  0
H  H34  1  0.27109702  0.45898561  0.17679867  1  0.076803  0  0.105425  0.10834  0  1.018348  0
H  H35  1  0.28213891  0.72896266  0.82325250  1  0.094748  0  0.105254  0.108378  0  1.019206  0
H  H36  1  0.47896437  0.53214210  0.32324906  1  0.094677  0  0.10526  0.108403  0  1.019043  0
H  H37  1  0.46783980  0.15570479  0.67671528  1  0.088862  0  0.105257  0.108138  0  1.019708  0
H  H38  1  0.84426505  0.79098176  0.32321935  1  0.074233  0  0.105423  0.108398  0  1.018758  0
H  H39  1  0.20898072  0.52109826  0.67679310  1  0.07677  0  0.105419  0.108406  0  1.018226  0
H  H40  1  0.04143119  0.04143828  0.08273889  1  0.108965  0  0.09715  0.092214  0  1.046421  0
H  H41  1  0.95853190  0.95856363  0.91725228  1  0.109159  0  0.0971  0.092568  0  1.045982  0
H  H42  1  0.70856336  0.20853478  0.41725446  1  0.109327  0  0.09711  0.092549  0  1.046021  0
H  H43  1  0.79143981  0.29142771  0.58273837  1  0.108776  0  0.097137  0.092204  0  1.046387  0
H  H44  1  0.06653675  0.05628041  0.33977700  1  0.060822  0  0.099951  0.09886  0  1.042211  0
H  H45  1  0.71646858  0.93348152  0.66017858  1  0.089501  0  0.099934  0.098957  0  1.041316  0
H  H46  1  0.27328779  0.28357425  0.33982788  1  0.077491  0  0.099628  0.098303  0  1.041864  0
H  H47  1  0.94378060  0.72679673  0.66020279  1  0.049605  0  0.099749  0.098532  0  1.041719  0
H  H48  1  0.47680210  0.19377912  0.16020420  1  0.049681  0  0.09976  0.098558  0  1.041847  0
H  H49  1  0.80628047  0.31653866  0.83977643  1  0.060583  0  0.099972  0.098917  0  1.042187  0
H  H50  1  0.68348178  0.96646637  0.16018088  1  0.0894  0  0.099936  0.098917  0  1.041386  0
H  H51  1  0.03357421  0.52328768  0.83983086  1  0.077484  0  0.099638  0.098326  0  1.041845  0
H  H52  1  0.27345999  0.38381488  0.46870686  1  0.074075  0  0.100271  0.101997  0  1.022684  0
H  H53  1  0.91503170  0.72653070  0.53130716  1  0.080243  0  0.100141  0.101521  0  1.022482  0
H  H54  1  0.19512755  0.08504780  0.46873459  1  0.099098  0  0.100066  0.101474  0  1.022496  0
H  H55  1  0.61622998  0.80484674  0.53126463  1  0.073281  0  0.10025  0.101894  0  1.023132  0
H  H56  1  0.55484700  0.86622487  0.03126019  1  0.073277  0  0.100268  0.101931  0  1.023132  0
H  H57  1  0.13381097  0.52345535  0.96870324  1  0.073962  0  0.100253  0.102  0  1.022682  0
H  H58  1  0.47653634  0.16503180  0.03131261  1  0.080326  0  0.100147  0.101548  0  1.022487  0
H  H59  1  0.83504708  0.44512809  0.96873579  1  0.099068  0  0.100062  0.101453  0  1.02252  0
H  H60  1  0.36347756  0.46627405  0.63818566  1  0.106833  0  0.107201  0.114316  0  0.997955  0
H  H61  1  0.82802092  0.63655084  0.36180880  1  0.102415  0  0.107524  0.114155  0  0.9989  0
H  H62  1  0.27473563  0.17207362  0.63822036  1  0.098181  0  0.10746  0.114181  0  0.999321  0
H  H63  1  0.53382025  0.72527974  0.36181864  1  0.079243  0  0.107212  0.114007  0  0.998564  0
H  H64  1  0.47527881  0.78382147  0.86181553  1  0.079226  0  0.107233  0.114067  0  0.998564  0
H  H65  1  0.21627115  0.61347318  0.13818305  1  0.106914  0  0.107204  0.114282  0  0.997927  0
H  H66  1  0.38655499  0.07802694  0.86181515  1  0.102344  0  0.107486  0.114087  0  0.998973  0
H  H67  1  0.92207345  0.52473518  0.13822155  1  0.098104  0  0.107492  0.114205  0  0.999329  0
C  C68  1  0.71658620  0.67113840  0.03335923  1  1.547857  0  0.224042  0.598202  0  4.171378  0
C  C69  1  0.63765198  0.28335339  0.96661871  1  1.514395  0  0.224999  0.600175  0  4.168476  0
C  C70  1  0.31683058  0.36229359  0.03340342  1  1.526897  0  0.224358  0.599417  0  4.170053  0
C  C71  1  0.32881473  0.68317603  0.96665897  1  1.525206  0  0.223973  0.599365  0  4.170577  0
C  C72  1  0.43317883  0.57881371  0.46665952  1  1.526593  0  0.223933  0.599439  0  4.170526  0
C  C73  1  0.42113510  0.96658635  0.53336163  1  1.548239  0  0.224073  0.598126  0  4.171387  0
C  C74  1  0.03334723  0.88764480  0.46661695  1  1.515603  0  0.22504  0.600234  0  4.168678  0
C  C75  1  0.11229056  0.56683180  0.53340048  1  1.526683  0  0.224163  0.599242  0  4.170018  0
C  C76  1  0.80300161  0.76226158  0.07200724  1  -0.061783  0  -0.023968  -0.056377  0  3.993401  0
C  C77  1  0.69011924  0.19692020  0.92797157  1  -0.072914  0  -0.024069  -0.058055  0  3.993434  0
C  C78  1  0.26913116  0.30984176  0.07209605  1  -0.028082  0  -0.02473  -0.057775  0  3.994053  0
C  C79  1  0.23770272  0.73092193  0.92796132  1  0.021286  0  -0.024176  -0.056859  0  3.992114  0
C  C80  1  0.48092862  0.48770752  0.42795859  1  0.021391  0  -0.024102  -0.057047  0  3.992345  0
C  C81  1  0.51226218  0.05299490  0.57200333  1  -0.061958  0  -0.024092  -0.056487  0  3.993446  0
C  C82  1  0.94691632  0.94011253  0.42796841  1  -0.07413  0  -0.024177  -0.058252  0  3.993646  0
C  C83  1  0.05983107  0.51913055  0.57208934  1  -0.028317  0  -0.024617  -0.057687  0  3.994197  0
C  C84  1  0.79100887  0.83677936  0.03565684  1  0.016009  0  -0.081322  -0.084617  0  3.976117  0
C  C85  1  0.80099033  0.20890447  0.96430467  1  -0.055274  0  -0.081409  -0.083751  0  3.977302  0
C  C86  1  0.24472510  0.19897492  0.03569992  1  -0.033537  0  -0.081269  -0.084843  0  3.978195  0
C  C87  1  0.16319462  0.75531907  0.96431209  1  -0.050965  0  -0.081252  -0.084684  0  3.976405  0
C  C88  1  0.50532510  0.41320095  0.46431320  1  -0.050869  0  -0.081284  -0.084534  0  3.976255  0
C  C89  1  0.58677471  0.04100525  0.53565526  1  0.016419  0  -0.081334  -0.084526  0  3.976129  0
C  C90  1  0.95890233  0.05098218  0.46430388  1  -0.055515  0  -0.081223  -0.083459  0  3.977224  0
C  C91  1  0.94896918  0.49472640  0.53569819  1  -0.033476  0  -0.081297  -0.084927  0  3.978374  0
C  C92  1  0.87077341  0.92516989  0.07774567  1  -0.064968  0  -0.089729  -0.136865  0  3.969085  0
C  C93  1  0.84728208  0.12915654  0.92218507  1  -0.045689  0  -0.089865  -0.136838  0  3.968493  0
C  C94  1  0.20703772  0.15262324  0.07775468  1  -0.034266  0  -0.089943  -0.136131  0  3.968623  0
C  C95  1  0.07480659  0.79301133  0.92225398  1  -0.054007  0  -0.090389  -0.136992  0  3.969655  0
C  C96  1  0.54301628  0.32481064  0.42225505  1  -0.053922  0  -0.090424  -0.137133  0  3.969723  0
C  C97  1  0.67516784  0.12076678  0.57774325  1  -0.065372  0  -0.089681  -0.136802  0  3.968863  0
C  C98  1  0.87915524  0.09727496  0.42218501  1  -0.045938  0  -0.089952  -0.136963  0  3.968502  0
C  C99  1  0.90261989  0.45703641  0.57775300  1  -0.034353  0  -0.089917  -0.136022  0  3.968506  0
C  C100  1  0.96360590  0.94114237  0.15700993  1  0.030848  0  0.001527  0.084989  0  3.98505  0
C  C101  1  0.78397198  0.03630976  0.84292831  1  -0.012614  0  0.001696  0.085576  0  3.984923  0
C  C102  1  0.19349753  0.21593115  0.15703440  1  -0.011584  0  0.001768  0.084911  0  3.985402  0
C  C103  1  0.05883853  0.80656684  0.84299354  1  0.011787  0  0.001316  0.084483  0  3.987205  0
C  C104  1  0.55657571  0.30884158  0.34299795  1  0.011854  0  0.001327  0.084517  0  3.987127  0
C  C105  1  0.69113661  0.21360383  0.65700795  1  0.030559  0  0.00157  0.085069  0  3.985193  0
C  C106  1  0.78631094  0.03396625  0.34292772  1  -0.011672  0  0.001642  0.0855  0  3.984941  0
C  C107  1  0.96593102  0.44349807  0.65703416  1  -0.011513  0  0.001781  0.084904  0  3.985463  0
C  C108  1  0.97579633  0.86451953  0.19127485  1  -0.077673  0  -0.088409  -0.129149  0  3.968972  0
C  C109  1  0.67309427  0.02411683  0.80867818  1  -0.022014  0  -0.088717  -0.12986  0  3.971499  0
C  C110  1  0.21552807  0.32682464  0.19130559  1  -0.075637  0  -0.089149  -0.131736  0  3.973071  0
C  C111  1  0.13546080  0.78449685  0.80873413  1  -0.040029  0  -0.088427  -0.129951  0  3.971359  0
C  C112  1  0.53450373  0.38546360  0.30873397  1  -0.040996  0  -0.088463  -0.130107  0  3.971401  0
C  C113  1  0.61452005  0.22579349  0.69127713  1  -0.077637  0  -0.088412  -0.129198  0  3.969231  0
C  C114  1  0.77411715  0.92308539  0.30867165  1  -0.021824  0  -0.088626  -0.129795  0  3.971377  0
C  C115  1  0.07682153  0.46553111  0.69130256  1  -0.075649  0  -0.089145  -0.131725  0  3.973312  0
C  C116  1  0.89660144  0.77641873  0.14948522  1  -0.023664  0  -0.080525  -0.076413  0  3.986845  0
C  C117  1  0.62679389  0.10332664  0.85046058  1  -0.004824  0  -0.080493  -0.076095  0  3.987477  0
C  C118  1  0.25297044  0.37317382  0.14956616  1  -0.018768  0  -0.079748  -0.074736  0  3.98756  0
C  C119  1  0.22357753  0.74709213  0.85049856  1  -0.07957  0  -0.080209  -0.076206  0  3.986545  0
C  C120  1  0.49709849  0.47357855  0.35049863  1  -0.079488  0  -0.080201  -0.076072  0  3.986495  0
C  C121  1  0.52641554  0.14660035  0.64948345  1  -0.023303  0  -0.080491  -0.076328  0  3.986659  0
C  C122  1  0.85332753  0.87678853  0.35045766  1  -0.004906  0  -0.080468  -0.075987  0  3.987386  0
C  C123  1  0.12316954  0.50297297  0.64956083  1  -0.018598  0  -0.07983  -0.074907  0  3.987476  0
C  C124  1  0.04705859  0.03669498  0.20604214  1  -0.080398  0  -0.007377  0.076403  0  4.034239  0
C  C125  1  0.83050813  0.95288282  0.79391748  1  -0.044258  0  -0.007263  0.077391  0  4.032434  0
C  C126  1  0.15911616  0.16940341  0.20607307  1  -0.023132  0  -0.007774  0.076164  0  4.03304  0
C  C127  1  0.96327143  0.84092640  0.79393893  1  -0.007793  0  -0.007051  0.077676  0  4.032685  0
C  C128  1  0.59093081  0.21327047  0.29394101  1  -0.007713  0  -0.00705  0.077735  0  4.032804  0
C  C129  1  0.78669214  0.29705394  0.70603853  1  -0.080036  0  -0.00739  0.076353  0  4.03431  0
C  C130  1  0.70288746  0.08050584  0.29391936  1  -0.044796  0  -0.00731  0.077317  0  4.032463  0
C  C131  1  0.91940556  0.40911493  0.70607340  1  -0.023076  0  -0.007693  0.076328  0  4.032947  0
C  C132  1  0.07913607  0.07907732  0.15810779  1  -0.056882  0  -0.086627  -0.176157  0  3.938184  0
C  C133  1  0.92082195  0.92084485  0.84187675  1  -0.095677  0  -0.087365  -0.178595  0  3.938607  0
C  C134  1  0.67084682  0.17082126  0.34187948  1  -0.095907  0  -0.087358  -0.178548  0  3.938804  0
C  C135  1  0.82907984  0.32913401  0.65810907  1  -0.05704  0  -0.086672  -0.176251  0  3.938204  0
C  C136  1  0.09540325  0.08642728  0.30288645  1  -0.006989  0  -0.085319  -0.171547  0  3.918733  0
C  C137  1  0.78344714  0.90457910  0.69707768  1  -0.085226  0  -0.085681  -0.172258  0  3.918553  0
C  C138  1  0.20752161  0.21655862  0.30292263  1  -0.058861  0  -0.086036  -0.171901  0  3.919891  0
C  C139  1  0.91363113  0.79254112  0.69709242  1  -0.052779  0  -0.085627  -0.171709  0  3.917998  0
C  C140  1  0.54254264  0.16362878  0.19709526  1  -0.052611  0  -0.085638  -0.171786  0  3.918192  0
C  C141  1  0.83642599  0.34539750  0.80288259  1  -0.006747  0  -0.085376  -0.171686  0  3.918948  0
C  C142  1  0.65458187  0.03344549  0.19707917  1  -0.085203  0  -0.085649  -0.172145  0  3.918453  0
C  C143  1  0.96655773  0.45752451  0.80292263  1  -0.059472  0  -0.086117  -0.172015  0  3.91985  0
C  C144  1  0.17629337  0.17637607  0.35264027  1  0.033868  0  -0.006441  0.077915  0  4.022295  0
C  C145  1  0.82370205  0.82372732  0.64736416  1  0.124955  0  -0.006536  0.077618  0  4.022833  0
C  C146  1  0.57373132  0.07370033  0.14736574  1  0.12462  0  -0.006531  0.077627  0  4.02269  0
C  C147  1  0.92637154  0.42629066  0.85263551  1  0.034493  0  -0.006401  0.078  0  4.02236  0
C  C148  1  0.22726625  0.22744287  0.45472083  1  -0.085633  0  0.000964  0.081802  0  3.972977  0
C  C149  1  0.77266252  0.77274115  0.54528836  1  -0.113661  0  0.00067  0.081735  0  3.971855  0
C  C150  1  0.52274364  0.02266146  0.04529020  1  -0.113633  0  0.000709  0.081819  0  3.971778  0
C  C151  1  0.97743950  0.47726322  0.95471752  1  -0.085791  0  0.000937  0.081736  0  3.973085  0
C  C152  1  0.27584832  0.33535023  0.50469546  1  -0.001741  0  -0.089427  -0.129389  0  3.964478  0
C  C153  1  0.83057706  0.72415124  0.49532096  1  0.068584  0  -0.0886  -0.127504  0  3.963683  0
C  C154  1  0.22865274  0.16952738  0.50470264  1  -0.13933  0  -0.08884  -0.12788  0  3.963814  0
C  C155  1  0.66476164  0.77137010  0.49531720  1  0.013516  0  -0.08943  -0.129385  0  3.964756  0
C  C156  1  0.52137056  0.91475990  0.99531531  1  0.013541  0  -0.089391  -0.129355  0  3.964758  0
C  C157  1  0.08534529  0.52584483  0.00469095  1  -0.001852  0  -0.089428  -0.129406  0  3.964511  0
C  C158  1  0.47415315  0.08057713  0.99532488  1  0.06892  0  -0.088756  -0.127817  0  3.963892  0
C  C159  1  0.91952506  0.47865405  0.00470161  1  -0.138505  0  -0.088811  -0.127832  0  3.963801  0
C  C160  1  0.32566615  0.38291668  0.60057260  1  -0.072563  0  -0.079837  -0.078884  0  3.976997  0
C  C161  1  0.78230374  0.67438868  0.39944575  1  -0.09857  0  -0.080533  -0.079203  0  3.97915  0
C  C162  1  0.27484069  0.21781556  0.60057945  1  0.106958  0  -0.080282  -0.07893  0  3.9786  0
C  C163  1  0.61719377  0.72518721  0.39944989  1  -0.005204  0  -0.079668  -0.077813  0  3.978001  0
C  C164  1  0.47518423  0.86719369  0.89944802  1  -0.005264  0  -0.079722  -0.077927  0  3.978177  0
C  C165  1  0.13291400  0.57566152  0.10056857  1  -0.072697  0  -0.079884  -0.078876  0  3.976856  0
C  C166  1  0.42439088  0.03230716  0.89944934  1  -0.098792  0  -0.080397  -0.078918  0  3.978982  0
C  C167  1  0.96781372  0.52483905  0.10057949  1  0.106599  0  -0.080313  -0.078922  0  3.978571  0
C  C168  1  0.32478282  0.32485525  0.64956193  1  -0.051894  0  -0.025511  -0.062976  0  3.998614  0
C  C169  1  0.67524562  0.67526595  0.35045883  1  -0.066369  0  -0.025738  -0.063953  0  3.999526  0
C  C170  1  0.42526485  0.92524615  0.85046105  1  -0.066474  0  -0.02578  -0.064027  0  3.999481  0
C  C171  1  0.07485529  0.57477865  0.14956206  1  -0.051693  0  -0.025449  -0.062946  0  3.998582  0
C  C172  1  0.37610050  0.37611999  0.75212669  1  1.501415  0  0.225181  0.60531  0  4.159403  0
C  C173  1  0.62396548  0.62399079  0.24789748  1  1.507979  0  0.224705  0.605324  0  4.161128  0
C  C174  1  0.37398667  0.87396868  0.74789769  1  1.507904  0  0.224716  0.605401  0  4.161072  0
C  C175  1  0.12611639  0.62609685  0.25212579  1  1.501553  0  0.225193  0.605276  0  4.15943  0
O  O176  1  0.49999523  0.50000262  0.00001688  1  -1.233768  0  -0.577275  -1.027188  0  2.56063  0
O  O177  1  0.24999895  0.74999727  0.50001391  1  -1.233824  0  -0.577276  -1.02715  0  2.560539  0
O  O178  1  0.73581323  0.60764995  0.07102288  1  -1.190452  0  -0.316384  -0.557543  0  2.389992  0
O  O179  1  0.53651479  0.26414088  0.92898773  1  -1.168099  0  -0.316771  -0.557982  0  2.390777  0
O  O180  1  0.33524866  0.46343745  0.07106485  1  -1.166339  0  -0.316148  -0.557632  0  2.391645  0
O  O181  1  0.39234734  0.66479998  0.92905438  1  -1.191273  0  -0.315805  -0.557709  0  2.390456  0
O  O182  1  0.41479879  0.64235383  0.42905001  1  -1.191384  0  -0.315889  -0.557853  0  2.390065  0
O  O183  1  0.35764715  0.98581343  0.57101789  1  -1.190841  0  -0.316312  -0.55744  0  2.39031  0
O  O184  1  0.01413081  0.78650576  0.42898555  1  -1.168291  0  -0.316723  -0.557956  0  2.390881  0
O  O185  1  0.21342667  0.58524652  0.57105810  1  -1.166113  0  -0.316104  -0.557593  0  2.39168  0
O  O186  1  0.62885730  0.66382012  0.96663331  1  -1.172992  0  -0.316717  -0.543563  0  2.322058  0
O  O187  1  0.69708635  0.37106956  0.03337458  1  -1.175734  0  -0.317323  -0.54465  0  2.32009  0
O  O188  1  0.33768877  0.30287279  0.96658419  1  -1.176799  0  -0.317175  -0.544506  0  2.321035  0
O  O189  1  0.33611304  0.66222063  0.03341105  1  -1.161974  0  -0.31696  -0.544472  0  2.32186  0
O  O190  1  0.41222034  0.58611267  0.53340278  1  -1.163173  0  -0.316879  -0.544414  0  2.322206  0
O  O191  1  0.41381357  0.87885391  0.46662582  1  -1.173  0  -0.316749  -0.543566  0  2.321827  0
O  O192  1  0.12106185  0.94707892  0.53337136  1  -1.175521  0  -0.31742  -0.544735  0  2.320109  0
O  O193  1  0.05286247  0.58769065  0.46657781  1  -1.176764  0  -0.317019  -0.544311  0  2.320713  0
O  O194  1  0.43699985  0.46674456  0.79244338  1  -1.180125  0  -0.320071  -0.552269  0  2.331539  0
O  O195  1  0.67428401  0.56303419  0.20762302  1  -1.180331  0  -0.319461  -0.552542  0  2.330371  0
O  O196  1  0.35546157  0.32572416  0.79237271  1  -1.176572  0  -0.320831  -0.553453  0  2.328403  0
O  O197  1  0.53339756  0.64468880  0.20760677  1  -1.181475  0  -0.320621  -0.552819  0  2.330429  0
O  O198  1  0.39468082  0.78339787  0.70760306  1  -1.181352  0  -0.320605  -0.552821  0  2.330399  0
O  O199  1  0.21674719  0.68700023  0.29244428  1  -1.180108  0  -0.320147  -0.552354  0  2.331356  0
O  O200  1  0.31303411  0.92428929  0.70762529  1  -1.180335  0  -0.319465  -0.552613  0  2.330437  0
O  O201  1  0.07572514  0.60545931  0.29237215  1  -1.176659  0  -0.32079  -0.553317  0  2.3286  0
