# generated using pymatgen
data_Zr3H20C48(Cl3O8)2
_symmetry_space_group_name_H-M   'P 1'
_cell_length_a   21.70234471
_cell_length_b   21.70259528
_cell_length_c   21.70268024
_cell_angle_alpha   89.99868755
_cell_angle_beta   119.99990037
_cell_angle_gamma   60.00053514
_symmetry_Int_Tables_number   1
_chemical_formula_structural   Zr3H20C48(Cl3O8)2
_chemical_formula_sum   'Zr6 H40 C96 Cl12 O32'
_cell_volume   7227.96257916
_cell_formula_units_Z   2
loop_
 _symmetry_equiv_pos_site_id
 _symmetry_equiv_pos_as_xyz
  1  'x, y, z'
loop_
 _atom_site_type_symbol
 _atom_site_label
 _atom_site_symmetry_multiplicity
 _atom_site_fract_x
 _atom_site_fract_y
 _atom_site_fract_z
 _atom_site_occupancy
 _atom_site_pbe_bader_charge
 _atom_site_pbe_bader_spin_density
 _atom_site_pbe_cm5_charge
 _atom_site_pbe_ddec_charge
 _atom_site_pbe_ddec_spin_density
 _atom_site_pbe_ddec_sum_bond_order
 _atom_site_pbe_magmom
Zr  Zr0  1  0.99999641  0.58143784  0.08142914  1  2.634551  0  1.626171  2.38042  0  2.750861  0
Zr  Zr1  1  0.99999588  0.41857224  0.91857863  1  2.632542  0  1.626305  2.380553  0  2.750808  0
Zr  Zr2  1  0.99999792  0.41857050  0.08143885  1  2.632021  0  1.626335  2.380528  0  2.750819  0
Zr  Zr3  1  0.99999486  0.58143975  0.91856264  1  2.632171  0  1.626229  2.380419  0  2.75078  0
Zr  Zr4  1  0.16290522  0.41855635  0.08145004  1  2.637664  0  1.625839  2.38035  0  2.7512  0
Zr  Zr5  1  0.83709083  0.58145481  0.91854796  1  2.637699  0  1.625885  2.380364  0  2.751356  0
H  H6  1  0.12826648  0.43587143  0.19238831  1  0.602112  0  0.331087  0.423466  0  0.854553  0
H  H7  1  0.12825478  0.43587269  0.93587176  1  0.621744  0  0.331153  0.423531  0  0.854592  0
H  H8  1  0.87174140  0.43587552  0.93587900  1  0.621339  0  0.331164  0.423548  0  0.854629  0
H  H9  1  0.87173899  0.69239176  0.93586686  1  0.58463  0  0.33114  0.423447  0  0.854586  0
H  H10  1  0.18634033  0.59563799  0.27876906  1  0.11394  0  0.10843  0.114125  0  1.009991  0
H  H11  1  0.29558504  0.59984276  0.39508224  1  0.099383  0  0.110142  0.116257  0  0.985369  0
H  H12  1  0.50102644  0.40055188  0.40226452  1  0.111059  0  0.108434  0.124926  0  0.990824  0
H  H13  1  0.49897616  0.59877706  0.59844373  1  0.113627  0  0.108484  0.125111  0  0.99088  0
H  H14  1  0.81365898  0.40762804  0.71798683  1  0.113041  0  0.108471  0.114379  0  1.009629  0
H  H15  1  0.70441069  0.40056369  0.60453510  1  0.075818  0  0.110163  0.116148  0  0.985203  0
H  H16  1  0.81366195  0.77877558  0.09563874  1  0.113835  0  0.10851  0.114251  0  1.009884  0
H  H17  1  0.70441282  0.89509117  0.09983740  1  0.098909  0  0.110118  0.11627  0  0.985345  0
H  H18  1  0.49897741  0.90226180  0.90055173  1  0.111145  0  0.108445  0.124932  0  0.990819  0
H  H19  1  0.50102430  0.09844339  0.09877363  1  0.113508  0  0.108483  0.125105  0  0.990852  0
H  H20  1  0.18634173  0.21798423  0.90762976  1  0.113041  0  0.108462  0.114354  0  1.009681  0
H  H21  1  0.29559122  0.10453144  0.90056642  1  0.076515  0  0.110125  0.116118  0  0.985191  0
H  H22  1  0.37438810  0.40761596  0.09565045  1  0.106915  0  0.10833  0.114225  0  1.009684  0
H  H23  1  0.49490611  0.40056267  0.09986574  1  0.089318  0  0.110124  0.116144  0  0.985163  0
H  H24  1  0.30277892  0.59880124  0.90054241  1  0.101948  0  0.108578  0.125183  0  0.991073  0
H  H25  1  0.69719178  0.40055650  0.09876433  1  0.10273  0  0.10847  0.124921  0  0.990636  0
H  H26  1  0.62559991  0.59569311  0.90761721  1  0.10719  0  0.108436  0.114321  0  1.009817  0
H  H27  1  0.50507139  0.59991402  0.90055728  1  0.088668  0  0.110103  0.116063  0  0.985356  0
H  H28  1  0.62558006  0.77881305  0.71804579  1  0.118534  0  0.108508  0.114287  0  1.009756  0
H  H29  1  0.50506962  0.89514631  0.60460863  1  0.069215  0  0.110101  0.116207  0  0.985525  0
H  H30  1  0.69719858  0.90227541  0.59844203  1  0.096528  0  0.108524  0.125088  0  0.990845  0
H  H31  1  0.30280501  0.09845623  0.40227007  1  0.097254  0  0.10857  0.125108  0  0.990661  0
H  H32  1  0.37439957  0.21799885  0.27872130  1  0.113225  0  0.108421  0.114339  0  1.009941  0
H  H33  1  0.49492253  0.10455280  0.39504687  1  0.068613  0  0.110138  0.116278  0  0.985328  0
H  H34  1  0.99680123  0.40757064  0.27878054  1  0.137255  0  0.108464  0.114181  0  1.009867  0
H  H35  1  0.99966125  0.40051022  0.39509324  1  0.08425  0  0.110121  0.116228  0  0.98533  0
H  H36  1  0.00068919  0.59876968  0.40225436  1  0.095988  0  0.108547  0.125129  0  0.990841  0
H  H37  1  0.00069778  0.40054601  0.59844271  1  0.097476  0  0.108485  0.124988  0  0.990725  0
H  H38  1  0.99670236  0.59568539  0.71798631  1  0.136471  0  0.108424  0.114273  0  1.00992  0
H  H39  1  0.99956621  0.59988956  0.60453288  1  0.084468  0  0.110069  0.116114  0  0.985413  0
H  H40  1  0.00319203  0.77880859  0.90758622  1  0.138437  0  0.10841  0.114262  0  1.009727  0
H  H41  1  0.00036017  0.89510922  0.90057231  1  0.086608  0  0.109996  0.116219  0  0.985285  0
H  H42  1  0.99934092  0.90221423  0.09883476  1  0.095654  0  0.10866  0.125278  0  0.991365  0
H  H43  1  0.99929766  0.09843339  0.90060147  1  0.103265  0  0.10866  0.12513  0  0.990529  0
H  H44  1  0.00329226  0.21800255  0.09572281  1  0.135969  0  0.108445  0.114458  0  1.009921  0
H  H45  1  0.00044349  0.10454089  0.09994494  1  0.081981  0  0.110028  0.115946  0  0.985138  0
C  C46  1  0.20916161  0.49997904  0.20528664  1  1.589183  0  0.233349  0.648865  0  4.101037  0
C  C47  1  0.20915404  0.29087032  0.00388512  1  1.587436  0  0.232961  0.648351  0  4.101368  0
C  C48  1  0.79084342  0.50388666  0.79086722  1  1.587251  0  0.233007  0.648291  0  4.101563  0
C  C49  1  0.79084109  0.70528770  0.99998146  1  1.588348  0  0.233262  0.648828  0  4.100917  0
C  C50  1  0.99615593  0.50386692  0.20529045  1  1.587126  0  0.233358  0.648586  0  4.101061  0
C  C51  1  0.00385137  0.70528542  0.00387131  1  1.58657  0  0.23337  0.648839  0  4.10095  0
C  C52  1  0.99613228  0.49999143  0.79086316  1  1.583856  0  0.233143  0.648373  0  4.101186  0
C  C53  1  0.00386414  0.29086580  0.00001393  1  1.584929  0  0.233278  0.648658  0  4.101238  0
C  C54  1  0.20526589  0.29086661  0.20527146  1  1.572877  0  0.233202  0.648701  0  4.10082  0
C  C55  1  0.79473475  0.50000012  0.00388128  1  1.563426  0  0.233223  0.648696  0  4.101056  0
C  C56  1  0.79472106  0.70529386  0.79086073  1  1.572132  0  0.233347  0.648526  0  4.100757  0
C  C57  1  0.20525351  0.50388674  0.99997805  1  1.56238  0  0.233101  0.648377  0  4.101414  0
C  C58  1  0.28041704  0.49714646  0.27461380  1  -0.018897  0  -0.018566  -0.104641  0  3.904676  0
C  C59  1  0.25592879  0.55334774  0.30691406  1  -0.025048  0  -0.07591  -0.065851  0  3.978447  0
C  C60  1  0.31652836  0.55567221  0.37145278  1  -0.118146  0  -0.083643  -0.137571  0  3.950977  0
C  C61  1  0.40635001  0.50025511  0.40689063  1  0.174147  0  0.007707  0.166556  0  4.114599  0
C  C62  1  0.43204353  0.44364373  0.37552024  1  0.012767  0  -0.087756  -0.200321  0  3.92343  0
C  C63  1  0.37059706  0.44174210  0.31060076  1  0.086175  0  0.02631  0.152296  0  4.003977  0
C  C64  1  0.47101008  0.50020883  0.47256602  1  -0.099094  0  -0.037194  -0.097014  0  4.093602  0
C  C65  1  0.52897934  0.49847503  0.52878365  1  -0.272586  0  -0.037176  -0.09689  0  4.093519  0
C  C66  1  0.59364860  0.49949095  0.59339152  1  0.149545  0  0.007728  0.166673  0  4.114492  0
C  C67  1  0.56795946  0.55654090  0.62432500  1  0.006654  0  -0.087828  -0.200757  0  3.923896  0
C  C68  1  0.62940970  0.56001191  0.68767043  1  0.045681  0  0.026298  0.152501  0  4.004056  0
C  C69  1  0.71958526  0.50583205  0.72243516  1  0.019962  0  -0.01847  -0.104748  0  3.904841  0
C  C70  1  0.74406868  0.44905783  0.69070284  1  -0.026762  0  -0.075846  -0.065986  0  3.978275  0
C  C71  1  0.68346970  0.44512279  0.62777807  1  -0.063022  0  -0.083765  -0.137505  0  3.951242  0
C  C72  1  0.71958679  0.77461513  0.99715010  1  -0.018894  0  -0.018611  -0.104707  0  3.904645  0
C  C73  1  0.74407420  0.80691973  0.05334810  1  -0.02132  0  -0.075883  -0.065854  0  3.978291  0
C  C74  1  0.68347238  0.87145925  0.05566976  1  -0.121085  0  -0.083681  -0.137676  0  3.951056  0
C  C75  1  0.59365171  0.90689287  0.00025293  1  0.1765  0  0.00774  0.166591  0  4.114562  0
C  C76  1  0.56795965  0.87551886  0.94364375  1  0.010003  0  -0.087705  -0.200214  0  3.92339  0
C  C77  1  0.62940997  0.81059913  0.94174734  1  0.086238  0  0.026242  0.1522  0  4.004083  0
C  C78  1  0.52899090  0.97256707  0.00020635  1  -0.099485  0  -0.037287  -0.097169  0  4.093768  0
C  C79  1  0.47102115  0.02878469  0.99847080  1  -0.272214  0  -0.037126  -0.096794  0  4.093539  0
C  C80  1  0.40635260  0.09339214  0.99948810  1  0.156066  0  0.007707  0.166622  0  4.114463  0
C  C81  1  0.43204105  0.12432622  0.05653835  1  0.000139  0  -0.087816  -0.20072  0  3.923771  0
C  C82  1  0.37058992  0.18767045  0.06001008  1  0.045726  0  0.026253  0.152428  0  4.004067  0
C  C83  1  0.28041341  0.22243700  0.00583105  1  0.019991  0  -0.018478  -0.104776  0  3.904865  0
C  C84  1  0.25593087  0.19070208  0.94905725  1  -0.026764  0  -0.075871  -0.066027  0  3.978289  0
C  C85  1  0.31653043  0.12777597  0.94512447  1  -0.063659  0  -0.083668  -0.137354  0  3.951083  0
C  C86  1  0.27173062  0.50583365  0.99713790  1  -0.002798  0  -0.018424  -0.104849  0  3.90506  0
C  C87  1  0.36024343  0.44904767  0.05335313  1  -0.015287  0  -0.075768  -0.065691  0  3.977893  0
C  C88  1  0.42710069  0.44512457  0.05568411  1  -0.030612  0  -0.083796  -0.137574  0  3.951339  0
C  C89  1  0.40711784  0.49950156  0.00026121  1  0.094903  0  0.00773  0.166451  0  4.114962  0
C  C90  1  0.31913433  0.55655460  0.94363569  1  -0.007261  0  -0.087813  -0.200699  0  3.923978  0
C  C91  1  0.25232106  0.56001586  0.94173862  1  0.089621  0  0.026344  0.15265  0  4.00387  0
C  C92  1  0.47274067  0.49849576  0.00021056  1  -0.293602  0  -0.037293  -0.096917  0  4.092788  0
C  C93  1  0.52722851  0.50024218  0.99846710  1  -0.049621  0  -0.03706  -0.096875  0  4.092739  0
C  C94  1  0.59285578  0.50028938  0.99947508  1  0.050856  0  0.007753  0.166515  0  4.11488  0
C  C95  1  0.68083794  0.44365382  0.05652364  1  -0.004414  0  -0.08775  -0.200261  0  3.923116  0
C  C96  1  0.74765886  0.44175206  0.05999326  1  0.086991  0  0.026334  0.152527  0  4.003993  0
C  C97  1  0.72825166  0.49716304  0.00582380  1  -0.001849  0  -0.018568  -0.104894  0  3.9051  0
C  C98  1  0.63973943  0.55338766  0.94904255  1  -0.01736  0  -0.07587  -0.066096  0  3.978264  0
C  C99  1  0.57287880  0.55571917  0.94511337  1  0.015071  0  -0.083715  -0.137297  0  3.951684  0
C  C100  1  0.72824024  0.77462105  0.72243976  1  -0.028024  0  -0.018588  -0.104457  0  3.904373  0
C  C101  1  0.63972827  0.80695264  0.69074380  1  0.005209  0  -0.075889  -0.065903  0  3.977894  0
C  C102  1  0.57287605  0.87149431  0.62782651  1  0.027075  0  -0.083725  -0.137571  0  3.951597  0
C  C103  1  0.59286359  0.90691342  0.59341952  1  0.084417  0  0.007565  0.166131  0  4.115385  0
C  C104  1  0.68084616  0.87553225  0.62432876  1  -0.00903  0  -0.087664  -0.200209  0  3.923612  0
C  C105  1  0.74765914  0.81061116  0.68767577  1  0.092967  0  0.02633  0.152224  0  4.004198  0
C  C106  1  0.52724392  0.97258836  0.52880538  1  -0.381184  0  -0.037105  -0.096827  0  4.093921  0
C  C107  1  0.47276348  0.02880570  0.47256459  1  -0.005244  0  -0.037294  -0.09708  0  4.093636  0
C  C108  1  0.40713830  0.09340397  0.40687553  1  0.083254  0  0.007841  0.166952  0  4.114262  0
C  C109  1  0.31915250  0.12433514  0.37551439  1  -0.00921  0  -0.0879  -0.200705  0  3.923245  0
C  C110  1  0.25233668  0.18767529  0.31058722  1  0.093587  0  0.026398  0.152658  0  4.003859  0
C  C111  1  0.27175039  0.22243714  0.27459116  1  -0.029373  0  -0.018629  -0.104891  0  3.904719  0
C  C112  1  0.36026303  0.19071009  0.30688711  1  0.015201  0  -0.07581  -0.065939  0  3.978241  0
C  C113  1  0.42711906  0.12778631  0.37142337  1  0.024671  0  -0.083788  -0.137843  0  3.951526  0
C  C114  1  0.99705707  0.50580581  0.27461516  1  0.016763  0  -0.018624  -0.104725  0  3.904725  0
C  C115  1  0.99764641  0.44901336  0.30692216  1  -0.030492  0  -0.075776  -0.065797  0  3.978003  0
C  C116  1  0.99925742  0.44508291  0.37145891  1  -0.027387  0  -0.083741  -0.137628  0  3.95106  0
C  C117  1  0.00029338  0.49946564  0.40689259  1  0.072403  0  0.00773  0.166733  0  4.114362  0
C  C118  1  0.99983831  0.55653020  0.37551555  1  0.01417  0  -0.087806  -0.200612  0  3.923431  0
C  C119  1  0.99826897  0.55999360  0.31059834  1  0.062268  0  0.026372  0.152402  0  4.004181  0
C  C120  1  0.00135374  0.49845758  0.47256780  1  -0.281241  0  -0.037233  -0.097207  0  4.093695  0
C  C121  1  0.00134125  0.50021107  0.52878715  1  -0.059125  0  -0.037198  -0.096818  0  4.093557  0
C  C122  1  0.00025592  0.50027298  0.59339062  1  0.059545  0  0.007791  0.166677  0  4.114471  0
C  C123  1  0.99983489  0.44364512  0.62432662  1  0.032658  0  -0.087783  -0.200421  0  3.923243  0
C  C124  1  0.99825028  0.44175464  0.68766778  1  0.045345  0  0.026363  0.152567  0  4.00393  0
C  C125  1  0.99701756  0.49716125  0.72243039  1  0.010151  0  -0.018484  -0.104813  0  3.904669  0
C  C126  1  0.99758132  0.55338069  0.69070143  1  -0.040014  0  -0.075722  -0.06586  0  3.978178  0
C  C127  1  0.99918829  0.55570599  0.62777485  1  -0.008584  0  -0.083685  -0.137526  0  3.951502  0
C  C128  1  0.00295927  0.77460415  0.00583424  1  0.016092  0  -0.01837  -0.104892  0  3.904618  0
C  C129  1  0.00235824  0.80693029  0.94904438  1  -0.031677  0  -0.075647  -0.065577  0  3.977925  0
C  C130  1  0.00076988  0.87145354  0.94513492  1  -0.02926  0  -0.083734  -0.137773  0  3.951393  0
C  C131  1  0.99974197  0.90687602  0.99953272  1  0.073883  0  0.00779  0.16661  0  4.114308  0
C  C132  1  0.00019132  0.87548505  0.05659079  1  0.013958  0  -0.087977  -0.20099  0  3.924091  0
C  C133  1  0.00175062  0.81057113  0.06003213  1  0.060891  0  0.026232  0.152607  0  4.003903  0
C  C134  1  0.99869287  0.97254726  0.99854175  1  -0.289245  0  -0.037335  -0.097004  0  4.093412  0
C  C135  1  0.99869586  0.02876391  0.00030378  1  -0.041159  0  -0.037056  -0.096604  0  4.093204  0
C  C136  1  0.99975133  0.09338478  0.00033780  1  0.052137  0  0.007476  0.165745  0  4.115071  0
C  C137  1  0.00016916  0.12431842  0.94369829  1  0.026495  0  -0.088119  -0.20056  0  3.923224  0
C  C138  1  0.00174557  0.18766258  0.94178824  1  0.047186  0  0.026424  0.152582  0  4.003951  0
C  C139  1  0.00296700  0.22243812  0.99718709  1  0.010349  0  -0.018426  -0.104681  0  3.90529  0
C  C140  1  0.00241621  0.19071579  0.05342050  1  -0.041391  0  -0.0756  -0.066193  0  3.978488  0
C  C141  1  0.00081395  0.12778741  0.05576296  1  -0.007312  0  -0.083492  -0.136706  0  3.950936  0
Cl  Cl142  1  0.41358237  0.36801560  0.27991811  1  -0.187861  0  -0.007322  -0.073476  0  1.502958  0
Cl  Cl143  1  0.58642550  0.63367531  0.71842360  1  -0.185327  0  -0.007349  -0.073522  0  1.502779  0
Cl  Cl144  1  0.58642743  0.77991042  0.86802393  1  -0.187883  0  -0.007271  -0.073409  0  1.502941  0
Cl  Cl145  1  0.41357530  0.21841831  0.13367651  1  -0.185256  0  -0.007337  -0.073508  0  1.502938  0
Cl  Cl146  1  0.14790611  0.63368670  0.86800676  1  -0.184991  0  -0.007158  -0.073517  0  1.50274  0
Cl  Cl147  1  0.85207202  0.36801906  0.13366296  1  -0.185015  0  -0.007161  -0.073565  0  1.502776  0
Cl  Cl148  1  0.85207361  0.77991592  0.71841219  1  -0.191679  0  -0.007145  -0.073486  0  1.502984  0
Cl  Cl149  1  0.14792165  0.21842524  0.27991288  1  -0.191846  0  -0.007197  -0.073597  0  1.502708  0
Cl  Cl150  1  0.99832555  0.63366388  0.27991003  1  -0.189132  0  -0.007152  -0.07348  0  1.502981  0
Cl  Cl151  1  0.99832554  0.36801629  0.71841794  1  -0.190057  0  -0.007177  -0.073589  0  1.502754  0
Cl  Cl152  1  0.00168486  0.77987389  0.13369491  1  -0.188858  0  -0.006976  -0.073365  0  1.502622  0
Cl  Cl153  1  0.00167144  0.21840780  0.86804259  1  -0.189787  0  -0.007216  -0.073614  0  1.502332  0
O  O154  1  0.13069677  0.55243394  0.18051593  1  -1.183096  0  -0.34678  -0.611613  0  2.26864  0
O  O155  1  0.13068800  0.31687792  0.95019340  1  -1.182124  0  -0.346715  -0.611411  0  2.268659  0
O  O156  1  0.86930908  0.45018501  0.81688306  1  -1.181972  0  -0.346691  -0.611405  0  2.268731  0
O  O157  1  0.86930829  0.68051497  0.05243736  1  -1.182392  0  -0.346851  -0.611697  0  2.268732  0
O  O158  1  0.99740267  0.45016527  0.18053106  1  -1.180655  0  -0.346832  -0.611579  0  2.268598  0
O  O159  1  0.00259695  0.68053513  0.95016526  1  -1.180868  0  -0.346816  -0.611652  0  2.268569  0
O  O160  1  0.99736880  0.55244974  0.81686652  1  -1.178181  0  -0.346812  -0.611569  0  2.268811  0
O  O161  1  0.00261945  0.31687806  0.05246393  1  -1.179252  0  -0.34684  -0.611568  0  2.269147  0
O  O162  1  0.23295987  0.31687367  0.18051027  1  -1.180941  0  -0.347081  -0.611622  0  2.268883  0
O  O163  1  0.76704544  0.55245242  0.95017989  1  -1.172113  0  -0.347041  -0.611551  0  2.26887  0
O  O164  1  0.76702619  0.68053299  0.81686823  1  -1.180341  0  -0.347107  -0.611528  0  2.268738  0
O  O165  1  0.23294810  0.45019215  0.05243979  1  -1.172309  0  -0.347008  -0.611464  0  2.268804  0
O  O166  1  0.87481027  0.44910984  0.05546218  1  -1.172307  0  -0.365247  -0.62565  0  2.381654  0
O  O167  1  0.87480108  0.67610053  0.81935273  1  -1.175361  0  -0.365269  -0.625657  0  2.381306  0
O  O168  1  0.12517458  0.55546779  0.94908337  1  -1.170175  0  -0.365218  -0.625582  0  2.381842  0
O  O169  1  0.12518983  0.31936067  0.17609210  1  -1.175706  0  -0.365211  -0.625631  0  2.381554  0
O  O170  1  0.99545667  0.55545351  0.17610191  1  -1.175641  0  -0.365113  -0.625621  0  2.381568  0
O  O171  1  0.00455422  0.31935257  0.94911830  1  -1.177376  0  -0.365243  -0.625832  0  2.38149  0
O  O172  1  0.99545127  0.44909567  0.81936388  1  -1.176545  0  -0.365084  -0.62543  0  2.381629  0
O  O173  1  0.00455333  0.67609303  0.05545901  1  -1.17506  0  -0.365303  -0.625823  0  2.381705  0
O  O174  1  0.76843548  0.67610822  0.94909065  1  -1.177997  0  -0.365407  -0.625767  0  2.381768  0
O  O175  1  0.23156931  0.44909252  0.17610454  1  -1.178245  0  -0.365508  -0.625868  0  2.381919  0
O  O176  1  0.23156313  0.31935750  0.05546504  1  -1.177456  0  -0.365307  -0.625471  0  2.381996  0
O  O177  1  0.76843870  0.55547393  0.81934747  1  -1.177353  0  -0.3654  -0.625451  0  2.382148  0
O  O178  1  0.90819184  0.63769378  0.95409285  1  -1.214484  0  -0.694665  -1.066213  0  2.361286  0
O  O179  1  0.90819070  0.45412295  0.95410728  1  -1.251194  0  -0.694732  -1.066445  0  2.361583  0
O  O180  1  0.09180148  0.45410349  0.95411514  1  -1.251444  0  -0.694665  -1.066408  0  2.361552  0
O  O181  1  0.09180853  0.45409551  0.13768947  1  -1.231961  0  -0.694581  -1.066269  0  2.361276  0
O  O182  1  0.06760792  0.39861608  0.03381119  1  -1.192202  0  -0.791442  -1.148162  0  2.128468  0
O  O183  1  0.06759883  0.53379464  0.03379488  1  -1.194242  0  -0.791413  -1.148006  0  2.128108  0
O  O184  1  0.93238846  0.53380564  0.89861288  1  -1.192064  0  -0.791439  -1.148253  0  2.128632  0
O  O185  1  0.93239181  0.53380636  0.03378514  1  -1.193997  0  -0.791429  -1.148092  0  2.12827  0
