# generated using pymatgen
data_Zn4H43C80N20Cl5O16
_symmetry_space_group_name_H-M   'P 1'
_cell_length_a   19.18056640
_cell_length_b   19.94238118
_cell_length_c   20.87114998
_cell_angle_alpha   107.10125023
_cell_angle_beta   102.81797880
_cell_angle_gamma   115.60815464
_symmetry_Int_Tables_number   1
_chemical_formula_structural   Zn4H43C80N20Cl5O16
_chemical_formula_sum   'Zn4 H43 C80 N20 Cl5 O16'
_cell_volume   6291.69193879
_cell_formula_units_Z   1
loop_
 _symmetry_equiv_pos_site_id
 _symmetry_equiv_pos_as_xyz
  1  'x, y, z'
loop_
 _atom_site_type_symbol
 _atom_site_label
 _atom_site_symmetry_multiplicity
 _atom_site_fract_x
 _atom_site_fract_y
 _atom_site_fract_z
 _atom_site_occupancy
 _atom_site_pbe_bader_charge
 _atom_site_pbe_bader_spin_density
 _atom_site_pbe_cm5_charge
 _atom_site_pbe_ddec_charge
 _atom_site_pbe_ddec_spin_density
 _atom_site_pbe_ddec_sum_bond_order
 _atom_site_pbe_magmom
Zn  Zn0  1  0.87444638  0.90523637  0.50150686  1  1.227886  0  0.730538  0.658223  0  2.412612  0
Zn  Zn1  1  0.15224171  0.13143184  0.51074060  1  1.21486  0  0.756832  0.692727  0  2.236727  0
Zn  Zn2  1  0.10656172  0.99659335  0.59104367  1  1.237386  0  0.72013  0.657564  0  2.436215  0
Zn  Zn3  1  0.93239349  0.03693796  0.42216180  1  1.199017  0  0.764051  0.690611  0  2.202057  0
H  H4  1  0.83932219  0.90264203  0.63526371  1  0.087837  0  0.112839  0.110714  0  1.030024  0
H  H5  1  0.22748596  0.14754159  0.76517143  1  0.074889  0  0.118356  0.110768  0  0.991511  0
H  H6  1  0.75390241  0.05989962  0.40148487  1  0.085312  0  0.115675  0.105782  0  1.000104  0
H  H7  1  0.18812358  0.28552198  0.65139888  1  0.083398  0  0.107031  0.097642  0  1.058969  0
H  H8  1  0.92093750  0.18126947  0.52106671  1  0.121003  0  0.123033  0.117656  0  1.008168  0
H  H9  1  0.11104083  0.02455230  0.74187768  1  0.089565  0  0.11881  0.107046  0  1.010219  0
H  H10  1  0.77981693  0.73653935  0.36544842  1  0.119675  0  0.11909  0.112709  0  1.008132  0
H  H11  1  0.29384138  0.07907949  0.46503466  1  0.056494  0  0.117267  0.104328  0  0.988994  0
H  H12  1  0.91540093  0.93217188  0.26312369  1  0.068308  0  0.117759  0.104518  0  1.015853  0
H  H13  1  0.18855649  0.06744463  0.36299444  1  0.077073  0  0.11541  0.095369  0  1.027364  0
H  H14  1  0.75963855  0.89759791  0.27126179  1  0.08071  0  0.123194  0.110558  0  0.983737  0
H  H15  1  0.09152831  0.85644091  0.45123606  1  0.134278  0  0.119102  0.113066  0  0.991711  0
H  H16  1  0.48060903  0.00958681  0.36452199  1  0.058354  0  0.09699  0.095256  0  1.011658  0
H  H17  1  0.62631989  0.04258077  0.39982898  1  0.034607  0  0.097579  0.097481  0  1.008879  0
H  H18  1  0.53685736  0.78602782  0.34692217  1  0.116078  0  0.100646  0.115417  0  1.03718  0
H  H19  1  0.39083859  0.75343337  0.31233385  1  0.070696  0  0.102118  0.102772  0  0.994962  0
H  H20  1  0.33121568  0.79741993  0.40004634  1  0.072811  0  0.100663  0.099689  0  1.003806  0
H  H21  1  0.23441075  0.82686876  0.44569935  1  0.062444  0  0.098263  0.098844  0  1.002373  0
H  H22  1  0.23765965  0.96861982  0.32448931  1  0.055795  0  0.092723  0.088396  0  1.033059  0
H  H23  1  0.33603171  0.94059640  0.27997060  1  0.064528  0  0.099778  0.099988  0  1.000454  0
H  H24  1  0.11884795  0.41773005  0.51757641  1  0.100348  0  0.09906  0.1076  0  1.032782  0
H  H25  1  0.97150256  0.32631644  0.63488155  1  0.08635  0  0.110165  0.113181  0  0.97857  0
H  H26  1  0.94212237  0.43832003  0.65421172  1  0.062498  0  0.108105  0.110112  0  0.984218  0
H  H27  1  0.89125313  0.59129970  0.46665770  1  0.093874  0  0.105849  0.110208  0  1.007774  0
H  H28  1  0.03283813  0.74453547  0.69924844  1  0.068566  0  0.098541  0.097021  0  1.016318  0
H  H29  1  0.05493833  0.63471552  0.71091581  1  0.083483  0  0.108736  0.112592  0  0.981679  0
H  H30  1  0.54900804  0.51056476  0.12416203  1  0.093009  0  0.109832  0.114439  0  0.988123  0
H  H31  1  0.68330332  0.62458200  0.23217368  1  0.04691  0  0.10481  0.110681  0  0.991171  0
H  H32  1  0.35562948  0.39599002  0.79485709  1  0.062448  0  0.104972  0.109735  0  0.990765  0
H  H33  1  0.42010869  0.50889372  0.92206326  1  0.087323  0  0.109299  0.116051  0  0.990672  0
H  H34  1  0.60089884  0.79374949  0.22613601  1  0.082288  0  0.104574  0.120939  0  1.004414  0
H  H35  1  0.92678293  0.79654836  0.03326231  1  0.13  0  0.114165  0.12493  0  1.0048  0
H  H36  1  0.18012721  0.04712342  0.24525504  1  0.081392  0  0.104335  0.106494  0  0.998112  0
H  H37  1  0.17871092  0.00798099  0.12021464  1  0.102044  0  0.113254  0.11642  0  0.982823  0
H  H38  1  0.07995055  0.92125424  0.77895965  1  0.086223  0  0.103188  0.117905  0  1.009602  0
H  H39  1  0.21292426  0.86828288  0.67862533  1  0.646648  0  0.36481  0.399149  0  0.818809  0
H  H40  1  0.72081896  0.58761154  0.50118598  1  0.617025  0  0.356937  0.392418  0  0.831616  0
H  H41  1  0.15704966  0.56938703  0.46977267  1  0.627034  0  0.344789  0.381268  0  0.855033  0
H  H42  1  0.83560295  0.40400836  0.35873534  1  0.616231  0  0.344353  0.381704  0  0.857556  0
H  H43  1  0.06369024  0.12512181  0.82662245  1  0.629462  0  0.333174  0.375669  0  0.870687  0
H  H44  1  0.80606826  0.71063862  0.11093999  1  0.611596  0  0.343227  0.38001  0  0.858089  0
H  H45  1  0.73460700  0.77628892  0.86899787  1  0.604674  0  0.348048  0.389415  0  0.839202  0
H  H46  1  0.73707691  0.76924229  0.48331346  1  0.659745  0  0.31346  0.38078  0  0.953099  0
C  C47  1  0.90724632  0.93565739  0.65223778  1  0.465454  0  0.010271  -0.038119  0  3.939941  0
C  C48  1  0.11500429  0.27884125  0.53443823  1  0.552659  0  0.110872  0.176996  0  4.093728  0
C  C49  1  0.21326402  0.16951257  0.72521459  1  0.44301  0  0.007874  -0.043387  0  3.977405  0
C  C50  1  0.75276275  0.01486133  0.42120782  1  0.361642  0  -0.002941  -0.081601  0  4.00703  0
C  C51  1  0.19340063  0.24031112  0.66727994  1  0.407078  0  0.003149  -0.042389  0  3.972452  0
C  C52  1  0.72047893  0.90950812  0.44880202  1  0.439323  0  0.072363  -0.025625  0  3.972478  0
C  C53  1  0.98466097  0.20565294  0.52345490  1  0.418168  0  0.017721  -0.023249  0  3.953867  0
C  C54  1  0.04590251  0.99717079  0.70573468  1  0.415796  0  0.00535  -0.059722  0  3.992373  0
C  C55  1  0.97129825  0.95320465  0.71480981  1  -0.00091  0  -0.04342  -0.051952  0  4.087594  0
C  C56  1  0.04973579  0.28787209  0.54794739  1  0.048739  0  -0.031815  -0.091855  0  4.044656  0
C  C57  1  0.21722804  0.24446490  0.73729791  1  0.031783  0  -0.037333  -0.038818  0  4.075505  0
C  C58  1  0.68227315  0.94287221  0.41232791  1  0.011986  0  -0.016692  -0.021272  0  4.002971  0
C  C59  1  0.78867512  0.78654200  0.35057049  1  0.376913  0  0.011032  -0.03549  0  3.944178  0
C  C60  1  0.23977505  0.03308704  0.46887926  1  0.425642  0  0.007423  -0.046407  0  4.0214  0
C  C61  1  0.03003763  0.82034753  0.57955981  1  0.441915  0  0.066101  -0.060382  0  4.025291  0
C  C62  1  0.98225111  0.97338419  0.29814999  1  0.480481  0  0.017049  -0.01215  0  3.95063  0
C  C63  1  0.12172500  0.04280428  0.34906586  1  0.428981  0  0.014785  -0.033421  0  3.974481  0
C  C64  1  0.89067724  0.74271918  0.52536835  1  0.434253  0  0.067287  -0.055781  0  3.991088  0
C  C65  1  0.77755961  0.86960422  0.30395287  1  0.465342  0  0.018175  -0.038412  0  3.968915  0
C  C66  1  0.13742947  0.91887198  0.46176817  1  0.369509  0  0.009833  -0.031265  0  3.942339  0
C  C67  1  0.73490536  0.78653028  0.29266649  1  -0.02356  0  -0.032498  -0.043677  0  4.077255  0
C  C68  1  0.20153925  0.94632666  0.43653038  1  0.034314  0  -0.031675  -0.033294  0  4.06419  0
C  C69  1  0.96126066  0.74402615  0.56653152  1  -0.013421  0  0.005227  0.001489  0  3.939267  0
C  C70  1  0.05214652  0.98089716  0.28231963  1  0.030708  0  -0.031054  -0.041005  0  4.052721  0
C  C71  1  0.49249862  0.95977988  0.35863161  1  -0.063134  0  -0.096988  -0.131066  0  4.011884  0
C  C72  1  0.57503841  0.97836043  0.37885563  1  -0.061068  0  -0.098186  -0.136423  0  4.011184  0
C  C73  1  0.59369191  0.91734507  0.37900342  1  -0.031794  0  -0.014251  0.074524  0  4.037981  0
C  C74  1  0.52496270  0.83528993  0.35054214  1  -0.006986  0  -0.094459  -0.126446  0  3.972788  0
C  C75  1  0.44233170  0.81710452  0.33132567  1  -0.065028  0  -0.092085  -0.12748  0  4.000862  0
C  C76  1  0.42481124  0.87975062  0.33860949  1  0.013945  0  -0.011385  0.061193  0  4.015221  0
C  C77  1  0.30916653  0.83346901  0.38187049  1  -0.064092  0  -0.092619  -0.125682  0  3.989384  0
C  C78  1  0.25469809  0.85029478  0.40782237  1  -0.032659  0  -0.094438  -0.133896  0  4.004098  0
C  C79  1  0.23401937  0.90512546  0.39276200  1  -0.015499  0  -0.011224  0.083446  0  4.034631  0
C  C80  1  0.25912777  0.93182101  0.34183479  1  -0.053263  0  -0.097605  -0.134579  0  4.009614  0
C  C81  1  0.31395905  0.91564338  0.31646568  1  -0.083779  0  -0.096186  -0.13561  0  4.022261  0
C  C82  1  0.34511176  0.87136306  0.34068119  1  0.000371  0  -0.011331  0.063773  0  4.008274  0
C  C83  1  0.06773163  0.48760801  0.56206157  1  -0.006592  0  -0.016083  -0.079623  0  3.956253  0
C  C84  1  0.08110122  0.42226716  0.54863429  1  -0.041288  0  -0.083895  -0.134466  0  3.930351  0
C  C85  1  0.04450487  0.36165070  0.57207562  1  0.033003  0  -0.006202  0.098676  0  4.038561  0
C  C86  1  0.99800971  0.37106464  0.61369028  1  -0.053345  0  -0.07777  -0.106099  0  3.937841  0
C  C87  1  0.98285970  0.43517145  0.62589226  1  0.027801  0  -0.082786  -0.116413  0  3.987643  0
C  C88  1  0.01422622  0.49224372  0.59789392  1  -0.019176  0  0.005367  0.061012  0  3.962381  0
C  C89  1  0.93562871  0.53723576  0.52713963  1  0.034968  0  -0.017134  -0.087425  0  3.956956  0
C  C90  1  0.92657230  0.60090146  0.52054257  1  -0.049391  0  -0.076946  -0.11371  0  3.93201  0
C  C91  1  0.96378934  0.67722768  0.58124961  1  0.077852  0  -0.008471  0.078924  0  4.024725  0
C  C92  1  0.00573962  0.68676013  0.65058575  1  -0.022481  0  -0.076426  -0.091747  0  3.949941  0
C  C93  1  0.01690067  0.62414116  0.65743987  1  -0.009002  0  -0.080874  -0.117211  0  3.969334  0
C  C94  1  0.98635914  0.55072158  0.59594425  1  -0.00598  0  0.011009  0.072271  0  3.953233  0
C  C95  1  0.65301921  0.71796449  0.23526513  1  -0.035779  0  -0.000186  0.115591  0  4.041232  0
C  C96  1  0.59036469  0.73173886  0.20452168  1  0.033961  0  -0.096048  -0.202194  0  3.948474  0
C  C97  1  0.51315354  0.66680702  0.14706781  1  0.015126  0  0.020331  0.103488  0  4.004076  0
C  C98  1  0.49862568  0.58610737  0.11628676  1  0.450639  0  0.079018  0.098637  0  4.046414  0
C  C99  1  0.56123246  0.57299746  0.14922889  1  -0.069107  0  -0.081264  -0.125851  0  4.001969  0
C  C100  1  0.63565261  0.63637486  0.20852560  1  0.042013  0  -0.096303  -0.140148  0  4.007202  0
C  C101  1  0.23920672  0.37114847  0.92473526  1  0.054611  0  0.022243  0.071113  0  3.984986  0
C  C102  1  0.20413648  0.30652022  0.85443769  1  0.027789  0  -0.015192  -0.127588  0  3.921954  0
C  C103  1  0.31926969  0.44252660  0.95011293  1  0.362972  0  0.080351  0.107676  0  4.054958  0
C  C104  1  0.24739728  0.31419935  0.80793143  1  0.013981  0  0.003722  0.089363  0  3.990685  0
C  C105  1  0.32329093  0.38922435  0.83152866  1  -0.030286  0  -0.091625  -0.127408  0  4.009165  0
C  C106  1  0.35926584  0.45182919  0.90189247  1  0.053865  0  -0.085104  -0.135643  0  4.009421  0
C  C107  1  0.96745985  0.92457078  0.77144629  1  0.010731  0  -0.006679  0.052599  0  4.031117  0
C  C108  1  0.03234033  0.91270064  0.80144333  1  0.043983  0  -0.097288  -0.189408  0  3.974531  0
C  C109  1  0.03768050  0.88932393  0.85784646  1  0.051346  0  0.015915  0.092115  0  4.040908  0
C  C110  1  0.97587352  0.87589800  0.88720409  1  0.445056  0  0.091169  0.104984  0  4.007879  0
C  C111  1  0.90644182  0.87977390  0.85313888  1  -0.002318  0  -0.005118  -0.119551  0  3.917519  0
C  C112  1  0.90266352  0.90479758  0.79729813  1  0.101427  0  0.014338  0.071533  0  4.000795  0
C  C113  1  0.98206105  0.85130699  0.08016297  1  -0.001671  0  -0.067503  -0.133548  0  3.890724  0
C  C114  1  0.98456004  0.86894616  0.15082277  1  -0.056696  0  -0.011966  -0.081404  0  3.918395  0
C  C115  1  0.05044689  0.90385877  0.06880457  1  0.351403  0  0.085292  0.160655  0  4.06222  0
C  C116  1  0.05406680  0.94443762  0.21168620  1  0.041439  0  0.019886  0.105835  0  3.952518  0
C  C117  1  0.12537992  0.99039410  0.19944027  1  -0.040433  0  -0.089442  -0.134011  0  3.986034  0
C  C118  1  0.12484185  0.96980444  0.12980000  1  -0.01167  0  -0.0689  -0.113299  0  3.955729  0
C  C119  1  0.12026784  0.86841361  0.62424380  1  1.442545  0  0.23905  0.562426  0  4.13461  0
C  C120  1  0.80059230  0.68420191  0.50094966  1  1.449474  0  0.238948  0.571816  0  4.136218  0
C  C121  1  0.11133436  0.55225330  0.53873633  1  1.464501  0  0.226213  0.572221  0  4.128556  0
C  C122  1  0.88979459  0.45548369  0.46173626  1  1.451204  0  0.224229  0.567107  0  4.131867  0
C  C123  1  0.11851620  0.22962194  0.82612241  1  1.525212  0  0.229401  0.59538  0  4.142357  0
C  C124  1  0.91683826  0.80501287  0.16134742  1  1.484565  0  0.227019  0.572525  0  4.12378  0
C  C125  1  0.83944012  0.86349285  0.88323165  1  1.559518  0  0.227408  0.587934  0  4.18052  0
C  C126  1  0.68714566  0.83143588  0.45492972  1  1.441457  0  0.231312  0.559624  0  4.093984  0
N  N127  1  0.94194733  0.96423513  0.60908129  1  -0.780285  0  -0.27473  -0.161271  0  3.57472  0
N  N128  1  0.09126471  0.19900701  0.50469129  1  -0.738274  0  -0.270591  -0.259755  0  3.498754  0
N  N129  1  0.18929932  0.12427332  0.65342772  1  -0.780633  0  -0.274965  -0.188788  0  3.526425  0
N  N130  1  0.82617275  0.02407280  0.45931502  1  -0.716684  0  -0.250681  -0.194805  0  3.478483  0
N  N131  1  0.17598648  0.16785271  0.61746463  1  -0.804311  0  -0.282783  -0.20269  0  3.619891  0
N  N132  1  0.80627488  0.96069383  0.47721083  1  -0.723504  0  -0.259193  -0.200966  0  3.541796  0
N  N133  1  0.00972744  0.15332698  0.49741798  1  -0.813406  0  -0.284618  -0.193351  0  3.623466  0
N  N134  1  0.02752388  0.00269810  0.64223283  1  -0.772298  0  -0.269255  -0.17562  0  3.542952  0
N  N135  1  0.85736632  0.86421842  0.39409125  1  -0.760924  0  -0.283699  -0.213975  0  3.507277  0
N  N136  1  0.20209694  0.05594835  0.50996184  1  -0.805067  0  -0.284255  -0.213863  0  3.528294  0
N  N137  1  0.00110560  0.85827689  0.54598149  1  -0.625363  0  -0.212373  -0.167877  0  3.460551  0
N  N138  1  0.00846605  0.02723111  0.36766134  1  -0.789165  0  -0.272944  -0.20277  0  3.544682  0
N  N139  1  0.09503059  0.06936344  0.39956437  1  -0.81555  0  -0.2735  -0.177348  0  3.573165  0
N  N140  1  0.91771163  0.81277804  0.51392479  1  -0.642849  0  -0.203077  -0.15589  0  3.368895  0
N  N141  1  0.84993674  0.91442290  0.36389826  1  -0.796478  0  -0.27687  -0.167843  0  3.634007  0
N  N142  1  0.13771912  0.98481288  0.50510766  1  -0.808523  0  -0.290685  -0.214007  0  3.604261  0
N  N143  1  0.43693449  0.51940102  0.04880833  1  -0.506599  0  -0.145694  -0.119787  0  3.37027  0
N  N144  1  0.36235705  0.50405484  0.02426146  1  -0.40867  0  -0.146836  -0.114714  0  3.235311  0
N  N145  1  0.97600652  0.86403164  0.95044686  1  -0.479849  0  -0.152396  -0.122314  0  3.28027  0
N  N146  1  0.04947640  0.90263203  0.00102242  1  -0.464745  0  -0.150477  -0.131045  0  3.301075  0
Cl  Cl147  1  0.21584036  0.35402382  0.55416937  1  -0.205788  0  0.006283  -0.07674  0  1.483372  0
Cl  Cl148  1  0.18698890  0.36061113  0.98215944  1  -0.182316  0  -0.010864  -0.065894  0  1.457055  0
Cl  Cl149  1  0.44012168  0.68924312  0.11211742  1  -0.187661  0  -0.010771  -0.07493  0  1.476555  0
Cl  Cl150  1  0.81808773  0.91373364  0.76254039  1  -0.194455  0  0.009164  -0.053704  0  1.502337  0
Cl  Cl151  1  0.11726955  0.87171434  0.88584995  1  -0.191324  0  -0.016192  -0.085441  0  1.479072  0
O  O152  1  0.16626726  0.94350343  0.64033255  1  -1.147582  0  -0.284437  -0.473918  0  2.245575  0
O  O153  1  0.15210150  0.82870759  0.64929911  1  -1.128483  0  -0.30011  -0.429384  0  2.256954  0
O  O154  1  0.74217538  0.68894771  0.46714213  1  -1.157357  0  -0.291354  -0.512622  0  2.194629  0
O  O155  1  0.78257619  0.62061299  0.51892607  1  -1.104621  0  -0.314852  -0.45516  0  2.251594  0
O  O156  1  0.13460947  0.62539721  0.56896699  1  -1.12684  0  -0.297987  -0.493649  0  2.091362  0
O  O157  1  0.12587714  0.52162879  0.47863699  1  -1.124209  0  -0.345022  -0.488899  0  2.205277  0
O  O158  1  0.86992168  0.38869588  0.46240730  1  -1.121339  0  -0.294711  -0.486646  0  2.08822  0
O  O159  1  0.86767452  0.46116532  0.39723652  1  -1.116473  0  -0.347132  -0.494615  0  2.20895  0
O  O160  1  0.05341322  0.21773532  0.78591395  1  -1.118625  0  -0.288723  -0.469053  0  2.035045  0
O  O161  1  0.12185814  0.17352704  0.84920809  1  -1.128263  0  -0.340504  -0.491303  0  2.227242  0
O  O162  1  0.92392158  0.79599708  0.21740693  1  -1.125192  0  -0.292189  -0.483959  0  2.079832  0
O  O163  1  0.84372661  0.75226965  0.09886428  1  -1.10898  0  -0.344557  -0.491769  0  2.204942  0
O  O164  1  0.84007546  0.91616193  0.93143035  1  -1.108082  0  -0.289982  -0.472857  0  2.051772  0
O  O165  1  0.77626288  0.78205319  0.84751966  1  -1.09436  0  -0.339075  -0.487496  0  2.201546  0
O  O166  1  0.61465798  0.77243399  0.42742090  1  -1.127685  0  -0.272043  -0.43834  0  2.098224  0
O  O167  1  0.75268206  0.82848328  0.49673482  1  -1.159406  0  -0.350224  -0.508519  0  2.447496  0
