# generated using pymatgen
data_CuSiH16C24S4N4(O2F)6
_symmetry_space_group_name_H-M   'P 1'
_cell_length_a   7.87663811
_cell_length_b   13.72874841
_cell_length_c   13.72837113
_cell_angle_alpha   89.10680971
_cell_angle_beta   92.36304318
_cell_angle_gamma   92.36447277
_symmetry_Int_Tables_number   1
_chemical_formula_structural   CuSiH16C24S4N4(O2F)6
_chemical_formula_sum   'Cu1 Si1 H16 C24 S4 N4 O12 F6'
_cell_volume   1481.86773696
_cell_formula_units_Z   1
loop_
 _symmetry_equiv_pos_site_id
 _symmetry_equiv_pos_as_xyz
  1  'x, y, z'
loop_
 _atom_site_type_symbol
 _atom_site_label
 _atom_site_symmetry_multiplicity
 _atom_site_fract_x
 _atom_site_fract_y
 _atom_site_fract_z
 _atom_site_occupancy
 _atom_site_pbe_bader_charge
 _atom_site_pbe_bader_spin_density
 _atom_site_pbe_cm5_charge
 _atom_site_pbe_ddec_charge
 _atom_site_pbe_ddec_spin_density
 _atom_site_pbe_ddec_sum_bond_order
 _atom_site_pbe_magmom
Cu  Cu0  1  0.50004123  0.49959122  0.50041469  1  1.097895  0.576634  0.784462  0.704799  0.737825  2.305789  0.574
Si  Si1  1  0.99999552  0.50100867  0.49893292  1  3.217098  -0.000213  0.246774  1.709789  -0.000422  3.976783  0.0
H  H2  1  0.25478215  0.64736356  0.54591664  1  0.247648  0.001975  0.125096  0.118024  0.000949  1.049563  0.002
H  H3  1  0.24707465  0.82602510  0.56141095  1  0.143902  0.000996  0.126882  0.14687  0.000522  0.972463  0.001
H  H4  1  0.76087573  0.66474025  0.46280071  1  0.221626  0.00218  0.133133  0.129764  0.001047  1.017119  0.002
H  H5  1  0.23845445  0.33415005  0.46577752  1  0.221667  0.002246  0.133166  0.12956  0.00109  1.015801  0.002
H  H6  1  0.75683751  0.35121594  0.54525198  1  0.218438  0.002112  0.125519  0.117284  0.001007  1.042305  0.002
H  H7  1  0.76945858  0.17266262  0.55969343  1  0.12636  0.001057  0.119389  0.133673  0.000548  0.989116  0.001
H  H8  1  0.24310935  0.45478645  0.64881447  1  0.217871  0.002111  0.125574  0.117518  0.001007  1.041939  0.002
H  H9  1  0.23054861  0.44031667  0.82739188  1  0.125723  0.001058  0.119386  0.133712  0.000548  0.989117  0.001
H  H10  1  0.76151370  0.53423996  0.66581913  1  0.221727  0.002246  0.133063  0.129563  0.00109  1.015889  0.002
H  H11  1  0.23913984  0.53719417  0.33526895  1  0.221618  0.002185  0.13315  0.12972  0.001049  1.017122  0.002
H  H12  1  0.74521779  0.45407003  0.35266994  1  0.247484  0.001979  0.125005  0.118035  0.000951  1.049516  0.002
H  H13  1  0.75296241  0.43857094  0.17399084  1  0.144032  0.000996  0.126901  0.146888  0.000522  0.972471  0.001
H  H14  1  0.77319799  0.97933622  0.56435987  1  0.601476  2e-06  0.313298  0.350097  1.7e-05  0.947692  0.0
H  H15  1  0.04887337  0.02526171  0.56778152  1  0.647868  6.1e-05  0.315387  0.380709  5.7e-05  0.93827  0.0
H  H16  1  0.95115199  0.43224003  0.97471221  1  0.64733  6.1e-05  0.315551  0.380848  5.7e-05  0.938103  0.0
H  H17  1  0.22685795  0.43560762  0.02066664  1  0.600862  2e-06  0.313159  0.350065  1.7e-05  0.947456  0.0
C  C18  1  0.36745952  0.69329162  0.53085597  1  0.46402  -0.001292  0.07246  0.120865  -0.001822  3.842949  -0.001
C  C19  1  0.36365891  0.79381140  0.54047225  1  0.012653  0.006229  -0.047993  -0.111856  0.004128  3.814126  0.005
C  C20  1  0.50884318  0.85208287  0.52088549  1  0.105031  -0.003388  0.031273  0.161088  -0.003767  4.077911  -0.002
C  C21  1  0.65413843  0.80378063  0.49262570  1  -0.159268  0.006051  -0.001208  -0.171597  0.003909  3.893409  0.005
C  C22  1  0.64958434  0.70294209  0.48424789  1  0.505975  -0.000548  0.07085  0.101584  -0.000808  3.863704  0.0
C  C23  1  0.50783174  0.95460949  0.52852948  1  -0.302757  -0.001124  -0.010675  -0.07322  -0.001206  4.04515  0.0
C  C24  1  0.50428926  0.04336724  0.52915318  1  0.018408  -0.001102  -0.004738  -0.050711  -0.001243  4.02201  0.0
C  C25  1  0.49994808  0.14607802  0.52244419  1  0.127218  -0.003356  0.033398  0.163786  -0.003733  4.068305  -0.002
C  C26  1  0.34956470  0.19457312  0.49540367  1  -0.180511  0.006103  0.001627  -0.149597  0.003918  3.849132  0.005
C  C27  1  0.35326291  0.29569668  0.48677919  1  0.539533  -0.0008  0.067851  0.091946  -0.001032  3.870263  -0.001
C  C28  1  0.64229215  0.30523507  0.53134042  1  0.427541  -0.000891  0.070412  0.120333  -0.001439  3.855728  -0.001
C  C29  1  0.64816081  0.20450671  0.54032186  1  0.062977  0.006257  -0.056535  -0.130466  0.004206  3.842175  0.005
C  C30  1  0.35769863  0.46865765  0.69477034  1  0.427843  -0.000889  0.070243  0.119986  -0.001436  3.85546  -0.001
C  C31  1  0.35181742  0.45970681  0.79550475  1  0.063464  0.006258  -0.056338  -0.130233  0.004206  3.842793  0.005
C  C32  1  0.50005060  0.47751838  0.85392229  1  0.127521  -0.003354  0.033226  0.163507  -0.003731  4.069022  -0.002
C  C33  1  0.65040761  0.50462599  0.80542759  1  -0.180445  0.006101  0.001496  -0.149862  0.003917  3.849293  0.005
C  C34  1  0.64674732  0.51321791  0.70429908  1  0.53902  -0.000801  0.067896  0.091927  -0.001034  3.870664  -0.001
C  C35  1  0.49575763  0.47083116  0.95664213  1  0.01893  -0.0011  -0.004653  -0.050444  -0.001242  4.021831  0.0
C  C36  1  0.49220521  0.47145323  0.04540850  1  -0.303356  -0.001123  -0.010589  -0.073287  -0.001206  4.045044  0.0
C  C37  1  0.49121427  0.47908774  0.14793751  1  0.104191  -0.003385  0.031119  0.160994  -0.003763  4.07901  -0.002
C  C38  1  0.34590381  0.50738724  0.19621324  1  -0.158848  0.006059  -0.001155  -0.171721  0.003914  3.892949  0.005
C  C39  1  0.35044152  0.51573610  0.29707128  1  0.506768  -0.000548  0.07087  0.101542  -0.000807  3.863777  0.0
C  C40  1  0.63253413  0.46913084  0.30674066  1  0.464059  -0.001296  0.072362  0.120381  -0.001826  3.843074  -0.001
C  C41  1  0.63637735  0.45952346  0.20621053  1  0.013216  0.006229  -0.04782  -0.111567  0.004128  3.814825  0.005
S  S42  1  0.84047944  0.87274332  0.46054601  1  3.030978  0.001247  0.553375  1.149211  0.000949  5.949277  0.001
S  S43  1  0.15490169  0.12835842  0.46602304  1  3.074976  0.001078  0.539294  1.152418  0.000825  6.015066  0.001
S  S44  1  0.84513177  0.53399509  0.87161141  1  3.075325  0.001079  0.539707  1.153246  0.000825  6.014169  0.001
S  S45  1  0.15956179  0.53948510  0.12724772  1  3.031913  0.001247  0.553755  1.149831  0.000949  5.947709  0.001
N  N46  1  0.50722522  0.64903018  0.50343545  1  -1.180636  0.091834  -0.324618  -0.210963  0.061047  3.543063  0.08
N  N47  1  0.49768035  0.34975189  0.50500544  1  -1.199905  0.09219  -0.32616  -0.212989  0.061263  3.555299  0.081
N  N48  1  0.50230585  0.49503667  0.65025013  1  -1.199406  0.092206  -0.325988  -0.212697  0.061274  3.554977  0.081
N  N49  1  0.49278550  0.49657040  0.35097379  1  -1.181549  0.091827  -0.324587  -0.210537  0.061042  3.543646  0.08
O  O50  1  0.87382507  0.93869029  0.55970369  1  -1.156174  0.000906  -0.362245  -0.54341  0.000568  2.193076  0.001
O  O51  1  0.98297186  0.81192476  0.45995328  1  -1.264196  8.4e-05  -0.266157  -0.463928  1.7e-05  2.179594  0.0
O  O52  1  0.79532489  0.93721905  0.38146998  1  -1.254888  0.000891  -0.287545  -0.487817  0.000543  2.10771  0.001
O  O53  1  0.11773362  0.08771565  0.57390726  1  -1.218058  0.000645  -0.377492  -0.554598  0.000391  2.165156  0.0
O  O54  1  0.02923733  0.19675855  0.43646217  1  -1.27012  0.000104  -0.29061  -0.501788  3.7e-05  2.168418  0.0
O  O55  1  0.18853665  0.04746762  0.40521280  1  -1.27423  0.000986  -0.305253  -0.518314  0.000604  2.122331  0.001
O  O56  1  0.88234237  0.42612266  0.91224521  1  -1.217379  0.000645  -0.377785  -0.554752  0.000391  2.165067  0.0
O  O57  1  0.97076691  0.56358136  0.80319557  1  -1.270007  0.000105  -0.290757  -0.502082  3.7e-05  2.167938  0.0
O  O58  1  0.81152954  0.59478100  0.95253073  1  -1.274789  0.000986  -0.305329  -0.51869  0.000605  2.122503  0.001
O  O59  1  0.12619386  0.44030686  0.06132240  1  -1.156066  0.000907  -0.362331  -0.543771  0.000569  2.192576  0.001
O  O60  1  0.01707146  0.54008246  0.18808646  1  -1.263799  8.4e-05  -0.266104  -0.463923  1.7e-05  2.178882  0.0
O  O61  1  0.20479062  0.61851227  0.06274928  1  -1.255606  0.000891  -0.287722  -0.487936  0.000543  2.107577  0.001
F  F62  1  0.21833928  0.49118602  0.49059882  1  -0.830478  -0.00181  -0.210844  -0.542206  -0.001928  1.356024  -0.001
F  F63  1  0.78164006  0.50939141  0.50875721  1  -0.830598  -0.001813  -0.21098  -0.542393  -0.001929  1.35644  -0.001
F  F64  1  0.99997132  0.58900220  0.41091837  1  -0.830643  0.000251  -0.239803  -0.529109  0.000201  1.103716  0.0
F  F65  1  0.99992667  0.41168329  0.58834154  1  -0.836598  0.00049  -0.243355  -0.531977  0.000359  1.083028  0.0
F  F66  1  0.03351640  0.58699212  0.58649409  1  -0.830753  0.00048  -0.234516  -0.520687  0.000346  1.116795  0.0
F  F67  1  0.96654237  0.41343294  0.41299809  1  -0.831127  0.000479  -0.234221  -0.520436  0.000346  1.117061  0.0
