# generated using pymatgen
data_CdH11C15Br(N2O)2
_symmetry_space_group_name_H-M   'P 1'
_cell_length_a   6.43617996
_cell_length_b   12.07479244
_cell_length_c   22.75558397
_cell_angle_alpha   97.37867832
_cell_angle_beta   90.04259264
_cell_angle_gamma   105.44849717
_symmetry_Int_Tables_number   1
_chemical_formula_structural   CdH11C15Br(N2O)2
_chemical_formula_sum   'Cd4 H44 C60 Br4 N16 O8'
_cell_volume   1689.32240837
_cell_formula_units_Z   4
loop_
 _symmetry_equiv_pos_site_id
 _symmetry_equiv_pos_as_xyz
  1  'x, y, z'
loop_
 _atom_site_type_symbol
 _atom_site_label
 _atom_site_symmetry_multiplicity
 _atom_site_fract_x
 _atom_site_fract_y
 _atom_site_fract_z
 _atom_site_occupancy
 _atom_site_pbe_bader_charge
 _atom_site_pbe_bader_spin_density
 _atom_site_pbe_cm5_charge
 _atom_site_pbe_ddec_charge
 _atom_site_pbe_ddec_spin_density
 _atom_site_pbe_ddec_sum_bond_order
 _atom_site_pbe_magmom
Cd  Cd0  1  0.35273811  0.83811891  0.46782391  1  1.140956  0  0.647643  0.74641  0  2.364844  0
Cd  Cd1  1  0.51489127  0.16174621  0.03238054  1  1.14052  0  0.64719  0.745228  0  2.365918  0
Cd  Cd2  1  0.64722764  0.16187745  0.53217709  1  1.140976  0  0.647593  0.746391  0  2.364963  0
Cd  Cd3  1  0.48508236  0.83824413  0.96762533  1  1.140246  0  0.647205  0.745277  0  2.365945  0
H  H4  1  0.55881777  0.12242012  0.25118101  1  0.111696  0  0.104607  0.105656  0  1.014592  0
H  H5  1  0.43516902  0.87717054  0.24923236  1  0.106232  0  0.104497  0.105916  0  1.01369  0
H  H6  1  0.44119655  0.87759880  0.74882324  1  0.111301  0  0.104596  0.105679  0  1.014571  0
H  H7  1  0.56484811  0.12281363  0.75076037  1  0.106043  0  0.104518  0.105951  0  1.013677  0
H  H8  1  0.40865513  0.13991304  0.35386797  1  0.096721  0  0.100996  0.118957  0  1.028621  0
H  H9  1  0.26810093  0.85963033  0.14635284  1  0.113242  0  0.100799  0.118709  0  1.0278  0
H  H10  1  0.59134346  0.86010239  0.64613429  1  0.096225  0  0.100976  0.118932  0  1.028768  0
H  H11  1  0.73189818  0.14035818  0.85364149  1  0.112877  0  0.100769  0.118668  0  1.027888  0
H  H12  1  0.96464916  0.31182208  0.28982494  1  0.075526  0  0.109681  0.119914  0  0.984713  0
H  H13  1  0.65192729  0.68737822  0.21002498  1  0.073917  0  0.109212  0.120233  0  0.983725  0
H  H14  1  0.03535846  0.68818034  0.71017558  1  0.075602  0  0.109701  0.119898  0  0.984762  0
H  H15  1  0.34805698  0.31263030  0.78997946  1  0.074091  0  0.109185  0.120281  0  0.983681  0
H  H16  1  0.10209764  0.28517651  0.18766151  1  0.111607  0  0.107215  0.111172  0  1.026303  0
H  H17  1  0.81580994  0.71414823  0.31233037  1  0.107447  0  0.107165  0.111012  0  1.025275  0
H  H18  1  0.89793160  0.71483807  0.81234157  1  0.111516  0  0.107257  0.111197  0  1.026197  0
H  H19  1  0.18421315  0.28586026  0.68767011  1  0.107338  0  0.107108  0.110939  0  1.02524  0
H  H20  1  0.90284232  0.99358547  0.38360012  1  0.092044  0  0.102832  0.173936  0  0.974385  0
H  H21  1  0.90985077  0.00615180  0.11671442  1  0.112355  0  0.103312  0.174616  0  0.973083  0
H  H22  1  0.09716657  0.00641950  0.61639354  1  0.092199  0  0.102886  0.17394  0  0.974461  0
H  H23  1  0.09015153  0.99385239  0.88329061  1  0.112249  0  0.103331  0.174649  0  0.973225  0
H  H24  1  0.79705176  0.05760622  0.32859468  1  0.051424  0  0.099713  0.149736  0  0.986634  0
H  H25  1  0.73868250  0.94162982  0.17127251  1  0.056146  0  0.099591  0.149104  0  0.988301  0
H  H26  1  0.20297911  0.94241786  0.67140420  1  0.051551  0  0.099657  0.149598  0  0.986738  0
H  H27  1  0.26131383  0.05837176  0.82873059  1  0.056282  0  0.099567  0.149098  0  0.988145  0
H  H28  1  0.65293935  0.02743863  0.39420454  1  0.101305  0  0.09277  0.148252  0  1.060572  0
H  H29  1  0.62622077  0.97258168  0.10562916  1  0.114636  0  0.092694  0.147451  0  1.061818  0
H  H30  1  0.34705986  0.97255942  0.60579086  1  0.101205  0  0.092754  0.148142  0  1.060756  0
H  H31  1  0.37377581  0.02741729  0.89437289  1  0.114599  0  0.092737  0.14753  0  1.061684  0
H  H32  1  0.57086773  0.36946778  0.38185690  1  0.093093  0  0.105797  0.107248  0  1.007394  0
H  H33  1  0.20137170  0.63037364  0.11828131  1  0.087651  0  0.105869  0.107603  0  1.008041  0
H  H34  1  0.42916365  0.63053554  0.61814764  1  0.093239  0  0.105829  0.107292  0  1.00753  0
H  H35  1  0.79860806  0.36962275  0.88172320  1  0.087979  0  0.105928  0.107659  0  1.00812  0
H  H36  1  0.84717948  0.56168674  0.38085336  1  0.084055  0  0.109901  0.118142  0  0.999737  0
H  H37  1  0.28549815  0.43824232  0.11960231  1  0.070825  0  0.110171  0.118203  0  0.999382  0
H  H38  1  0.15285389  0.43831743  0.61914992  1  0.083988  0  0.109894  0.118092  0  0.999889  0
H  H39  1  0.71449870  0.56175407  0.88040265  1  0.070651  0  0.110196  0.118226  0  0.99946  0
H  H40  1  0.75619798  0.74176748  0.42167523  1  0.157062  0  0.116982  0.100674  0  1.014724  0
H  H41  1  0.01482897  0.25808749  0.07874634  1  0.140263  0  0.116999  0.100818  0  1.015132  0
H  H42  1  0.24382632  0.25823411  0.57833007  1  0.157185  0  0.117001  0.100662  0  1.014677  0
H  H43  1  0.98515698  0.74190887  0.92125378  1  0.140344  0  0.11697  0.100827  0  1.014958  0
H  H44  1  0.14280028  0.56111560  0.46414972  1  0.12656  0  0.113044  0.079131  0  1.069789  0
H  H45  1  0.58227539  0.43868539  0.03552528  1  0.125057  0  0.113327  0.079422  0  1.069996  0
H  H46  1  0.85721731  0.43889119  0.53585505  1  0.126687  0  0.113038  0.079089  0  1.069766  0
H  H47  1  0.41771218  0.56130490  0.96447487  1  0.125081  0  0.113368  0.079411  0  1.070024  0
C  C48  1  0.42939211  0.19351573  0.15267806  1  1.588468  0  0.183271  0.541864  0  4.250437  0
C  C49  1  0.23455405  0.80622126  0.34757326  1  1.542524  0  0.18524  0.543322  0  4.247634  0
C  C50  1  0.57059269  0.80648146  0.84731859  1  1.588361  0  0.183241  0.541912  0  4.25082  0
C  C51  1  0.76544749  0.19376900  0.65242382  1  1.54298  0  0.185238  0.543437  0  4.247734  0
C  C52  1  0.34325378  0.20552318  0.21399104  1  -0.020922  0  -0.011926  -0.019882  0  3.948494  0
C  C53  1  0.13643897  0.79412446  0.28619902  1  -0.005629  0  -0.011844  -0.02041  0  3.948917  0
C  C54  1  0.65673999  0.79446709  0.78600648  1  -0.020942  0  -0.011942  -0.01982  0  3.948516  0
C  C55  1  0.86357187  0.20586578  0.71379498  1  -0.005516  0  -0.011883  -0.02062  0  3.949113  0
C  C56  1  0.42901453  0.16381557  0.26059427  1  -0.045291  0  -0.080249  -0.08123  0  3.970216  0
C  C57  1  0.26400310  0.83591177  0.23968285  1  -0.026473  0  -0.080595  -0.081985  0  3.970392  0
C  C58  1  0.57098500  0.83619552  0.73940639  1  -0.044874  0  -0.080343  -0.081432  0  3.970174  0
C  C59  1  0.73600582  0.16407152  0.76030806  1  -0.026242  0  -0.080605  -0.081851  0  3.970113  0
C  C60  1  0.34854670  0.17452981  0.31732836  1  -0.058733  0  -0.088584  -0.163918  0  3.965307  0
C  C61  1  0.17311817  0.82518932  0.18286902  1  -0.062067  0  -0.087854  -0.162482  0  3.966084  0
C  C62  1  0.65145368  0.82548300  0.68267109  1  -0.058766  0  -0.088463  -0.163706  0  3.965241  0
C  C63  1  0.82688931  0.17480351  0.81712472  1  -0.061955  0  -0.087775  -0.162486  0  3.966032  0
C  C64  1  0.18488575  0.23035159  0.32721589  1  0.254255  0  0.089258  0.172959  0  4.027259  0
C  C65  1  0.95371058  0.76925967  0.17284182  1  0.256209  0  0.089538  0.172048  0  4.029293  0
C  C66  1  0.81510547  0.76964910  0.67278452  1  0.254685  0  0.089199  0.172947  0  4.027005  0
C  C67  1  0.04627909  0.23074101  0.82715771  1  0.25621  0  0.089492  0.17195  0  4.029312  0
C  C68  1  0.09530736  0.27072384  0.28113790  1  0.039138  0  -0.087258  -0.165861  0  3.990037  0
C  C69  1  0.82363904  0.72866816  0.21881546  1  -0.003733  0  -0.087676  -0.167879  0  3.99039  0
C  C70  1  0.90469040  0.72926817  0.71886105  1  0.039096  0  -0.087285  -0.165819  0  3.989942  0
C  C71  1  0.17635090  0.27134552  0.78118361  1  -0.003747  0  -0.08767  -0.167913  0  3.990185  0
C  C72  1  0.17327277  0.25689306  0.22443606  1  -0.05925  0  -0.077776  -0.070686  0  3.955848  0
C  C73  1  0.91521780  0.74252879  0.27559259  1  -0.030211  0  -0.077343  -0.068959  0  3.955505  0
C  C74  1  0.82672094  0.74310330  0.77556406  1  -0.059182  0  -0.077766  -0.070717  0  3.955866  0
C  C75  1  0.08478999  0.25747707  0.72440464  1  -0.030387  0  -0.077184  -0.068677  0  3.955319  0
C  C76  1  0.81338695  0.05707566  0.37658488  1  -0.020043  0  -0.236033  -0.474149  0  3.94095  0
C  C77  1  0.75660661  0.94265099  0.12335266  1  -0.053095  0  -0.236531  -0.473288  0  3.942918  0
C  C78  1  0.18661834  0.94293453  0.62341132  1  -0.020186  0  -0.235935  -0.473733  0  3.941204  0
C  C79  1  0.24338488  0.05734713  0.87665109  1  -0.053482  0  -0.236548  -0.47334  0  3.942858  0
C  C80  1  0.92717176  0.17307507  0.40682114  1  0.975315  0  0.232064  0.350693  0  3.962583  0
C  C81  1  0.75416595  0.82668945  0.09302773  1  0.991415  0  0.231501  0.348747  0  3.96362  0
C  C82  1  0.07282898  0.82692911  0.59318258  1  0.975126  0  0.231965  0.35057  0  3.962664  0
C  C83  1  0.24583261  0.17331039  0.90697481  1  0.991121  0  0.231577  0.348787  0  3.963472  0
C  C84  1  0.15992159  0.34505851  0.42680675  1  0.952319  0  0.224081  0.219097  0  4.02258  0
C  C85  1  0.81488319  0.65469238  0.07313907  1  0.980003  0  0.224387  0.217958  0  4.020767  0
C  C86  1  0.84009510  0.65494650  0.57319219  1  0.952699  0  0.224212  0.219419  0  4.022502  0
C  C87  1  0.18510682  0.34529966  0.92686384  1  0.980163  0  0.22433  0.217862  0  4.021247  0
C  C88  1  0.33287031  0.44999965  0.42265339  1  -0.060377  0  -0.003975  -0.020085  0  4.019522  0
C  C89  1  0.88283136  0.54972779  0.07741477  1  -0.061465  0  -0.004308  -0.01825  0  4.016837  0
C  C90  1  0.66714767  0.55000796  0.57734572  1  -0.060144  0  -0.004087  -0.020145  0  4.018783  0
C  C91  1  0.11716312  0.45026078  0.92258615  1  -0.06133  0  -0.004214  -0.01812  0  4.016285  0
C  C92  1  0.53425920  0.45046610  0.39876005  1  -0.007445  0  -0.066659  -0.067816  0  3.933349  0
C  C93  1  0.08375799  0.54933414  0.10142351  1  -0.080483  0  -0.066409  -0.068805  0  3.932883  0
C  C94  1  0.46575104  0.54954155  0.60124345  1  -0.007505  0  -0.066658  -0.067882  0  3.933311  0
C  C95  1  0.91621915  0.45065703  0.89857802  1  -0.08113  0  -0.066496  -0.068995  0  3.932759  0
C  C96  1  0.68757955  0.55605212  0.39817065  1  -0.017872  0  -0.080165  -0.11772  0  3.973293  0
C  C97  1  0.13164208  0.44379393  0.10207243  1  0.031885  0  -0.08045  -0.117641  0  3.972872  0
C  C98  1  0.31244137  0.44395204  0.60183087  1  -0.017486  0  -0.080102  -0.117534  0  3.973397  0
C  C99  1  0.86834146  0.55620071  0.89793065  1  0.031952  0  -0.080447  -0.117548  0  3.972815  0
C  C100  1  0.63804118  0.65815966  0.42146549  1  0.494667  0  0.053387  0.102989  0  3.920262  0
C  C101  1  0.98011668  0.34162038  0.07871692  1  0.523594  0  0.05318  0.101973  0  3.921858  0
C  C102  1  0.36198129  0.34184450  0.57853559  1  0.494586  0  0.053299  0.10287  0  3.920238  0
C  C103  1  0.01987452  0.65836471  0.92128421  1  0.523816  0  0.053114  0.101788  0  3.921571  0
C  C104  1  0.29651291  0.55673343  0.44509661  1  0.578708  0  0.050758  0.061784  0  3.896112  0
C  C105  1  0.74010231  0.44302166  0.05481304  1  0.573468  0  0.050529  0.060866  0  3.895791  0
C  C106  1  0.70349391  0.44326118  0.55490251  1  0.578242  0  0.0507  0.0617  0  3.895993  0
C  C107  1  0.25989841  0.55698249  0.94518716  1  0.573587  0  0.050429  0.060779  0  3.895885  0
Br  Br108  1  0.72001720  0.94084876  0.52924939  1  -0.559362  0  -0.242836  -0.438256  0  1.415257  0
Br  Br109  1  0.77878446  0.05903497  0.97070098  1  -0.559216  0  -0.243036  -0.43804  0  1.415364  0
Br  Br110  1  0.27995657  0.05915117  0.47076415  1  -0.559395  0  -0.242806  -0.438199  0  1.415441  0
Br  Br111  1  0.22118668  0.94095355  0.02929379  1  -0.559264  0  -0.243039  -0.438067  0  1.415482  0
N  N112  1  0.10227304  0.24687935  0.38525937  1  -1.261107  0  -0.21683  -0.12801  0  3.706896  0
N  N113  1  0.85507125  0.75278791  0.11471357  1  -1.261335  0  -0.217066  -0.126065  0  3.706857  0
N  N114  1  0.89772887  0.75311786  0.61473949  1  -1.261103  0  -0.216851  -0.12828  0  3.707028  0
N  N115  1  0.14491401  0.24721018  0.88528666  1  -1.260863  0  -0.217177  -0.126113  0  3.706698  0
N  N116  1  0.88272193  0.22485575  0.45853609  1  -0.742185  0  -0.244875  -0.241547  0  3.430223  0
N  N117  1  0.65829517  0.77501198  0.04123186  1  -0.776434  0  -0.243658  -0.240043  0  3.426312  0
N  N118  1  0.11728675  0.77515188  0.54146521  1  -0.742104  0  -0.244771  -0.241298  0  3.430079  0
N  N119  1  0.34170710  0.22499217  0.95876833  1  -0.776062  0  -0.243634  -0.240022  0  3.426204  0
N  N120  1  0.02723487  0.33186797  0.47129931  1  -0.700433  0  -0.216854  -0.227267  0  3.224388  0
N  N121  1  0.69602105  0.66802838  0.02848642  1  -0.677234  0  -0.217219  -0.227536  0  3.225331  0
N  N122  1  0.97277493  0.66813880  0.52870282  1  -0.700599  0  -0.217017  -0.227621  0  3.224805  0
N  N123  1  0.30396308  0.33197056  0.97151255  1  -0.677491  0  -0.217256  -0.227538  0  3.225613  0
N  N124  1  0.44576091  0.65803904  0.44451857  1  -1.237368  0  -0.32492  -0.226341  0  3.49805  0
N  N125  1  0.78816362  0.34168733  0.05544266  1  -1.236462  0  -0.324913  -0.225323  0  3.49569  0
N  N126  1  0.55424871  0.34196425  0.55548245  1  -1.237691  0  -0.324848  -0.226242  0  3.498236  0
N  N127  1  0.21183371  0.65830382  0.94455668  1  -1.236382  0  -0.324774  -0.225097  0  3.495985  0
O  O128  1  0.32834473  0.22326654  0.11125738  1  -1.167293  0  -0.334335  -0.541702  0  2.241493  0
O  O129  1  0.10388936  0.77650146  0.38896260  1  -1.164985  0  -0.335676  -0.542974  0  2.241809  0
O  O130  1  0.67163363  0.77673328  0.88874340  1  -1.167096  0  -0.334325  -0.541792  0  2.241638  0
O  O131  1  0.89609584  0.22349655  0.61102796  1  -1.165212  0  -0.335732  -0.543056  0  2.241729  0
O  O132  1  0.59241810  0.15460265  0.14447975  1  -1.165805  0  -0.330324  -0.543504  0  2.164999  0
O  O133  1  0.43650537  0.84520860  0.35583060  1  -1.150061  0  -0.330986  -0.544195  0  2.164436  0
O  O134  1  0.40758387  0.84540404  0.85551182  1  -1.165807  0  -0.330304  -0.543516  0  2.165284  0
O  O135  1  0.56349567  0.15477130  0.64417151  1  -1.150069  0  -0.330955  -0.544264  0  2.16451  0
