# generated using pymatgen
data_ZnH10C16NO6
_symmetry_space_group_name_H-M   'P 1'
_cell_length_a   9.96365003
_cell_length_b   10.85703429
_cell_length_c   14.45178694
_cell_angle_alpha   89.81886884
_cell_angle_beta   88.24525742
_cell_angle_gamma   89.55868459
_symmetry_Int_Tables_number   1
_chemical_formula_structural   ZnH10C16NO6
_chemical_formula_sum   'Zn2 H20 C32 N2 O12'
_cell_volume   1562.54586888
_cell_formula_units_Z   2
loop_
 _symmetry_equiv_pos_site_id
 _symmetry_equiv_pos_as_xyz
  1  'x, y, z'
loop_
 _atom_site_type_symbol
 _atom_site_label
 _atom_site_symmetry_multiplicity
 _atom_site_fract_x
 _atom_site_fract_y
 _atom_site_fract_z
 _atom_site_occupancy
 _atom_site_pbe_bader_charge
 _atom_site_pbe_bader_spin_density
 _atom_site_pbe_cm5_charge
 _atom_site_pbe_ddec_charge
 _atom_site_pbe_ddec_spin_density
 _atom_site_pbe_ddec_sum_bond_order
 _atom_site_pbe_magmom
Zn  Zn0  1  0.35996310  0.50046069  0.50886511  1  1.299217  0  0.680712  0.832631  0  2.383759  0
Zn  Zn1  1  0.64663674  0.50660712  0.49976375  1  1.297971  0  0.675697  0.827846  0  2.37848  0
H  H2  1  0.86252582  0.55373223  0.70911333  1  0.110061  0  0.12364  0.133173  0  0.945743  0
H  H3  1  0.31964254  0.09533395  0.67433464  1  0.059639  0  0.095082  0.107313  0  0.983707  0
H  H4  1  0.20651799  0.11172831  0.58132223  1  0.038385  0  0.093295  0.107169  0  0.993214  0
H  H5  1  0.31838206  0.86799254  0.65559479  1  0.033755  0  0.093195  0.062781  0  0.963936  0
H  H6  1  0.68093954  0.78610277  0.34487799  1  0.082624  0  0.088684  0.129879  0  1.030203  0
H  H7  1  0.68280325  0.92351912  0.27883206  1  0.004088  0  0.094861  0.128728  0  0.996115  0
H  H8  1  0.80259977  0.90061522  0.36501478  1  0.04919  0  0.093957  0.132309  0  0.985741  0
H  H9  1  0.13831410  0.66334759  0.69995976  1  0.097052  0  0.113562  0.056059  0  0.967944  0
H  H10  1  0.78143230  0.36404807  0.77415770  1  0.102206  0  0.114058  0.047503  0  0.942504  0
H  H11  1  0.66347733  0.24139391  0.35324374  1  0.070668  0  0.087444  0.131265  0  1.02528  0
H  H12  1  0.79577624  0.16147570  0.40536434  1  0.044261  0  0.09327  0.1335  0  0.984032  0
H  H13  1  0.72599089  0.10219595  0.30350245  1  -0.000934  0  0.089263  0.120971  0  1.024789  0
H  H14  1  0.13671376  0.92033370  0.49035267  1  0.035709  0  0.08986  0.12639  0  0.991034  0
H  H15  1  0.17871097  0.77190982  0.53090594  1  0.040151  0  0.076716  0.108277  0  1.064133  0
H  H16  1  0.08043512  0.87454254  0.60339611  1  0.009163  0  0.080379  0.105997  0  1.01289  0
H  H17  1  0.76899958  0.54862199  0.32500325  1  0.196342  0  0.123445  0.091274  0  1.044093  0
H  H18  1  0.18112413  0.51764874  0.27806055  1  0.129743  0  0.115487  0.06776  0  0.973479  0
H  H19  1  0.24032812  0.34333762  0.68733346  1  0.101014  0  0.099452  0.153556  0  1.009695  0
H  H20  1  0.12120262  0.33563252  0.78186189  1  0.096274  0  0.102124  0.14894  0  0.982738  0
H  H21  1  0.08465022  0.26704692  0.67288906  1  0.063957  0  0.095669  0.137835  0  1.018371  0
C  C22  1  0.51784140  0.73632810  0.47811421  1  1.554698  0  0.226109  0.621126  0  4.129188  0
C  C23  1  0.46943220  0.46319463  0.22446360  1  0.181551  0  -0.004685  -0.131755  0  3.837948  0
C  C24  1  0.41242643  0.93507761  0.52486551  1  -0.00676  0  -0.010614  0.006163  0  3.901104  0
C  C25  1  0.50913418  0.87314027  0.47080633  1  0.02024  0  -0.009807  -0.109842  0  3.93764  0
C  C26  1  0.60148844  0.94594176  0.41801668  1  0.01127  0  -0.000727  0.089992  0  3.880252  0
C  C27  1  0.60221622  0.07608431  0.42754385  1  0.006832  0  0.003416  0.105117  0  3.861589  0
C  C28  1  0.51037236  0.13582049  0.49072602  1  -0.049497  0  -0.015861  -0.136582  0  3.946681  0
C  C29  1  0.41406008  0.06224165  0.53508618  1  -0.018307  0  -0.010401  0.056981  0  3.955948  0
C  C30  1  0.29686786  0.06336147  0.60447073  1  -0.036549  0  -0.153413  -0.237477  0  3.857423  0
C  C31  1  0.29282582  0.91834075  0.59209869  1  0.019491  0  -0.076552  0.053971  0  3.832237  0
C  C32  1  0.92870133  0.49373272  0.57042568  1  0.610253  0  0.150123  0.186587  0  3.903602  0
C  C33  1  0.49103882  0.52174920  0.68593222  1  1.671462  0  0.224646  0.653142  0  4.254453  0
C  C34  1  0.94244538  0.53323408  0.41771465  1  0.511884  0  0.128935  0.089891  0  3.86594  0
C  C35  1  0.08399414  0.53800544  0.42101560  1  0.431052  0  0.15722  0.150359  0  3.775117  0
C  C36  1  0.06814254  0.49308814  0.57367673  1  0.52515  0  0.151718  0.144942  0  3.852481  0
C  C37  1  0.07161103  0.46691885  0.67666418  1  0.03332  0  0.013041  0.068608  0  3.727305  0
C  C38  1  0.90575264  0.47314278  0.67281995  1  -0.041876  0  -0.062627  -0.188591  0  3.745132  0
C  C39  1  0.51255751  0.27006203  0.51062702  1  1.537418  0  0.221644  0.614621  0  4.135184  0
C  C40  1  0.47545193  0.46908089  0.32379772  1  1.667271  0  0.225405  0.650827  0  4.259594  0
C  C41  1  0.48857799  0.50956091  0.78527472  1  -0.023734  0  -0.012145  -0.146874  0  3.855032  0
C  C42  1  0.48265531  0.49633694  0.86969131  1  -0.052773  0  -0.012284  0.026094  0  4.265601  0
C  C43  1  0.47670489  0.48317051  0.96190804  1  0.057057  0  -0.00035  -0.003021  0  4.191382  0
C  C44  1  0.47227180  0.47295056  0.04698313  1  -0.145654  0  0.002244  0.002083  0  4.190718  0
C  C45  1  0.46962657  0.46611163  0.13956881  1  -0.225368  0  -0.009632  0.024309  0  4.254573  0
C  C46  1  0.69690605  0.88540461  0.34851933  1  -0.066626  0  -0.241053  -0.405163  0  3.982373  0
C  C47  1  0.11974770  0.57446565  0.73653671  1  0.941785  0  0.115498  0.272539  0  3.892266  0
C  C48  1  0.83294860  0.35721554  0.70488897  1  0.960633  0  0.117833  0.334019  0  3.896739  0
C  C49  1  0.70132938  0.14907785  0.36890230  1  -0.040079  0  -0.245289  -0.404952  0  3.981015  0
C  C50  1  0.16445912  0.86806004  0.55231602  1  -0.061389  0  -0.248378  -0.39094  0  3.975517  0
C  C51  1  0.87928792  0.55812282  0.32739945  1  0.906157  0  0.11437  0.234352  0  3.873094  0
C  C52  1  0.16380467  0.58316580  0.33542580  1  1.026558  0  0.100528  0.241041  0  3.979632  0
C  C53  1  0.13296318  0.34472346  0.70637460  1  -0.110201  0  -0.238921  -0.422412  0  3.894337  0
N  N54  1  0.86118743  0.50979386  0.49364420  1  -1.207411  0  -0.264477  -0.190829  0  3.386242  0
N  N55  1  0.14983405  0.51460395  0.50072861  1  -1.174628  0  -0.270034  -0.198655  0  3.383174  0
O  O56  1  0.40840408  0.67674540  0.47929972  1  -1.164792  0  -0.303241  -0.536436  0  2.386383  0
O  O57  1  0.63451230  0.68855730  0.48798231  1  -1.142201  0  -0.321816  -0.548174  0  2.332219  0
O  O58  1  0.37777058  0.54009488  0.64898411  1  -1.137259  0  -0.297274  -0.529225  0  2.284175  0
O  O59  1  0.60535714  0.51205223  0.64446258  1  -1.149583  0  -0.299516  -0.539457  0  2.27517  0
O  O60  1  0.40276039  0.32124294  0.53919064  1  -1.166084  0  -0.319804  -0.553342  0  2.313432  0
O  O61  1  0.62415587  0.32613236  0.49875180  1  -1.159527  0  -0.312191  -0.535653  0  2.400696  0
O  O62  1  0.36930369  0.44342079  0.37114864  1  -1.143003  0  -0.297756  -0.530945  0  2.301101  0
O  O63  1  0.58722193  0.50066637  0.35604747  1  -1.1503  0  -0.295447  -0.540997  0  2.325043  0
O  O64  1  0.13026094  0.56382230  0.81962904  1  -1.020921  0  -0.238211  -0.312224  0  2.121333  0
O  O65  1  0.83390996  0.26257967  0.66002951  1  -1.063422  0  -0.243662  -0.330812  0  2.109691  0
O  O66  1  0.94822902  0.58710143  0.25903663  1  -1.021936  0  -0.212304  -0.283678  0  2.120014  0
O  O67  1  0.20654993  0.68801382  0.33679928  1  -1.054736  0  -0.244114  -0.309884  0  2.136427  0
