# generated using pymatgen
data_Zn2H35C46N2O8F5
_symmetry_space_group_name_H-M   'P 1'
_cell_length_a   11.79865032
_cell_length_b   13.24731796
_cell_length_c   13.42635886
_cell_angle_alpha   86.45292974
_cell_angle_beta   59.11723235
_cell_angle_gamma   82.26624516
_symmetry_Int_Tables_number   1
_chemical_formula_structural   Zn2H35C46N2O8F5
_chemical_formula_sum   'Zn2 H35 C46 N2 O8 F5'
_cell_volume   1784.56703830
_cell_formula_units_Z   1
loop_
 _symmetry_equiv_pos_site_id
 _symmetry_equiv_pos_as_xyz
  1  'x, y, z'
loop_
 _atom_site_type_symbol
 _atom_site_label
 _atom_site_symmetry_multiplicity
 _atom_site_fract_x
 _atom_site_fract_y
 _atom_site_fract_z
 _atom_site_occupancy
 _atom_site_pbe_bader_charge
 _atom_site_pbe_bader_spin_density
 _atom_site_pbe_cm5_charge
 _atom_site_pbe_ddec_charge
 _atom_site_pbe_ddec_spin_density
 _atom_site_pbe_ddec_sum_bond_order
 _atom_site_pbe_magmom
Zn  Zn0  1  0.62324593  0.48535754  0.48082085  1  1.301462  0  0.678193  0.850765  0  2.394343  0
Zn  Zn1  1  0.35157352  0.51211818  0.54149234  1  1.28814  0  0.672269  0.825188  0  2.375645  0
H  H2  1  0.22419819  0.37476285  0.88821822  1  0.099518  0  0.1032  0.10334  0  1.028184  0
H  H3  1  0.62434786  0.20224792  0.30080949  1  0.096666  0  0.113851  0.143221  0  0.975921  0
H  H4  1  0.86722646  0.58307788  0.31954444  1  0.133916  0  0.126405  0.106788  0  1.015599  0
H  H5  1  0.90379665  0.37932695  0.70512077  1  0.128014  0  0.122545  0.133568  0  0.978746  0
H  H6  1  0.10929651  0.41928977  0.70015190  1  0.162253  0  0.130697  0.109542  0  0.986417  0
H  H7  1  0.25832285  0.32948594  0.22766782  1  0.054414  0  0.100299  0.102774  0  0.994668  0
H  H8  1  0.23214018  0.58315088  0.39707190  1  0.116231  0  0.131945  0.108646  0  1.000249  0
H  H9  1  0.19427651  0.32282372  0.08206595  1  0.063491  0  0.103352  0.10601  0  0.994368  0
H  H10  1  0.70557908  0.51880792  0.84271910  1  0.102456  0  0.105375  0.122822  0  1.039268  0
H  H11  1  0.39532173  0.39118669  0.29536600  1  0.099303  0  0.10277  0.115108  0  1.01646  0
H  H12  1  0.78187402  0.86511116  0.22540019  1  0.043275  0  0.080927  0.110071  0  1.021245  0
H  H13  1  0.75649133  0.74083480  0.28599368  1  0.021253  0  0.078522  0.10422  0  1.057525  0
H  H14  1  0.76016324  0.76844163  0.15286502  1  -0.003079  0  0.087121  0.119693  0  0.998447  0
H  H15  1  0.52870285  0.76011737  0.31882839  1  0.026009  0  0.092937  0.096301  0  0.984817  0
H  H16  1  0.54687432  0.88193941  0.25695394  1  0.052722  0  0.091007  0.091838  0  0.994887  0
H  H17  1  0.04525541  0.62909219  0.14900157  1  0.030913  0  0.091724  0.123295  0  1.011068  0
H  H18  1  0.97399053  0.73718098  0.24314216  1  0.039296  0  0.091088  0.1205  0  1.014266  0
H  H19  1  0.14205199  0.72771532  0.12862142  1  0.04576  0  0.095087  0.126483  0  1.001367  0
H  H20  1  0.13717412  0.68925888  0.31260209  1  0.037697  0  0.103702  0.102309  0  0.957839  0
H  H21  1  0.20478050  0.58098478  0.22238815  1  0.063131  0  0.099718  0.101523  0  0.993974  0
H  H22  1  0.36609834  0.70999745  0.97232527  1  -0.004319  0  0.082899  0.109853  0  1.020659  0
H  H23  1  0.51428997  0.67645279  0.97676448  1  0.042664  0  0.078165  0.106284  0  1.041683  0
H  H24  1  0.51216052  0.76471628  0.87245931  1  0.060849  0  0.087255  0.119621  0  0.996496  0
H  H25  1  0.62172817  0.59553296  0.77376609  1  -0.03967  0  0.085592  0.081037  0  1.00418  0
H  H26  1  0.47740216  0.63696880  0.77216406  1  0.084852  0  0.09257  0.103003  0  1.025172  0
H  H27  1  0.87622950  0.38747972  0.16626587  1  0.067193  0  0.084789  0.124251  0  1.01529  0
H  H28  1  0.98311158  0.40294531  0.01376553  1  0.004266  0  0.082239  0.110504  0  1.011476  0
H  H29  1  0.01468251  0.45807940  0.11262648  1  0.020319  0  0.078475  0.101589  0  1.049658  0
H  H30  1  0.90850152  0.59174194  0.03807311  1  0.027794  0  0.091603  0.088485  0  0.988179  0
H  H31  1  0.80098033  0.57516173  0.18881806  1  0.047765  0  0.092973  0.090255  0  1.024517  0
H  H32  1  0.20992461  0.24071689  0.69420296  1  0.025848  0  0.080059  0.108231  0  1.028045  0
H  H33  1  0.19229926  0.11903322  0.76098895  1  0.02458  0  0.082028  0.111621  0  1.015461  0
H  H34  1  0.17893481  0.22777775  0.83888073  1  0.024431  0  0.082959  0.110146  0  1.015125  0
H  H35  1  0.40462465  0.13056067  0.76504105  1  0.045018  0  0.090098  0.093371  0  0.998592  0
H  H36  1  0.41774804  0.24934613  0.69754976  1  0.035365  0  0.092682  0.094249  0  0.999973  0
C  C37  1  0.47974684  0.69501916  0.50866958  1  1.614238  0  0.219937  0.624932  0  4.16555  0
C  C38  1  0.54935288  0.48410476  0.01702479  1  -0.000619  0  -0.000808  0.063802  0  3.969366  0
C  C39  1  0.52330113  0.46482113  0.13213218  1  -0.033764  0  -0.008132  0.044052  0  3.97879  0
C  C40  1  0.45139822  0.46840053  0.98615803  1  -0.054792  0  -0.003922  -0.026013  0  3.882516  0
C  C41  1  0.35195161  0.40475540  0.06073027  1  -0.060598  0  -0.011079  0.075475  0  4.049906  0
C  C42  1  0.33581046  0.37732558  0.17180712  1  0.016967  0  -0.096809  -0.145265  0  4.035203  0
C  C43  1  0.41234606  0.41095609  0.20917741  1  -0.103772  0  -0.095462  -0.132357  0  4.015631  0
C  C44  1  0.45097532  0.51203756  0.88637295  1  0.04803  0  0.009101  0.082777  0  3.82188  0
C  C45  1  0.28362951  0.40202059  0.91935925  1  -0.04857  0  -0.087318  -0.092  0  4.026613  0
C  C46  1  0.61469248  0.49025619  0.16400624  1  -0.030629  0  -0.009367  -0.109024  0  3.88087  0
C  C47  1  0.51486421  0.18908180  0.48930246  1  -0.009264  0  -0.012198  -0.039094  0  3.979099  0
C  C48  1  0.57168291  0.49380370  0.29028637  1  1.583735  0  0.216744  0.598866  0  4.164993  0
C  C49  1  0.47549595  0.80819739  0.52086865  1  -0.007308  0  -0.02346  -0.172346  0  3.991921  0
C  C50  1  0.41295934  0.94805754  0.65478701  1  0.47643  0  0.08359  0.111853  0  4.083142  0
C  C51  1  0.41918427  0.84678270  0.63363810  1  0.558683  0  0.085743  0.145709  0  4.122885  0
C  C52  1  0.52551378  0.87345287  0.42647419  1  8.4e-05  0  -0.001227  0.087012  0  3.882776  0
C  C53  1  0.52316929  0.97917834  0.44675861  1  0.031169  0  -0.014456  -0.084752  0  3.967207  0
C  C54  1  0.46363865  0.01987573  0.56388236  1  0.087682  0  -0.008834  -0.042605  0  3.983961  0
C  C55  1  0.45712143  0.12615625  0.58462918  1  0.028874  0  -0.008606  0.053108  0  3.879185  0
C  C56  1  0.57760218  0.15207163  0.37481719  1  0.053291  0  -0.106408  -0.248014  0  4.042844  0
C  C57  1  0.57880247  0.05144232  0.35638134  1  0.370025  0  0.095164  0.244594  0  4.062324  0
C  C58  1  0.97324710  0.42529155  0.63625529  1  0.008536  0  -0.066184  -0.132189  0  3.951796  0
C  C59  1  0.51008418  0.30152119  0.50363748  1  1.573032  0  0.218254  0.609673  0  4.17556  0
C  C60  1  0.08560114  0.44635338  0.63392463  1  0.475654  0  0.056796  0.094081  0  3.905069  0
C  C61  1  0.15443950  0.54109489  0.46390353  1  0.570731  0  0.08113  0.082732  0  3.833407  0
C  C62  1  0.04074052  0.52624555  0.45886801  1  0.027277  0  0.01386  0.01597  0  3.964025  0
C  C63  1  0.94906854  0.46576406  0.54821407  1  0.001425  0  0.004315  -0.047217  0  4.036528  0
C  C64  1  0.83511335  0.45127305  0.54333915  1  1.166536  0  0.260342  0.403873  0  4.026606  0
C  C65  1  0.89719490  0.55079225  0.38014770  1  0.378995  0  0.044494  0.038383  0  3.877704  0
C  C66  1  0.01440541  0.56918821  0.37109254  1  0.028826  0  0.007538  0.041313  0  3.930864  0
C  C67  1  0.39193856  0.49300532  0.73180431  1  1.55528  0  0.2175  0.601307  0  4.152887  0
C  C68  1  0.26888445  0.37232151  0.02524347  1  -0.076109  0  -0.095165  -0.146618  0  4.023769  0
C  C69  1  0.37330205  0.47180006  0.85008842  1  0.01356  0  -0.01695  -0.088546  0  3.930033  0
C  C70  1  0.73989048  0.51764388  0.08056220  1  0.056007  0  -0.006493  0.0127  0  3.935394  0
C  C71  1  0.76648544  0.52324833  0.96570548  1  0.360431  0  0.090426  0.224531  0  4.071353  0
C  C72  1  0.67606296  0.51073908  0.93350114  1  0.038513  0  -0.102537  -0.259383  0  4.038001  0
C  C73  1  0.57717249  0.82878523  0.30727855  1  0.020866  0  -0.164645  -0.143991  0  3.967685  0
C  C74  1  0.72831219  0.79936421  0.23862351  1  -0.036225  0  -0.249558  -0.353979  0  3.955507  0
C  C75  1  0.11137025  0.63148720  0.27430077  1  -0.014744  0  -0.153016  -0.142724  0  3.986375  0
C  C76  1  0.06480961  0.68394000  0.19486253  1  -0.065005  0  -0.23869  -0.353303  0  3.943489  0
C  C77  1  0.51305293  0.60901008  0.83064943  1  0.037097  0  -0.168245  -0.154518  0  3.966712  0
C  C78  1  0.47490341  0.69432775  0.91860604  1  -0.079803  0  -0.248032  -0.351498  0  3.963457  0
C  C79  1  0.84675713  0.53844528  0.10366290  1  0.019861  0  -0.166467  -0.144514  0  3.996173  0
C  C80  1  0.93528814  0.44053457  0.09898814  1  -0.066107  0  -0.249062  -0.353056  0  3.946333  0
C  C81  1  0.38264801  0.17507841  0.70419148  1  0.019722  0  -0.166584  -0.150561  0  3.974924  0
C  C82  1  0.23190021  0.19148336  0.75260709  1  -0.070041  0  -0.246824  -0.348239  0  3.956684  0
N  N83  1  0.80850596  0.49203387  0.46534027  1  -1.236803  0  -0.313059  -0.288187  0  3.512671  0
N  N84  1  0.17447779  0.50321097  0.54832239  1  -1.239908  0  -0.308122  -0.180779  0  3.504778  0
O  O85  1  0.59407822  0.64350895  0.46009087  1  -1.167546  0  -0.311709  -0.5482  0  2.302676  0
O  O86  1  0.36801703  0.66157359  0.55122829  1  -1.151631  0  -0.314987  -0.533838  0  2.296335  0
O  O87  1  0.65784073  0.46202264  0.31905446  1  -1.156952  0  -0.307361  -0.529514  0  2.358413  0
O  O88  1  0.45245117  0.53124009  0.35953191  1  -1.174643  0  -0.311097  -0.558158  0  2.354618  0
O  O89  1  0.60641527  0.33158473  0.50579223  1  -1.153163  0  -0.318132  -0.541663  0  2.283942  0
O  O90  1  0.41023495  0.35710146  0.50888915  1  -1.166594  0  -0.316836  -0.558934  0  2.318967  0
O  O91  1  0.50801672  0.51170721  0.65321429  1  -1.179154  0  -0.31908  -0.571395  0  2.444632  0
O  O92  1  0.29697014  0.48566188  0.71409074  1  -1.153781  0  -0.316429  -0.536157  0  2.252448  0
F  F93  1  0.35668676  0.97551347  0.76813037  1  -0.625656  0  -0.087741  -0.115952  0  1.399831  0
F  F94  1  0.64041378  0.02126081  0.24274579  1  -0.636919  0  -0.094956  -0.142091  0  1.370905  0
F  F95  1  0.36979382  0.78277776  0.72551932  1  -0.635491  0  -0.086466  -0.106321  0  1.384456  0
F  F96  1  0.74861481  0.39260831  0.62425567  1  -0.61636  0  -0.055316  -0.108681  0  1.365737  0
F  F97  1  0.89024753  0.54496662  0.88010636  1  -0.639403  0  -0.104224  -0.151574  0  1.345594  0
