# generated using pymatgen
data_ZnH11C27N2(ClO2)3
_symmetry_space_group_name_H-M   'P 1'
_cell_length_a   9.74175972
_cell_length_b   11.05479087
_cell_length_c   28.07778060
_cell_angle_alpha   89.85091753
_cell_angle_beta   90.69255857
_cell_angle_gamma   90.55785326
_symmetry_Int_Tables_number   1
_chemical_formula_structural   ZnH11C27N2(ClO2)3
_chemical_formula_sum   'Zn2 H22 C54 N4 Cl6 O12'
_cell_volume   3023.41015764
_cell_formula_units_Z   2
loop_
 _symmetry_equiv_pos_site_id
 _symmetry_equiv_pos_as_xyz
  1  'x, y, z'
loop_
 _atom_site_type_symbol
 _atom_site_label
 _atom_site_symmetry_multiplicity
 _atom_site_fract_x
 _atom_site_fract_y
 _atom_site_fract_z
 _atom_site_occupancy
 _atom_site_pbe_bader_charge
 _atom_site_pbe_bader_spin_density
 _atom_site_pbe_cm5_charge
 _atom_site_pbe_ddec_charge
 _atom_site_pbe_ddec_spin_density
 _atom_site_pbe_ddec_sum_bond_order
 _atom_site_pbe_magmom
Zn  Zn0  1  0.63558644  0.49865652  0.49950188  1  1.274309  0  0.66852  0.819683  0  2.436285  0
Zn  Zn1  1  0.35065526  0.49410077  0.50017297  1  1.254711  0  0.666029  0.817972  0  2.421441  0
H  H2  1  0.29097077  0.54302987  0.34572964  1  0.073214  0  0.10206  0.097093  0  1.034956  0
H  H3  1  0.28811843  0.48559649  0.65447308  1  0.094063  0  0.104753  0.105276  0  1.003199  0
H  H4  1  0.29902039  0.48305952  0.74385209  1  0.080658  0  0.109965  0.116598  0  0.978084  0
H  H5  1  0.56842129  0.18415508  0.03104171  1  0.106  0  0.10482  0.115119  0  1.0172  0
H  H6  1  0.30581117  0.87807636  0.54055532  1  0.088364  0  0.109692  0.114816  0  0.988212  0
H  H7  1  0.30641996  0.10261917  0.54450928  1  0.08788  0  0.109276  0.113601  0  0.985027  0
H  H8  1  0.29288051  0.54080358  0.25672823  1  0.088021  0  0.110494  0.119108  0  0.97915  0
H  H9  1  0.12263914  0.40775536  0.56590806  1  0.148385  0  0.135628  0.118394  0  0.971373  0
H  H10  1  0.86346995  0.41076793  0.56599189  1  0.120335  0  0.13673  0.119776  0  0.969059  0
H  H11  1  0.86062367  0.54838029  0.38945682  1  0.095643  0  0.111131  0.13688  0  0.980724  0
H  H12  1  0.86260334  0.69295553  0.41687865  1  0.117857  0  0.09887  0.124091  0  1.026793  0
H  H13  1  0.45757199  0.77827866  0.12307044  1  0.108155  0  0.116791  0.123613  0  0.981536  0
H  H14  1  0.72564524  0.52776163  0.64960741  1  0.126245  0  0.105137  0.106054  0  1.004071  0
H  H15  1  0.73791226  0.52435998  0.73897389  1  0.071083  0  0.108853  0.115177  0  0.980194  0
H  H16  1  0.70579175  0.41720529  0.34986960  1  0.105704  0  0.100862  0.10254  0  1.019647  0
H  H17  1  0.70921636  0.41435846  0.26081115  1  0.064932  0  0.110376  0.119429  0  0.977929  0
H  H18  1  0.50609373  0.18890800  0.96367582  1  0.085386  0  0.107699  0.109576  0  1.003213  0
H  H19  1  0.49366765  0.19820304  0.87541675  1  0.143442  0  0.117686  0.124315  0  0.982686  0
H  H20  1  0.80635382  0.88786532  0.46234481  1  0.1128  0  0.104836  0.105199  0  0.969614  0
H  H21  1  0.11992373  0.54666589  0.38957459  1  0.06262  0  0.111106  0.133443  0  0.988873  0
H  H22  1  0.12499076  0.69151608  0.41770326  1  0.112285  0  0.117112  0.14244  0  0.953009  0
H  H23  1  0.48544715  0.79064121  0.03585777  1  0.10311  0  0.09585  0.104657  0  1.038443  0
C  C24  1  0.48714048  0.73134486  0.49660385  1  1.559735  0  0.215887  0.599431  0  4.186143  0
C  C25  1  0.38284014  0.51319601  0.27726099  1  0.065338  0  -0.082563  -0.147996  0  3.975304  0
C  C26  1  0.50135164  0.47782921  0.25387810  1  0.276998  0  0.092273  0.19753  0  4.001127  0
C  C27  1  0.52316595  0.48130541  0.10166300  1  -0.054825  0  0.006202  0.049249  0  3.984517  0
C  C28  1  0.49884431  0.58950911  0.12706000  1  0.034936  0  -0.009219  -0.069091  0  3.995408  0
C  C29  1  0.48194944  0.69778436  0.10262719  1  -0.000397  0  -0.067112  -0.06001  0  3.960291  0
C  C30  1  0.53347730  0.36903019  0.12667299  1  -0.05828  0  -0.014553  -0.13601  0  3.938381  0
C  C31  1  0.49812868  0.48083069  0.35323251  1  0.011928  0  -0.014479  -0.029452  0  3.958377  0
C  C32  1  0.50631352  0.50612013  0.64688381  1  -0.016097  0  -0.01438  -0.032919  0  3.958217  0
C  C33  1  0.55822929  0.60567189  0.97556443  1  0.052345  0  0.003511  -0.002537  0  3.940181  0
C  C34  1  0.53339304  0.38156472  0.97290797  1  -0.04018  0  0.004375  0.042984  0  3.970557  0
C  C35  1  0.49761051  0.48450369  0.40661068  1  1.574096  0  0.21679  0.592083  0  4.171874  0
C  C36  1  0.54284645  0.49563223  0.94900412  1  -0.070338  0  0.003358  0.003629  0  3.926983  0
C  C37  1  0.59908107  0.70967596  0.95018884  1  0.116786  0  0.015438  0.042734  0  3.967624  0
C  C38  1  0.59713492  0.71311370  0.89938452  1  0.071975  0  0.024989  0.086892  0  4.019324  0
C  C39  1  0.55955439  0.61022825  0.87319856  1  0.057104  0  -0.014823  -0.123606  0  3.957048  0
C  C40  1  0.54061885  0.49896130  0.89808955  1  0.046321  0  0.003037  0.042534  0  4.002335  0
C  C41  1  0.52085366  0.38970284  0.87244273  1  -0.001288  0  -0.01089  -0.069521  0  3.993499  0
C  C42  1  0.51577691  0.38774918  0.81985183  1  1.319512  0  0.239306  0.437285  0  4.127294  0
C  C43  1  0.54019468  0.61367695  0.82052622  1  1.381547  0  0.239098  0.448615  0  4.084274  0
C  C44  1  0.63975804  0.51585742  0.72016634  1  -0.031168  0  -0.08314  -0.15215  0  3.974426  0
C  C45  1  0.63303299  0.51753981  0.67062757  1  -0.029607  0  -0.078206  -0.070868  0  3.969401  0
C  C46  1  0.48969294  0.26172429  0.50561595  1  1.564669  0  0.216313  0.599436  0  4.185095  0
C  C47  1  0.38600728  0.49388861  0.67337136  1  -0.04956  0  -0.077605  -0.071499  0  3.970597  0
C  C48  1  0.39200378  0.49265595  0.72293012  1  0.037531  0  -0.083104  -0.150296  0  3.971334  0
C  C49  1  0.51906945  0.50331925  0.74596929  1  0.282559  0  0.092262  0.204366  0  4.012605  0
C  C50  1  0.53238817  0.60159037  0.02696514  1  0.004963  0  0.001308  0.048984  0  3.96362  0
C  C51  1  0.53456229  0.48736199  0.05092267  1  0.03074  0  0.001857  -0.004072  0  3.923892  0
C  C52  1  0.54363940  0.37754265  0.02482655  1  0.024845  0  0.005197  0.061405  0  3.998988  0
C  C53  1  0.49896447  0.70407664  0.05345695  1  -0.107723  0  -0.087027  -0.122144  0  3.983584  0
C  C54  1  0.55340191  0.26405016  0.09974401  1  0.081554  0  0.031731  0.156328  0  4.027297  0
C  C55  1  0.51545064  0.27624964  0.94595728  1  -0.051535  0  -0.080376  -0.117626  0  3.971505  0
C  C56  1  0.50812006  0.28019784  0.89644244  1  0.00068  0  -0.067006  -0.066369  0  3.97358  0
C  C57  1  0.49996537  0.50587418  0.59346651  1  1.569732  0  0.215449  0.594132  0  4.173864  0
C  C58  1  0.55621367  0.26931177  0.04978245  1  0.029119  0  -0.089239  -0.194062  0  3.958355  0
C  C59  1  0.59027814  0.93690734  0.47796262  1  -0.007791  0  -0.007332  0.036159  0  3.923703  0
C  C60  1  0.48850595  0.86611358  0.49889714  1  0.116141  0  -0.00451  -0.043306  0  3.938514  0
C  C61  1  0.38731166  0.92991401  0.52344650  1  -0.015781  0  -0.073057  -0.083668  0  3.946423  0
C  C62  1  0.38849161  0.05632445  0.52605492  1  -0.062383  0  -0.07423  -0.0901  0  3.944034  0
C  C63  1  0.49240800  0.12683787  0.50513015  1  0.060756  0  0.00034  -0.016207  0  3.923596  0
C  C64  1  0.59321789  0.06234636  0.48160026  1  -0.059228  0  -0.01345  -0.028246  0  3.920573  0
C  C65  1  0.71944767  0.07573715  0.45106994  1  0.265466  0  0.060698  0.190968  0  3.807243  0
C  C66  1  0.71507066  0.93056271  0.44688732  1  0.121726  0  -0.045071  -0.027197  0  3.825694  0
C  C67  1  0.06419954  0.54084513  0.46507371  1  0.488191  0  0.148638  0.201215  0  3.856496  0
C  C68  1  0.48919566  0.59119053  0.17949981  1  1.368791  0  0.240887  0.431715  0  4.120488  0
C  C69  1  0.06448899  0.44689220  0.53640684  1  0.40722  0  0.064254  0.043712  0  3.870772  0
C  C70  1  0.92140519  0.44872994  0.53649525  1  0.565599  0  0.064713  0.042694  0  3.880592  0
C  C71  1  0.92105470  0.54229931  0.46505992  1  0.634137  0  0.149145  0.203747  0  3.855103  0
C  C72  1  0.91079738  0.60365786  0.41710999  1  0.001994  0  -0.139667  -0.22475  0  3.811434  0
C  C73  1  0.07389615  0.60261466  0.41719145  1  -0.06299  0  -0.136001  -0.22563  0  3.813918  0
C  C74  1  0.52163784  0.36628808  0.17935221  1  1.368381  0  0.239241  0.441685  0  4.085214  0
C  C75  1  0.61803286  0.44314716  0.27962635  1  0.111786  0  -0.084076  -0.149189  0  3.972088  0
C  C76  1  0.61611945  0.44478842  0.32916691  1  -0.121127  0  -0.081834  -0.079497  0  3.973167  0
C  C77  1  0.38184361  0.51443808  0.32681495  1  -0.106336  0  -0.079418  -0.074568  0  3.975758  0
N  N78  1  0.50479033  0.47897712  0.20248202  1  -1.186533  0  -0.230716  -0.207547  0  3.562531  0
N  N79  1  0.52702750  0.50082349  0.79741115  1  -1.18979  0  -0.232601  -0.227479  0  3.598491  0
N  N80  1  0.13931304  0.49393229  0.50009563  1  -1.217829  0  -0.286385  -0.177799  0  3.463537  0
N  N81  1  0.84638149  0.49757949  0.50027649  1  -1.194163  0  -0.28781  -0.178155  0  3.470276  0
Cl  Cl82  1  0.57356137  0.12211551  0.12393984  1  -0.156297  0  0.014966  -0.043115  0  1.500141  0
Cl  Cl83  1  0.69725833  0.15899277  0.39785212  1  -0.178703  0  -0.028398  -0.094103  0  1.464895  0
Cl  Cl84  1  0.87215995  0.12617248  0.48177818  1  -0.215561  0  -0.060768  -0.140143  0  1.347738  0
Cl  Cl85  1  0.68861862  0.86868426  0.38915649  1  -0.225735  0  -0.041324  -0.100289  0  1.427372  0
Cl  Cl86  1  0.64381948  0.84560765  0.87217224  1  -0.120699  0  0.025004  -0.016367  0  1.612686  0
Cl  Cl87  1  0.66209262  0.83689923  0.97886517  1  -0.174976  0  0.013209  -0.055704  0  1.618712  0
O  O88  1  0.60195276  0.68114100  0.48920352  1  -1.158376  0  -0.314715  -0.540894  0  2.306104  0
O  O89  1  0.53377904  0.70699747  0.79689047  1  -1.080365  0  -0.271198  -0.4219  0  2.123612  0
O  O90  1  0.52557711  0.27311650  0.20316162  1  -1.087982  0  -0.268865  -0.421666  0  2.133532  0
O  O91  1  0.50140064  0.29422337  0.79661532  1  -1.086374  0  -0.281123  -0.438344  0  2.058048  0
O  O92  1  0.37225002  0.67830900  0.50287852  1  -1.158897  0  -0.317312  -0.547087  0  2.32015  0
O  O93  1  0.61337096  0.47337823  0.42763368  1  -1.156538  0  -0.314658  -0.547692  0  2.360848  0
O  O94  1  0.38268224  0.49898718  0.42705131  1  -1.174049  0  -0.317104  -0.552725  0  2.307108  0
O  O95  1  0.60505522  0.31560139  0.50909106  1  -1.149226  0  -0.313804  -0.542113  0  2.3349  0
O  O96  1  0.37219574  0.31019706  0.50162922  1  -1.145186  0  -0.317121  -0.541438  0  2.3056  0
O  O97  1  0.61302671  0.52144147  0.57171210  1  -1.167095  0  -0.321424  -0.556312  0  2.326114  0
O  O98  1  0.38273690  0.48985945  0.57380019  1  -1.165381  0  -0.318517  -0.554492  0  2.316631  0
O  O99  1  0.46991934  0.68463714  0.20203709  1  -1.094017  0  -0.277546  -0.43641  0  2.071106  0
