# generated using pymatgen
data_AlH15(C3O2)9
_symmetry_space_group_name_H-M   'P 1'
_cell_length_a   4.09302981
_cell_length_b   15.92720814
_cell_length_c   15.76427625
_cell_angle_alpha   118.27305430
_cell_angle_beta   90.51980845
_cell_angle_gamma   87.68619449
_symmetry_Int_Tables_number   1
_chemical_formula_structural   AlH15(C3O2)9
_chemical_formula_sum   'Al1 H15 C27 O18'
_cell_volume   904.28253899
_cell_formula_units_Z   1
loop_
 _symmetry_equiv_pos_site_id
 _symmetry_equiv_pos_as_xyz
  1  'x, y, z'
loop_
 _atom_site_type_symbol
 _atom_site_label
 _atom_site_symmetry_multiplicity
 _atom_site_fract_x
 _atom_site_fract_y
 _atom_site_fract_z
 _atom_site_occupancy
 _atom_site_pbe_bader_charge
 _atom_site_pbe_bader_spin_density
 _atom_site_pbe_cm5_charge
 _atom_site_pbe_ddec_charge
 _atom_site_pbe_ddec_spin_density
 _atom_site_pbe_ddec_sum_bond_order
 _atom_site_pbe_magmom
Al  Al0  1  0.99299725  0.49742290  0.49849549  1  2.506293  0  0.437216  1.602069  0  2.552332  0
H  H1  1  0.51593986  0.92680360  0.06856213  1  0.107711  0  0.11414  0.126171  0  1.014844  0
H  H2  1  0.36924262  0.66658769  0.08089097  1  0.088038  0  0.113899  0.12384  0  1.009333  0
H  H3  1  0.62753564  0.91915592  0.33642353  1  0.107161  0  0.112726  0.121717  0  1.01417  0
H  H4  1  0.02277756  0.28307529  0.49333547  1  0.633444  0  0.315325  0.36298  0  0.924212  0
H  H5  1  0.01592070  0.29585539  0.30402096  1  0.614963  0  0.307335  0.341613  0  0.962025  0
H  H6  1  0.07615150  0.09103863  0.44632830  1  0.636698  0  0.337004  0.378454  0  0.868191  0
H  H7  1  0.94525864  0.98849271  0.13511064  1  0.581768  0  0.30753  0.320345  0  0.968578  0
H  H8  1  0.95362636  0.69657997  0.70243920  1  0.626018  0  0.306717  0.342008  0  0.959211  0
H  H9  1  0.08626508  0.86889525  0.00649459  1  0.589395  0  0.304543  0.317234  0  0.97504  0
H  H10  1  0.99201303  0.50543529  0.71523086  1  0.626107  0  0.308369  0.344826  0  0.947771  0
H  H11  1  0.80026408  0.64205485  0.02461270  1  0.603502  0  0.302711  0.332127  0  0.981361  0
H  H12  1  0.94860213  0.54794499  0.13766988  1  0.635679  0  0.34228  0.385259  0  0.857848  0
H  H13  1  0.85478393  0.48313161  0.28984479  1  0.647961  0  0.320895  0.373439  0  0.921989  0
H  H14  1  0.19118382  0.89065323  0.36411394  1  0.63568  0  0.307493  0.335978  0  0.971771  0
H  H15  1  0.12041480  0.70585293  0.51141401  1  0.640163  0  0.32095  0.35965  0  0.932333  0
C  C16  1  0.48410520  0.56936145  0.64711890  1  1.576182  0  0.290541  0.713305  0  4.024619  0
C  C17  1  0.48291613  0.57166424  0.42184429  1  1.408238  0  0.257718  0.659038  0  4.038102  0
C  C18  1  0.51340728  0.34828700  0.42679812  1  1.57823  0  0.284603  0.704165  0  4.030045  0
C  C19  1  0.46865690  0.78787703  0.06048088  1  -0.032597  0  -0.01025  0.109541  0  4.032947  0
C  C20  1  0.51032701  0.88758711  0.10964139  1  -0.062794  0  -0.107407  -0.26463  0  3.962179  0
C  C21  1  0.54408306  0.93691829  0.21070048  1  -0.121719  0  -0.009902  0.119072  0  4.011155  0
C  C22  1  0.56298696  0.88361277  0.26062029  1  0.01302  0  -0.092681  -0.195559  0  3.920299  0
C  C23  1  0.50094665  0.78640460  0.21482563  1  0.012643  0  -0.002377  0.125383  0  4.001205  0
C  C24  1  0.44012690  0.74055777  0.11566563  1  -0.133639  0  -0.092352  -0.194326  0  3.915582  0
C  C25  1  0.71888146  0.19694812  0.28761565  1  0.591201  0  0.065625  0.188344  0  4.078446  0
C  C26  1  0.72404239  0.09696643  0.23482458  1  0.497625  0  0.075871  0.177522  0  4.043344  0
C  C27  1  0.54862804  0.04223359  0.26659458  1  0.105745  0  -0.034948  -0.156124  0  4.023823  0
C  C28  1  0.36765541  0.09041793  0.35357813  1  0.465554  0  0.06552  0.162727  0  4.079994  0
C  C29  1  0.35168352  0.19008633  0.40501571  1  0.558612  0  0.047096  0.140536  0  4.156218  0
C  C30  1  0.52881398  0.24248949  0.37223488  1  -0.019419  0  -0.052143  -0.303515  0  4.121252  0
C  C31  1  0.28354319  0.76343960  0.89755531  1  0.486639  0  0.073992  0.183601  0  4.05443  0
C  C32  1  0.28384825  0.70999605  0.79702634  1  0.657512  0  0.059864  0.178761  0  4.088592  0
C  C33  1  0.47666008  0.62517520  0.75376933  1  -0.0907  0  -0.050665  -0.311361  0  4.119968  0
C  C34  1  0.66329731  0.59157057  0.80711485  1  0.529439  0  0.059831  0.177998  0  4.084168  0
C  C35  1  0.65246519  0.64388286  0.90812999  1  0.610285  0  0.077897  0.193102  0  4.036721  0
C  C36  1  0.46557742  0.73132072  0.95407645  1  0.027169  0  -0.041558  -0.185037  0  4.037424  0
C  C37  1  0.67075931  0.64439918  0.23415872  1  0.536548  0  0.057811  0.137725  0  4.093105  0
C  C38  1  0.67501488  0.59295550  0.28480380  1  0.495626  0  0.061954  0.174192  0  4.124802  0
C  C39  1  0.48546519  0.62642129  0.37091775  1  0.053552  0  -0.05145  -0.310586  0  4.073031  0
C  C40  1  0.30160192  0.71480192  0.40592060  1  0.618766  0  0.088748  0.2256  0  4.029434  0
C  C41  1  0.31860043  0.76890199  0.35689793  1  0.570602  0  0.072981  0.159798  0  4.0413  0
C  C42  1  0.49679614  0.73291773  0.26974818  1  0.006559  0  -0.017936  -0.113917  0  4.001229  0
O  O43  1  0.26735765  0.39120873  0.41128336  1  -1.254833  0  -0.226493  -0.59366  0  2.376137  0
O  O44  1  0.25764809  0.51092496  0.60548913  1  -1.264565  0  -0.230026  -0.598109  0  2.351593  0
O  O45  1  0.24906559  0.58686458  0.48334420  1  -1.274278  0  -0.245476  -0.626987  0  2.392809  0
O  O46  1  0.74520465  0.38934206  0.48482898  1  -1.252685  0  -0.226385  -0.587776  0  2.343171  0
O  O47  1  0.71717123  0.50739989  0.40533798  1  -1.279221  0  -0.253623  -0.638307  0  2.379645  0
O  O48  1  0.71872854  0.58362898  0.60284069  1  -1.264727  0  -0.227427  -0.601236  0  2.379734  0
O  O49  1  0.16854870  0.23068360  0.48936562  1  -1.161618  0  -0.364687  -0.451433  0  2.277073  0
O  O50  1  0.88846529  0.24672102  0.25262869  1  -1.128242  0  -0.363291  -0.420337  0  2.261267  0
O  O51  1  0.19113345  0.04177603  0.38862692  1  -1.14906  0  -0.341568  -0.430867  0  2.337393  0
O  O52  1  0.91627166  0.05623916  0.15393841  1  -1.102339  0  -0.342381  -0.386053  0  2.308944  0
O  O53  1  0.11075959  0.74357057  0.74322322  1  -1.151694  0  -0.369666  -0.429386  0  2.250775  0
O  O54  1  0.09084625  0.84528237  0.93704160  1  -1.114009  0  -0.34633  -0.389894  0  2.303367  0
O  O55  1  0.84114411  0.50623020  0.76356099  1  -1.14432  0  -0.369212  -0.428407  0  2.255286  0
O  O56  1  0.84164213  0.60710080  0.95501867  1  -1.115155  0  -0.350252  -0.41218  0  2.337838  0
O  O57  1  0.84610784  0.60912872  0.14924794  1  -1.140913  0  -0.342851  -0.43392  0  2.326833  0
O  O58  1  0.85375899  0.50864678  0.24364409  1  -1.155049  0  -0.356126  -0.445338  0  2.293355  0
O  O59  1  0.14239932  0.85345998  0.39690292  1  -1.144396  0  -0.348391  -0.406281  0  2.327619  0
O  O60  1  0.11926838  0.75285566  0.48741957  1  -1.122352  0  -0.331334  -0.382892  0  2.280094  0
