# generated using pymatgen
data_SmH12C9NO10
_symmetry_space_group_name_H-M   'P 1'
_cell_length_a   7.26372302
_cell_length_b   11.66084661
_cell_length_c   18.62251507
_cell_angle_alpha   99.45343329
_cell_angle_beta   90.00019048
_cell_angle_gamma   89.99747863
_symmetry_Int_Tables_number   1
_chemical_formula_structural   SmH12C9NO10
_chemical_formula_sum   'Sm4 H48 C36 N4 O40'
_cell_volume   1555.92731335
_cell_formula_units_Z   4
loop_
 _symmetry_equiv_pos_site_id
 _symmetry_equiv_pos_as_xyz
  1  'x, y, z'
loop_
 _atom_site_type_symbol
 _atom_site_label
 _atom_site_symmetry_multiplicity
 _atom_site_fract_x
 _atom_site_fract_y
 _atom_site_fract_z
 _atom_site_occupancy
 _atom_site_hle17_bader_spin_density
 _atom_site_hle17_ddec_charge
 _atom_site_hle17_ddec_spin_density
 _atom_site_hle17_ddec_sum_bond_order
 _atom_site_hle17_magmom
 _atom_site_hse06_10hf_bader_spin_density
 _atom_site_hse06_10hf_ddec_charge
 _atom_site_hse06_10hf_ddec_spin_density
 _atom_site_hse06_10hf_ddec_sum_bond_order
 _atom_site_hse06_10hf_magmom
 _atom_site_hse06_bader_spin_density
 _atom_site_hse06_ddec_charge
 _atom_site_hse06_ddec_spin_density
 _atom_site_hse06_ddec_sum_bond_order
 _atom_site_hse06_magmom
 _atom_site_pbe_bader_spin_density
 _atom_site_pbe_cm5_charge
 _atom_site_pbe_ddec_charge
 _atom_site_pbe_ddec_spin_density
 _atom_site_pbe_ddec_sum_bond_order
 _atom_site_pbe_magmom
Sm  Sm0  1  0.26378122  0.30451233  0.36775209  1  0  2.33581  0  1.578641  0  0  2.247581  0  1.922025  0  0  2.287023  0  1.880825  0  0  1.48824  2.15271  0  2.073382  0
Sm  Sm1  1  0.76380997  0.19547676  0.13224327  1  0  2.335689  0  1.578739  0  0  2.247493  0  1.922148  0  0  2.286931  0  1.880937  0  0  1.488178  2.152794  0  2.073206  0
Sm  Sm2  1  0.73621224  0.69548857  0.63224774  1  0  2.335807  0  1.578625  0  0  2.247584  0  1.922011  0  0  2.287025  0  1.880807  0  0  1.488239  2.15271  0  2.073359  0
Sm  Sm3  1  0.23619176  0.80452678  0.86775787  1  0  2.335723  0  1.578752  0  0  2.247518  0  1.922162  0  0  2.286954  0  1.880951  0  0  1.488215  2.152724  0  2.073369  0
H  H4  1  0.99793391  0.13075371  0.27914094  1  0  0.429361  0  0.875884  0  0  0.399757  0  0.938149  0  0  0.41049  0  0.92241  0  0  0.296259  0.392254  0  0.948765  0
H  H5  1  0.49794469  0.36923784  0.22086345  1  0  0.429206  0  0.876077  0  0  0.399669  0  0.938283  0  0  0.410405  0  0.922535  0  0  0.29619  0.392159  0  0.94891  0
H  H6  1  0.00204992  0.86924555  0.72086197  1  0  0.429255  0  0.876043  0  0  0.399695  0  0.938265  0  0  0.410429  0  0.922525  0  0  0.296216  0.39219  0  0.948885  0
H  H7  1  0.50206943  0.63077008  0.77913917  1  0  0.429246  0  0.876066  0  0  0.399645  0  0.938344  0  0  0.410378  0  0.922602  0  0  0.296175  0.392138  0  0.948963  0
H  H8  1  0.15786572  0.06837578  0.31895723  1  0  0.424714  0  0.885493  0  0  0.393562  0  0.949427  0  0  0.406141  0  0.931174  0  0  0.287288  0.384924  0  0.961681  0
H  H9  1  0.65785754  0.43162871  0.18104856  1  0  0.424487  0  0.885729  0  0  0.393304  0  0.949712  0  0  0.405901  0  0.931442  0  0  0.287191  0.384652  0  0.961979  0
H  H10  1  0.84212362  0.93162779  0.68104499  1  0  0.424559  0  0.885684  0  0  0.39341  0  0.949602  0  0  0.406003  0  0.931337  0  0  0.287237  0.384762  0  0.961864  0
H  H11  1  0.34215658  0.56838271  0.81895491  1  0  0.42465  0  0.885515  0  0  0.393405  0  0.949586  0  0  0.406013  0  0.931306  0  0  0.287228  0.384755  0  0.96185  0
H  H12  1  0.85447137  0.42201442  0.36341792  1  0  0.460589  0  0.787453  0  0  0.445145  0  0.83273  0  0  0.453428  0  0.820676  0  0  0.339197  0.43862  0  0.842203  0
H  H13  1  0.35447861  0.07799886  0.13657219  1  0  0.460448  0  0.787673  0  0  0.44502  0  0.832923  0  0  0.453298  0  0.820873  0  0  0.339157  0.4385  0  0.842392  0
H  H14  1  0.14553311  0.57798733  0.63658145  1  0  0.460628  0  0.7874  0  0  0.445153  0  0.832724  0  0  0.453437  0  0.820668  0  0  0.339166  0.438626  0  0.842199  0
H  H15  1  0.64553138  0.92200206  0.86342817  1  0  0.460495  0  0.787754  0  0  0.445074  0  0.832876  0  0  0.453353  0  0.820824  0  0  0.339202  0.438552  0  0.842348  0
H  H16  1  0.92586959  0.34692141  0.28987315  1  0  0.447735  0  0.849151  0  0  0.416592  0  0.912789  0  0  0.428005  0  0.896057  0  0  0.309433  0.408618  0  0.924192  0
H  H17  1  0.42590246  0.15307436  0.21011920  1  0  0.447607  0  0.849306  0  0  0.41646  0  0.912938  0  0  0.427872  0  0.896209  0  0  0.309302  0.408486  0  0.92434  0
H  H18  1  0.07412250  0.65307257  0.71012713  1  0  0.447627  0  0.849301  0  0  0.416473  0  0.912957  0  0  0.427886  0  0.896224  0  0  0.309346  0.408499  0  0.924362  0
H  H19  1  0.57410615  0.84692237  0.78988562  1  0  0.447586  0  0.849326  0  0  0.416446  0  0.912946  0  0  0.427857  0  0.89622  0  0  0.30932  0.40847  0  0.924351  0
H  H20  1  0.27850317  0.54690278  0.32230332  1  0  0.452552  0  0.799499  0  0  0.435955  0  0.843587  0  0  0.444195  0  0.831509  0  0  0.336443  0.429609  0  0.852777  0
H  H21  1  0.77853199  0.95310223  0.17768844  1  0  0.452106  0  0.800005  0  0  0.435525  0  0.844158  0  0  0.443763  0  0.832085  0  0  0.336266  0.429181  0  0.853344  0
H  H22  1  0.72150131  0.45309642  0.67769743  1  0  0.452541  0  0.799436  0  0  0.435914  0  0.843628  0  0  0.444154  0  0.831552  0  0  0.336429  0.429567  0  0.852821  0
H  H23  1  0.22146698  0.04689700  0.82231338  1  0  0.452161  0  0.799958  0  0  0.435582  0  0.844084  0  0  0.44382  0  0.832012  0  0  0.336294  0.429237  0  0.853271  0
H  H24  1  0.28257903  0.57399651  0.40955787  1  0  0.442802  0  0.851637  0  0  0.412621  0  0.911982  0  0  0.422614  0  0.897419  0  0  0.303771  0.405308  0  0.922515  0
H  H25  1  0.78261035  0.92598680  0.09043676  1  0  0.442948  0  0.851422  0  0  0.412833  0  0.911633  0  0  0.422826  0  0.897073  0  0  0.303944  0.405515  0  0.922168  0
H  H26  1  0.71741444  0.42600006  0.59044211  1  0  0.442831  0  0.851578  0  0  0.412624  0  0.911966  0  0  0.422628  0  0.897388  0  0  0.303794  0.405304  0  0.922505  0
H  H27  1  0.21739825  0.07401074  0.90956652  1  0  0.442894  0  0.851493  0  0  0.41278  0  0.911718  0  0  0.422774  0  0.897155  0  0  0.303878  0.405483  0  0.922233  0
H  H28  1  0.18523710  0.48723671  0.49727803  1  0  0.425368  0  0.880404  0  0  0.392469  0  0.947284  0  0  0.404311  0  0.929802  0  0  0.296444  0.383965  0  0.959663  0
H  H29  1  0.68523769  0.01274432  0.00272243  1  0  0.425183  0  0.880638  0  0  0.392315  0  0.947472  0  0  0.404159  0  0.929988  0  0  0.296349  0.383805  0  0.959863  0
H  H30  1  0.81476600  0.51276168  0.50272479  1  0  0.425348  0  0.88045  0  0  0.392445  0  0.947338  0  0  0.404287  0  0.929855  0  0  0.296438  0.38394  0  0.959719  0
H  H31  1  0.31477367  0.98725406  0.99727985  1  0  0.425133  0  0.880724  0  0  0.392245  0  0.947598  0  0  0.404089  0  0.930112  0  0  0.296342  0.383737  0  0.959984  0
H  H32  1  0.03667921  0.38385666  0.49986805  1  0  0.432947  0  0.864483  0  0  0.402367  0  0.927675  0  0  0.41277  0  0.912362  0  0  0.302982  0.395098  0  0.938077  0
H  H33  1  0.53670964  0.11615084  0.00012663  1  0  0.432901  0  0.864535  0  0  0.402234  0  0.927903  0  0  0.412642  0  0.912581  0  0  0.302864  0.394964  0  0.938305  0
H  H34  1  0.96332114  0.61614515  0.50013293  1  0  0.432918  0  0.864522  0  0  0.402323  0  0.927743  0  0  0.412728  0  0.912426  0  0  0.302938  0.395052  0  0.938147  0
H  H35  1  0.46329760  0.88384750  0.99987458  1  0  0.432866  0  0.864575  0  0  0.402201  0  0.927938  0  0  0.412605  0  0.912622  0  0  0.302877  0.39493  0  0.938342  0
H  H36  1  0.26078651  0.82978560  0.43929473  1  0  0.110675  0  0.933687  0  0  0.119835  0  0.994706  0  0  0.124114  0  0.990641  0  0  0.113979  0.116652  0  0.997803  0
H  H37  1  0.76077511  0.67019431  0.06071031  1  0  0.11068  0  0.933684  0  0  0.119829  0  0.994699  0  0  0.124107  0  0.990637  0  0  0.113961  0.116644  0  0.997801  0
H  H38  1  0.73923173  0.17021339  0.56069956  1  0  0.11069  0  0.933653  0  0  0.11984  0  0.994686  0  0  0.124119  0  0.990622  0  0  0.113966  0.116656  0  0.997783  0
H  H39  1  0.23924452  0.32980042  0.93928627  1  0  0.110716  0  0.933599  0  0  0.11985  0  0.994612  0  0  0.124127  0  0.990553  0  0  0.113926  0.116661  0  0.997717  0
H  H40  1  0.18559590  0.21073614  0.65428399  1  0  0.120395  0  0.936017  0  0  0.139342  0  0.993955  0  0  0.141971  0  0.991873  0  0  0.094602  0.137396  0  0.995563  0
H  H41  1  0.68553595  0.28926133  0.84571373  1  0  0.120421  0  0.936109  0  0  0.139321  0  0.994069  0  0  0.141951  0  0.991985  0  0  0.094544  0.137371  0  0.99568  0
H  H42  1  0.81438518  0.78926881  0.34570708  1  0  0.120577  0  0.935937  0  0  0.139503  0  0.993859  0  0  0.142133  0  0.991779  0  0  0.094654  0.137554  0  0.995472  0
H  H43  1  0.31446027  0.71073448  0.15428940  1  0  0.120432  0  0.936098  0  0  0.139335  0  0.994061  0  0  0.141967  0  0.991979  0  0  0.094552  0.13739  0  0.995671  0
H  H44  1  0.07640486  0.21309490  0.56803735  1  0  0.122641  0  0.952025  0  0  0.142336  0  1.015107  0  0  0.143988  0  1.014455  0  0  0.095562  0.141026  0  1.015939  0
H  H45  1  0.57635687  0.28689606  0.93196023  1  0  0.122423  0  0.951976  0  0  0.142199  0  1.01501  0  0  0.143849  0  1.014351  0  0  0.095494  0.140892  0  1.015841  0
H  H46  1  0.92358034  0.78689794  0.43195423  1  0  0.122786  0  0.951809  0  0  0.142467  0  1.014886  0  0  0.144123  0  1.014223  0  0  0.095571  0.141143  0  1.015733  0
H  H47  1  0.42365036  0.71310318  0.06804214  1  0  0.122436  0  0.951944  0  0  0.142234  0  1.014968  0  0  0.143887  0  1.014307  0  0  0.095495  0.140925  0  1.015801  0
H  H48  1  0.31286809  0.24002458  0.57652247  1  0  0.133276  0  0.931213  0  0  0.15442  0  0.987597  0  0  0.15643  0  0.986435  0  0  0.10089  0.152902  0  0.988691  0
H  H49  1  0.81282055  0.25996668  0.92347265  1  0  0.133353  0  0.931092  0  0  0.154374  0  0.987613  0  0  0.156383  0  0.986453  0  0  0.10082  0.15286  0  0.988703  0
H  H50  1  0.68711161  0.75996731  0.42346633  1  0  0.133393  0  0.93115  0  0  0.154506  0  0.987535  0  0  0.156517  0  0.986375  0  0  0.100939  0.152993  0  0.988623  0
H  H51  1  0.18717705  0.74003076  0.07652740  1  0  0.133325  0  0.931107  0  0  0.154344  0  0.987642  0  0  0.156348  0  0.986486  0  0  0.100805  0.152829  0  0.988734  0
C  C52  1  0.23795829  0.06119446  0.57593125  1  0  0.33788  0  3.652357  0  0  0.337749  0  3.906489  0  0  0.348666  0  3.923923  0  0  0.142414  0.330496  0  3.895098  0
C  C53  1  0.73787469  0.43880440  0.92407416  1  0  0.338088  0  3.651835  0  0  0.337818  0  3.906176  0  0  0.348727  0  3.923615  0  0  0.142521  0.330567  0  3.894778  0
C  C54  1  0.76202416  0.93879849  0.42406410  1  0  0.337948  0  3.652342  0  0  0.337839  0  3.90646  0  0  0.348757  0  3.923894  0  0  0.142379  0.330584  0  3.895064  0
C  C55  1  0.26212428  0.56119219  0.07592635  1  0  0.337925  0  3.652221  0  0  0.337782  0  3.90644  0  0  0.348694  0  3.92388  0  0  0.142517  0.330529  0  3.895045  0
C  C56  1  0.24318929  0.99872531  0.50392657  1  0  -0.165434  0  3.662745  0  0  -0.147046  0  3.901212  0  0  -0.160514  0  3.925306  0  0  -0.011353  -0.139074  0  3.886367  0
C  C57  1  0.74311667  0.50126554  0.99607790  1  0  -0.165438  0  3.662447  0  0  -0.147025  0  3.901029  0  0  -0.160489  0  3.925116  0  0  -0.011442  -0.13906  0  3.886195  0
C  C58  1  0.75680968  0.00127032  0.49607117  1  0  -0.165494  0  3.662645  0  0  -0.147185  0  3.901174  0  0  -0.160655  0  3.925266  0  0  -0.01135  -0.139201  0  3.886315  0
C  C59  1  0.25688368  0.49873626  0.00392309  1  0  -0.165382  0  3.66242  0  0  -0.147043  0  3.901079  0  0  -0.160511  0  3.925174  0  0  -0.011451  -0.13907  0  3.886234  0
C  C60  1  0.26497435  0.87830030  0.49454162  1  0  -0.009705  0  3.69632  0  0  -0.051862  0  3.956754  0  0  -0.0458  0  3.9732  0  0  -0.057961  -0.055535  0  3.946041  0
C  C61  1  0.76493285  0.62169238  0.00545975  1  0  -0.009671  0  3.696287  0  0  -0.051739  0  3.956587  0  0  -0.04568  0  3.973023  0  0  -0.057849  -0.055394  0  3.945899  0
C  C62  1  0.73503150  0.12169702  0.50545467  1  0  -0.009621  0  3.696167  0  0  -0.05169  0  3.956601  0  0  -0.045625  0  3.973055  0  0  -0.058004  -0.055365  0  3.945877  0
C  C63  1  0.23507852  0.37830761  0.99453892  1  0  -0.009689  0  3.69607  0  0  -0.051661  0  3.956408  0  0  -0.045619  0  3.972834  0  0  -0.057723  -0.05532  0  3.945707  0
C  C64  1  0.29639027  0.82151801  0.55372989  1  0  -0.142122  0  3.747427  0  0  -0.133162  0  4.002376  0  0  -0.143583  0  4.022416  0  0  -0.009465  -0.126286  0  3.988245  0
C  C65  1  0.79637212  0.67846620  0.94627564  1  0  -0.142122  0  3.747787  0  0  -0.133184  0  4.002659  0  0  -0.143598  0  4.022676  0  0  -0.009427  -0.126374  0  3.988613  0
C  C66  1  0.70362109  0.17848030  0.44627024  1  0  -0.14228  0  3.74745  0  0  -0.133477  0  4.002579  0  0  -0.143914  0  4.022647  0  0  -0.009568  -0.126592  0  3.988439  0
C  C67  1  0.20363649  0.32153388  0.05372573  1  0  -0.142243  0  3.747729  0  0  -0.13354  0  4.002815  0  0  -0.143896  0  4.022755  0  0  -0.009605  -0.126711  0  3.988739  0
C  C68  1  0.29877392  0.89182467  0.62275775  1  0  0.101874  0  3.738516  0  0  0.095901  0  3.995303  0  0  0.101887  0  4.008895  0  0  0.129337  0.09208  0  3.986336  0
C  C69  1  0.79876288  0.60816293  0.87724755  1  0  0.102286  0  3.738107  0  0  0.096052  0  3.99508  0  0  0.102047  0  4.008662  0  0  0.12939  0.092245  0  3.986124  0
C  C70  1  0.70122229  0.10817536  0.37724201  1  0  0.102153  0  3.738189  0  0  0.096157  0  3.995128  0  0  0.102123  0  4.008705  0  0  0.129402  0.09233  0  3.986159  0
C  C71  1  0.20123610  0.39183108  0.12275380  1  0  0.102171  0  3.738711  0  0  0.096142  0  3.995466  0  0  0.102121  0  4.009034  0  0  0.129414  0.092331  0  3.986513  0
C  C72  1  0.20111462  0.18876436  0.59514799  1  0  -0.36266  0  3.701441  0  0  -0.444767  0  3.936288  0  0  -0.447291  0  3.941385  0  0  -0.238509  -0.442981  0  3.933309  0
C  C73  1  0.70106467  0.31123513  0.90484509  1  0  -0.362594  0  3.701459  0  0  -0.444571  0  3.936365  0  0  -0.447089  0  3.941466  0  0  -0.238298  -0.442784  0  3.933382  0
C  C74  1  0.79886232  0.81123713  0.40484330  1  0  -0.363131  0  3.701558  0  0  -0.445147  0  3.936289  0  0  -0.447674  0  3.941383  0  0  -0.238575  -0.443347  0  3.933319  0
C  C75  1  0.29893706  0.68876410  0.09515673  1  0  -0.362553  0  3.701458  0  0  -0.444588  0  3.936313  0  0  -0.447106  0  3.94142  0  0  -0.2383  -0.442801  0  3.933333  0
C  C76  1  0.22730640  0.05260872  0.43594855  1  0  0.688019  0  3.886057  0  0  0.639294  0  4.184987  0  0  0.673158  0  4.178533  0  0  0.217996  0.616418  0  4.186191  0
C  C77  1  0.72727264  0.44739207  0.06405589  1  0  0.688146  0  3.885669  0  0  0.639342  0  4.184693  0  0  0.673205  0  4.178235  0  0  0.217936  0.616468  0  4.185905  0
C  C78  1  0.77269808  0.94739126  0.56404958  1  0  0.687922  0  3.886104  0  0  0.639234  0  4.185  0  0  0.673098  0  4.178548  0  0  0.218014  0.616355  0  4.186205  0
C  C79  1  0.27272770  0.55261321  0.93594541  1  0  0.6883  0  3.885846  0  0  0.639398  0  4.185036  0  0  0.673262  0  4.178576  0  0  0.218053  0.61652  0  4.186244  0
C  C80  1  0.32036459  0.69229259  0.54105440  1  0  0.720101  0  3.850212  0  0  0.664888  0  4.154549  0  0  0.700113  0  4.143813  0  0  0.23897  0.640712  0  4.159557  0
C  C81  1  0.82033602  0.80769195  0.95895547  1  0  0.719453  0  3.851008  0  0  0.664496  0  4.154998  0  0  0.699724  0  4.144254  0  0  0.238603  0.64034  0  4.160009  0
C  C82  1  0.67963713  0.30771096  0.45894728  1  0  0.719755  0  3.850408  0  0  0.664671  0  4.154631  0  0  0.699885  0  4.143915  0  0  0.238868  0.640494  0  4.159637  0
C  C83  1  0.17967534  0.19230637  0.04104520  1  0  0.719604  0  3.850616  0  0  0.66469  0  4.15462  0  0  0.6999  0  4.143876  0  0  0.23873  0.640534  0  4.15963  0
C  C84  1  0.34499309  0.84930011  0.69287958  1  0  0.711283  0  3.811723  0  0  0.657034  0  4.111042  0  0  0.691827  0  4.097952  0  0  0.257262  0.632871  0  4.115864  0
C  C85  1  0.84499079  0.65068800  0.80712742  1  0  0.710749  0  3.812269  0  0  0.656828  0  4.111203  0  0  0.6916  0  4.09813  0  0  0.257129  0.632676  0  4.116003  0
C  C86  1  0.65500175  0.15070675  0.30711704  1  0  0.711428  0  3.811413  0  0  0.65711  0  4.110882  0  0  0.692002  0  4.097623  0  0  0.25725  0.63295  0  4.115706  0
C  C87  1  0.15501782  0.34931113  0.19287117  1  0  0.710577  0  3.813167  0  0  0.656739  0  4.111876  0  0  0.691517  0  4.098796  0  0  0.257044  0.632579  0  4.116691  0
N  N88  1  0.26363329  0.00594075  0.63326302  1  0  -0.358332  0  3.006717  0  0  -0.338259  0  3.271018  0  0  -0.349703  0  3.281346  0  0  -0.313457  -0.330901  0  3.264585  0
N  N89  1  0.76361272  0.49405388  0.86674096  1  0  -0.358552  0  3.005972  0  0  -0.338384  0  3.27043  0  0  -0.349822  0  3.280753  0  0  -0.313557  -0.331024  0  3.263986  0
N  N90  1  0.73633953  0.99405831  0.36673342  1  0  -0.358441  0  3.006437  0  0  -0.338342  0  3.270733  0  0  -0.349787  0  3.281068  0  0  -0.313385  -0.330984  0  3.264304  0
N  N91  1  0.23639864  0.50594090  0.13325724  1  0  -0.358411  0  3.006318  0  0  -0.33835  0  3.270699  0  0  -0.349789  0  3.281027  0  0  -0.31356  -0.33099  0  3.264262  0
O  O92  1  0.24428001  0.16376743  0.44295241  1  0  -0.775452  0  2.043607  0  0  -0.730898  0  2.305191  0  0  -0.757358  0  2.296262  0  0  -0.430432  -0.702086  0  2.312827  0
O  O93  1  0.74419487  0.33622149  0.05704775  1  0  -0.775522  0  2.043144  0  0  -0.731044  0  2.304952  0  0  -0.757508  0  2.296021  0  0  -0.430527  -0.702253  0  2.312578  0
O  O94  1  0.75573823  0.83623073  0.55704288  1  0  -0.775403  0  2.043475  0  0  -0.730887  0  2.305101  0  0  -0.757346  0  2.29617  0  0  -0.430505  -0.702076  0  2.312737  0
O  O95  1  0.25578345  0.66378123  0.94295493  1  0  -0.775585  0  2.043361  0  0  -0.731058  0  2.305182  0  0  -0.757521  0  2.296249  0  0  -0.430536  -0.702249  0  2.312809  0
O  O96  1  0.20169944  0.98560420  0.37637491  1  0  -0.592531  0  1.911086  0  0  -0.542543  0  2.112797  0  0  -0.566696  0  2.103709  0  0  -0.306338  -0.526085  0  2.118636  0
O  O97  1  0.70165282  0.51439283  0.12362627  1  0  -0.592488  0  1.911341  0  0  -0.542412  0  2.113082  0  0  -0.566571  0  2.103998  0  0  -0.306206  -0.525948  0  2.118913  0
O  O98  1  0.79828852  0.01439922  0.62362247  1  0  -0.592479  0  1.91117  0  0  -0.542486  0  2.112847  0  0  -0.566643  0  2.103763  0  0  -0.3063  -0.526024  0  2.118682  0
O  O99  1  0.29834752  0.48562203  0.87637644  1  0  -0.59263  0  1.911449  0  0  -0.542483  0  2.11324  0  0  -0.566643  0  2.104157  0  0  -0.306319  -0.526023  0  2.119073  0
O  O100  1  0.20863315  0.63317619  0.49544918  1  0  -0.683985  0  2.012256  0  0  -0.60782  0  2.221028  0  0  -0.635333  0  2.208635  0  0  -0.306629  -0.589275  0  2.230095  0
O  O101  1  0.70860181  0.86680865  0.00455627  1  0  -0.683891  0  2.012638  0  0  -0.607859  0  2.221345  0  0  -0.635371  0  2.20895  0  0  -0.306621  -0.589307  0  2.230404  0
O  O102  1  0.79137546  0.36682285  0.50454672  1  0  -0.683827  0  2.012427  0  0  -0.607688  0  2.221161  0  0  -0.635196  0  2.208775  0  0  -0.306583  -0.589139  0  2.230221  0
O  O103  1  0.29140542  0.13318700  0.99544201  1  0  -0.68388  0  2.012372  0  0  -0.607828  0  2.221066  0  0  -0.635345  0  2.208677  0  0  -0.306675  -0.589283  0  2.230133  0
O  O104  1  0.44448319  0.64561288  0.57400536  1  0  -0.702021  0  1.986706  0  0  -0.662117  0  2.233887  0  0  -0.685208  0  2.220456  0  0  -0.383421  -0.636997  0  2.245768  0
O  O105  1  0.94445239  0.85436912  0.92600547  1  0  -0.701604  0  1.987059  0  0  -0.661779  0  2.234116  0  0  -0.68487  0  2.220684  0  0  -0.383106  -0.636659  0  2.245965  0
O  O106  1  0.55549238  0.35438761  0.42600893  1  0  -0.701844  0  1.986796  0  0  -0.661963  0  2.233916  0  0  -0.685046  0  2.220484  0  0  -0.383328  -0.636832  0  2.245776  0
O  O107  1  0.05555622  0.14562999  0.07399259  1  0  -0.701663  0  1.987177  0  0  -0.661826  0  2.234199  0  0  -0.684918  0  2.220779  0  0  -0.383086  -0.636716  0  2.246034  0
O  O108  1  0.50709590  0.81162250  0.69996270  1  0  -0.720067  0  2.123524  0  0  -0.666255  0  2.369377  0  0  -0.692463  0  2.357592  0  0  -0.378206  -0.638676  0  2.377512  0
O  O109  1  0.00711194  0.68835716  0.80005666  1  0  -0.719944  0  2.123494  0  0  -0.666266  0  2.369277  0  0  -0.692471  0  2.357502  0  0  -0.378273  -0.638705  0  2.377408  0
O  O110  1  0.49289894  0.18838181  0.30003529  1  0  -0.720155  0  2.123525  0  0  -0.666307  0  2.369419  0  0  -0.692544  0  2.357581  0  0  -0.378195  -0.638734  0  2.377558  0
O  O111  1  0.99289942  0.31164460  0.19994325  1  0  -0.719817  0  2.123817  0  0  -0.666207  0  2.369543  0  0  -0.692411  0  2.357766  0  0  -0.37822  -0.638654  0  2.377672  0
O  O112  1  0.22765639  0.86090494  0.74396221  1  0  -0.697989  0  2.090482  0  0  -0.642922  0  2.32855  0  0  -0.668587  0  2.316421  0  0  -0.346783  -0.617757  0  2.338014  0
O  O113  1  0.72767510  0.63909235  0.75604068  1  0  -0.697859  0  2.090968  0  0  -0.642808  0  2.328768  0  0  -0.668515  0  2.316767  0  0  -0.346693  -0.617641  0  2.338226  0
O  O114  1  0.77234121  0.13909236  0.25603353  1  0  -0.698191  0  2.090394  0  0  -0.643065  0  2.32848  0  0  -0.668774  0  2.31631  0  0  -0.346839  -0.617912  0  2.337943  0
O  O115  1  0.27232525  0.36090769  0.24395961  1  0  -0.697814  0  2.09118  0  0  -0.642804  0  2.328879  0  0  -0.668546  0  2.316937  0  0  -0.346665  -0.617631  0  2.338344  0
O  O116  1  0.13068706  0.13586624  0.29179336  1  0  -0.941862  0  1.862008  0  0  -0.900475  0  2.048254  0  0  -0.919146  0  2.014389  0  0  -0.662696  -0.878927  0  2.075312  0
O  O117  1  0.63071006  0.36412605  0.20821398  1  0  -0.941582  0  1.862441  0  0  -0.900231  0  2.048562  0  0  -0.918915  0  2.01466  0  0  -0.662547  -0.878698  0  2.07564  0
O  O118  1  0.86929264  0.86413828  0.70821163  1  0  -0.94165  0  1.862217  0  0  -0.900308  0  2.048395  0  0  -0.918992  0  2.014499  0  0  -0.662623  -0.878751  0  2.075477  0
O  O119  1  0.36931232  0.63588458  0.79179210  1  0  -0.941735  0  1.862362  0  0  -0.900274  0  2.048683  0  0  -0.918971  0  2.014751  0  0  -0.662565  -0.878733  0  2.075764  0
O  O120  1  0.94325981  0.36272279  0.34378972  1  0  -0.930586  0  1.844918  0  0  -0.894291  0  2.031818  0  0  -0.911322  0  1.99944  0  0  -0.627684  -0.873434  0  2.06023  0
O  O121  1  0.44329882  0.13726206  0.15620165  1  0  -0.930278  0  1.845132  0  0  -0.89399  0  2.032012  0  0  -0.91101  0  1.999642  0  0  -0.627529  -0.873158  0  2.060394  0
O  O122  1  0.05672815  0.63726861  0.65621139  1  0  -0.930543  0  1.844979  0  0  -0.894203  0  2.031916  0  0  -0.911235  0  1.999539  0  0  -0.627576  -0.873346  0  2.060328  0
O  O123  1  0.55670153  0.86274154  0.84380165  1  0  -0.930319  0  1.845287  0  0  -0.894048  0  2.032055  0  0  -0.91107  0  1.999677  0  0  -0.627586  -0.873201  0  2.060448  0
O  O124  1  0.31384308  0.51641451  0.36586870  1  0  -0.904925  0  1.819141  0  0  -0.866446  0  1.982679  0  0  -0.881918  0  1.951355  0  0  -0.628621  -0.847254  0  2.01026  0
O  O125  1  0.81393542  0.98356342  0.13412010  1  0  -0.90463  0  1.819322  0  0  -0.866154  0  1.982875  0  0  -0.88164  0  1.951548  0  0  -0.628601  -0.846974  0  2.010447  0
O  O126  1  0.68615177  0.48358294  0.63413189  1  0  -0.904932  0  1.819023  0  0  -0.866399  0  1.982669  0  0  -0.881884  0  1.951326  0  0  -0.628614  -0.847202  0  2.010265  0
O  O127  1  0.18606768  0.01643583  0.86588227  1  0  -0.904643  0  1.819316  0  0  -0.866174  0  1.982814  0  0  -0.88166  0  1.951497  0  0  -0.62858  -0.847005  0  2.010344  0
O  O128  1  0.16465423  0.40146195  0.48714024  1  0  -0.910235  0  1.849664  0  0  -0.867905  0  2.034948  0  0  -0.88609  0  2.001234  0  0  -0.649442  -0.846328  0  2.062819  0
O  O129  1  0.66468601  0.09852536  0.01284896  1  0  -0.910021  0  1.849746  0  0  -0.867651  0  2.034979  0  0  -0.885841  0  2.001264  0  0  -0.649227  -0.846088  0  2.062834  0
O  O130  1  0.83534337  0.59853557  0.51286250  1  0  -0.910204  0  1.849747  0  0  -0.86786  0  2.035034  0  0  -0.886047  0  2.001318  0  0  -0.649389  -0.846281  0  2.062905  0
O  O131  1  0.33532122  0.90147390  0.98715395  1  0  -0.90994  0  1.849785  0  0  -0.867556  0  2.035013  0  0  -0.885745  0  2.001304  0  0  -0.649214  -0.84598  0  2.062869  0
