# generated using pymatgen
data_CuH7C13O5
_symmetry_space_group_name_H-M   'P 1'
_cell_length_a   18.80906096
_cell_length_b   18.80907300
_cell_length_c   21.20929218
_cell_angle_alpha   63.63715975
_cell_angle_beta   63.63671080
_cell_angle_gamma   60.00317920
_symmetry_Int_Tables_number   1
_chemical_formula_structural   CuH7C13O5
_chemical_formula_sum   'Cu6 H42 C78 O30'
_cell_volume   5579.06151435
_cell_formula_units_Z   6
loop_
 _symmetry_equiv_pos_site_id
 _symmetry_equiv_pos_as_xyz
  1  'x, y, z'
loop_
 _atom_site_type_symbol
 _atom_site_label
 _atom_site_symmetry_multiplicity
 _atom_site_fract_x
 _atom_site_fract_y
 _atom_site_fract_z
 _atom_site_occupancy
 _atom_site_pbe_bader_charge
 _atom_site_pbe_bader_spin_density
 _atom_site_pbe_cm5_charge
 _atom_site_pbe_ddec_charge
 _atom_site_pbe_ddec_spin_density
 _atom_site_pbe_ddec_sum_bond_order
 _atom_site_pbe_magmom
Cu  Cu0  1  0.06378859  0.49588170  0.94452389  1  1.090938  0.577335  0.67952  0.8307  0.734351  2.302387  0.578
Cu  Cu1  1  0.49586458  0.49586400  0.94451155  1  1.083825  0.577301  0.6799  0.831451  0.734613  2.301752  0.578
Cu  Cu2  1  0.49587912  0.06378902  0.94452252  1  1.091128  0.57733  0.679433  0.830456  0.734342  2.302663  0.578
Cu  Cu3  1  0.93620999  0.50413544  0.05547090  1  1.085876  0.577176  0.679499  0.830444  0.734387  2.302785  0.578
Cu  Cu4  1  0.50413355  0.93621270  0.05546761  1  1.085914  0.577166  0.679495  0.830448  0.73437  2.302479  0.578
Cu  Cu5  1  0.50413595  0.50413815  0.05548655  1  1.085502  0.577388  0.679956  0.831429  0.734643  2.301717  0.578
H  H6  1  0.01536159  0.54431843  0.19485465  1  0.114169  0.00038  0.108618  0.116481  0.000302  0.996479  0.0
H  H7  1  0.91112440  0.51604215  0.43229682  1  0.07929  5e-06  0.107153  0.109955  2e-06  0.987034  0.0
H  H8  1  0.13045638  0.48934405  0.80921346  1  0.586553  -8.7e-05  0.32223  0.403527  -0.000106  0.882318  0.0
H  H9  1  0.54420485  0.24498445  0.19508933  1  0.096552  0.000388  0.1087  0.115476  0.000302  0.995937  0.0
H  H10  1  0.51648889  0.14038783  0.43180192  1  0.088699  5e-06  0.107522  0.10969  2e-06  0.986814  0.0
H  H11  1  0.48935177  0.57124567  0.80925752  1  0.60579  -8.4e-05  0.321594  0.403088  -0.000106  0.884185  0.0
H  H12  1  0.24507330  0.01542447  0.19484903  1  0.095237  0.000386  0.108374  0.115763  0.000302  0.996964  0.0
H  H13  1  0.14034649  0.91108686  0.43199089  1  0.071667  5e-06  0.107101  0.110422  2e-06  0.987362  0.0
H  H14  1  0.57131199  0.13025071  0.80931951  1  0.633442  -8e-05  0.321986  0.40338  -0.000106  0.883499  0.0
H  H15  1  0.98459088  0.75492567  0.80513573  1  0.094948  0.000387  0.108345  0.115758  0.000302  0.99678  0.0
H  H16  1  0.08891927  0.85965668  0.56798235  1  0.072899  5e-06  0.107124  0.110474  2e-06  0.987369  0.0
H  H17  1  0.86975711  0.42868854  0.19067596  1  0.63339  -8e-05  0.321973  0.403314  -0.000106  0.883561  0.0
H  H18  1  0.45567397  0.98464100  0.80515564  1  0.114754  0.000381  0.10859  0.116401  0.000303  0.996349  0.0
H  H19  1  0.48394098  0.08886534  0.56771859  1  0.079373  5e-06  0.107129  0.109872  2e-06  0.987111  0.0
H  H20  1  0.51065520  0.86954916  0.19078440  1  0.586606  -8.7e-05  0.322291  0.403669  -0.000106  0.882147  0.0
H  H21  1  0.75502969  0.45576505  0.80492239  1  0.097532  0.000389  0.10879  0.115379  0.000302  0.996025  0.0
H  H22  1  0.85959917  0.48350396  0.56821218  1  0.088689  5e-06  0.107451  0.109624  2e-06  0.98679  0.0
H  H23  1  0.42875906  0.51065515  0.19074103  1  0.605899  -8.4e-05  0.321644  0.403122  -0.000106  0.884151  0.0
H  H24  1  0.98464031  0.45567382  0.80516053  1  0.114722  0.000381  0.108554  0.116335  0.000303  0.996457  0.0
H  H25  1  0.08886979  0.48394522  0.56771677  1  0.079412  5e-06  0.107157  0.10989  2e-06  0.987044  0.0
H  H26  1  0.86955121  0.51065310  0.19078712  1  0.586519  -8.7e-05  0.32239  0.403827  -0.000106  0.882052  0.0
H  H27  1  0.45576749  0.75502710  0.80491767  1  0.097434  0.000389  0.108741  0.115334  0.000302  0.996073  0.0
H  H28  1  0.48350396  0.85959997  0.56820166  1  0.088355  5e-06  0.107465  0.109655  2e-06  0.986752  0.0
H  H29  1  0.51065581  0.42875980  0.19074023  1  0.60603  -8.4e-05  0.321643  0.403122  -0.000106  0.884158  0.0
H  H30  1  0.75493225  0.98458519  0.80512993  1  0.094949  0.000387  0.108315  0.115741  0.000302  0.996766  0.0
H  H31  1  0.85966358  0.08890687  0.56799310  1  0.071936  5e-06  0.107092  0.110537  2e-06  0.987409  0.0
H  H32  1  0.42868980  0.86975452  0.19067592  1  0.633415  -8e-05  0.322007  0.403342  -0.000106  0.883529  0.0
H  H33  1  0.01542498  0.24507721  0.19485078  1  0.09524  0.000386  0.108338  0.11572  0.000302  0.9969  0.0
H  H34  1  0.91108181  0.14034873  0.43200103  1  0.071734  5e-06  0.107127  0.11049  2e-06  0.98728  0.0
H  H35  1  0.13025111  0.57131073  0.80932069  1  0.633391  -8e-05  0.321984  0.403368  -0.000106  0.883516  0.0
H  H36  1  0.54431571  0.01536351  0.19485387  1  0.114175  0.00038  0.10861  0.116443  0.000302  0.996462  0.0
H  H37  1  0.51604739  0.91112653  0.43228657  1  0.079362  5e-06  0.107084  0.109848  2e-06  0.987022  0.0
H  H38  1  0.48934467  0.13045976  0.80920986  1  0.586436  -8.7e-05  0.322214  0.403511  -0.000106  0.882393  0.0
H  H39  1  0.24498633  0.54419576  0.19509498  1  0.09657  0.000388  0.108679  0.115438  0.000302  0.995888  0.0
H  H40  1  0.14038925  0.51648676  0.43180143  1  0.088565  5e-06  0.107538  0.109671  2e-06  0.986822  0.0
H  H41  1  0.57124724  0.48935021  0.80925727  1  0.605746  -8.4e-05  0.321603  0.403037  -0.000106  0.884302  0.0
H  H42  1  0.23457922  0.52738497  0.00370429  1  0.141721  0.000778  0.118752  0.136739  0.000674  0.983004  0.0
H  H43  1  0.52738240  0.23458148  0.00370166  1  0.141633  0.000778  0.118752  0.136698  0.000674  0.983116  0.0
H  H44  1  0.23438248  0.23438259  0.00345660  1  0.149533  0.000775  0.118271  0.135607  0.000676  0.982873  0.0
H  H45  1  0.76562628  0.76563360  0.99652272  1  0.150079  0.000773  0.118382  0.135952  0.000675  0.982811  0.0
H  H46  1  0.47261748  0.76541437  0.99629685  1  0.141538  0.000777  0.118803  0.136815  0.000673  0.98315  0.0
H  H47  1  0.76541299  0.47262033  0.99629964  1  0.141408  0.000777  0.118731  0.1367  0.000673  0.983229  0.0
C  C48  1  0.07327536  0.52837851  0.05858730  1  1.534275  -0.001585  0.21767  0.58529  -0.002113  4.151272  -0.005
C  C49  1  0.11950147  0.53700514  0.09526317  1  0.016311  0.017185  -0.012704  -0.026412  0.01209  3.980519  0.014
C  C50  1  0.08029883  0.54306363  0.16710390  1  -0.074204  -0.000898  -0.066099  -0.115525  -0.001419  3.87069  0.0
C  C51  1  0.94977085  0.50899642  0.46223129  1  -0.088014  7.9e-05  -0.082657  -0.124017  5.1e-05  3.967217  0.0
C  C52  1  0.52839503  0.33972164  0.05867292  1  1.558647  -0.001636  0.218511  0.586266  -0.002094  4.152227  -0.005
C  C53  1  0.53698615  0.24814143  0.09532861  1  -0.003177  0.017315  -0.013187  -0.027782  0.012087  3.980938  0.014
C  C54  1  0.54301450  0.20919077  0.16719018  1  -0.030561  -0.000904  -0.066619  -0.114801  -0.001427  3.87069  0.0
C  C55  1  0.50928078  0.07889218  0.46191896  1  0.011956  7.9e-05  -0.082219  -0.121557  5.1e-05  3.964502  0.0
C  C56  1  0.33962781  0.07317374  0.05850223  1  1.553291  -0.001521  0.216938  0.584835  -0.002104  4.152026  -0.005
C  C57  1  0.24803338  0.11938952  0.09511445  1  -0.000146  0.017193  -0.013575  -0.02705  0.012076  3.982639  0.014
C  C58  1  0.20919315  0.08031211  0.16701690  1  -0.056361  -0.000904  -0.065102  -0.11476  -0.001427  3.871234  0.0
C  C59  1  0.07888986  0.94975115  0.46203610  1  0.005018  7.9e-05  -0.081643  -0.123354  5.1e-05  3.966302  0.0
C  C60  1  0.92682740  0.66038229  0.94149073  1  1.553831  -0.001518  0.216887  0.584841  -0.002102  4.151721  -0.005
C  C61  1  0.88062133  0.75197589  0.90486076  1  0.022482  0.017175  -0.013409  -0.026735  0.012076  3.982278  0.014
C  C62  1  0.91969769  0.79081104  0.83297113  1  -0.056904  -0.0009  -0.06503  -0.114559  -0.001423  3.871216  0.0
C  C63  1  0.05025368  0.92111333  0.53794408  1  -0.05377  7.9e-05  -0.081792  -0.123637  5.1e-05  3.966397  0.0
C  C64  1  0.47163216  0.92670517  0.94142711  1  1.533773  -0.001583  0.217678  0.585251  -0.002112  4.151067  -0.005
C  C65  1  0.46299434  0.88049548  0.90474149  1  0.066708  0.017141  -0.012769  -0.026684  0.01209  3.980633  0.014
C  C66  1  0.45692512  0.91970145  0.83290716  1  -0.124996  -0.00085  -0.066003  -0.115204  -0.001416  3.870838  0.0
C  C67  1  0.49099108  0.05021424  0.53778221  1  -0.088619  7.9e-05  -0.082441  -0.123734  5.1e-05  3.966996  0.0
C  C68  1  0.66028050  0.47159588  0.94133836  1  1.558661  -0.001635  0.21844  0.58628  -0.002092  4.152294  -0.005
C  C69  1  0.75185650  0.46300802  0.90467427  1  -0.003218  0.017313  -0.013259  -0.027923  0.012084  3.981008  0.014
C  C70  1  0.79081852  0.45695606  0.83282735  1  -0.04349  -0.000902  -0.066622  -0.114598  -0.001427  3.871007  0.0
C  C71  1  0.92109697  0.49070725  0.53808992  1  0.012197  7.9e-05  -0.082002  -0.121387  5.1e-05  3.964487  0.0
C  C72  1  0.92670732  0.47163106  0.94143147  1  1.533831  -0.001584  0.217551  0.585026  -0.002112  4.151085  -0.005
C  C73  1  0.88049526  0.46299554  0.90474552  1  0.066586  0.017141  -0.01266  -0.026482  0.01209  3.980555  0.014
C  C74  1  0.91970243  0.45692648  0.83291192  1  -0.124857  -0.000851  -0.065971  -0.115214  -0.001416  3.870965  0.0
C  C75  1  0.05021694  0.49099218  0.53778483  1  -0.088476  7.9e-05  -0.082399  -0.123717  5.1e-05  3.966941  0.0
C  C76  1  0.47159400  0.66028190  0.94133440  1  1.558412  -0.001633  0.218499  0.586337  -0.002092  4.152297  -0.005
C  C77  1  0.46300795  0.75186014  0.90466852  1  -0.003137  0.017312  -0.01321  -0.027841  0.012085  3.981028  0.014
C  C78  1  0.45696044  0.79081510  0.83282277  1  -0.043489  -0.000902  -0.066605  -0.114562  -0.001427  3.871065  0.0
C  C79  1  0.49070438  0.92109910  0.53808489  1  0.012607  7.9e-05  -0.081951  -0.121448  5.1e-05  3.964258  0.0
C  C80  1  0.66037972  0.92682989  0.94148637  1  1.55393  -0.001518  0.216777  0.58461  -0.002102  4.152275  -0.005
C  C81  1  0.75197023  0.88062144  0.90486147  1  0.022871  0.017173  -0.013454  -0.026669  0.012075  3.982269  0.014
C  C82  1  0.79080989  0.91969559  0.83297281  1  -0.056858  -0.000899  -0.065009  -0.114543  -0.001422  3.871192  0.0
C  C83  1  0.92111954  0.05025112  0.53794380  1  -0.052858  7.9e-05  -0.081834  -0.123893  5.1e-05  3.96681  0.0
C  C84  1  0.07317183  0.33963105  0.05850532  1  1.553153  -0.001521  0.216833  0.584682  -0.002102  4.15233  -0.005
C  C85  1  0.11938678  0.24803697  0.09511685  1  -0.000239  0.017192  -0.013476  -0.026886  0.012075  3.982573  0.014
C  C86  1  0.08031370  0.20919414  0.16701908  1  -0.056359  -0.000904  -0.065148  -0.114824  -0.001427  3.8713  0.0
C  C87  1  0.94975061  0.07889147  0.46203874  1  0.005316  7.8e-05  -0.08167  -0.123375  5.1e-05  3.966347  0.0
C  C88  1  0.52837742  0.07327585  0.05858524  1  1.533549  -0.001585  0.217557  0.585013  -0.002113  4.151415  -0.005
C  C89  1  0.53700107  0.11950862  0.09526071  1  0.067552  0.017141  -0.012772  -0.026618  0.012092  3.980547  0.014
C  C90  1  0.54306519  0.08029865  0.16710103  1  -0.125214  -0.000852  -0.066016  -0.115309  -0.001419  3.870675  0.0
C  C91  1  0.50900050  0.94977226  0.46222287  1  -0.089061  7.9e-05  -0.082616  -0.123893  5.1e-05  3.967  0.0
C  C92  1  0.33971883  0.52839494  0.05867605  1  1.558507  -0.001633  0.21848  0.586281  -0.002092  4.152038  -0.005
C  C93  1  0.24813637  0.53698397  0.09533188  1  -0.003364  0.017316  -0.013255  -0.027932  0.012087  3.980867  0.014
C  C94  1  0.20918919  0.54301146  0.16719443  1  -0.030825  -0.000903  -0.066613  -0.114717  -0.001427  3.870804  0.0
C  C95  1  0.07889401  0.50927835  0.46192377  1  0.011417  7.9e-05  -0.082309  -0.121475  5.1e-05  3.964516  0.0
C  C96  1  0.20349649  0.53388495  0.05912537  1  0.012343  0.000685  -0.064711  -0.087093  4.7e-05  3.878842  0.001
C  C97  1  0.12508854  0.54503551  0.20435526  1  0.106112  0.001874  5.5e-05  0.132537  0.00111  4.127916  0.002
C  C98  1  0.08855288  0.54296451  0.27938562  1  -0.378647  8.3e-05  -0.046418  -0.108849  -2.5e-05  4.121512  0.0
C  C99  1  0.06008455  0.53399969  0.34543483  1  0.022233  0.001  -0.045428  -0.110203  0.000652  4.13127  0.001
C  C100  1  0.02937362  0.51852181  0.42250080  1  0.07872  3.1e-05  -0.000603  0.139368  1.8e-05  4.118482  0.0
C  C101  1  0.53388161  0.20350263  0.05912374  1  0.012007  0.000685  -0.064771  -0.087074  4.8e-05  3.878848  0.001
C  C102  1  0.54503728  0.12508801  0.20435210  1  0.105817  0.001874  -3.4e-05  0.132457  0.00111  4.127807  0.002
C  C103  1  0.54296600  0.08855426  0.27938359  1  -0.378656  8.3e-05  -0.046399  -0.108834  -2.5e-05  4.121582  0.0
C  C104  1  0.53400291  0.06008475  0.34543064  1  0.022171  0.001  -0.04539  -0.110183  0.000652  4.131415  0.001
C  C105  1  0.51852309  0.02937281  0.42249539  1  0.079096  3.1e-05  -0.000601  0.139471  1.8e-05  4.118466  0.0
C  C106  1  0.20336940  0.20337162  0.05890496  1  0.03908  0.00066  -0.064031  -0.086293  4.5e-05  3.879539  0.001
C  C107  1  0.12511216  0.12511347  0.20424828  1  0.102671  0.001875  0.000651  0.132779  0.001111  4.129604  0.002
C  C108  1  0.08865132  0.08865185  0.27933673  1  -0.22283  6.5e-05  -0.047117  -0.10914  -2.5e-05  4.121717  0.0
C  C109  1  0.06012787  0.06013289  0.34540125  1  -0.119951  0.001014  -0.045633  -0.109675  0.000652  4.130882  0.001
C  C110  1  0.02936450  0.02936222  0.42249154  1  0.087612  3e-05  -0.001212  0.13961  1.8e-05  4.117558  0.0
C  C111  1  0.79664006  0.79664439  0.94108454  1  -0.006294  0.000697  -0.064418  -0.087267  4.3e-05  3.879378  0.001
C  C112  1  0.87489091  0.87489306  0.79574566  1  0.103483  0.001876  0.000651  0.132465  0.001112  4.129379  0.002
C  C113  1  0.91135495  0.91134276  0.72065502  1  -0.223471  6.5e-05  -0.047124  -0.109086  -2.4e-05  4.121094  0.0
C  C114  1  0.93988929  0.93987192  0.65458869  1  -0.119605  0.001015  -0.045864  -0.10983  0.000653  4.130075  0.001
C  C115  1  0.97064301  0.97063248  0.57749496  1  0.08563  3e-05  -0.000976  0.139806  1.8e-05  4.117225  0.0
C  C116  1  0.46611767  0.79649468  0.94088150  1  0.012383  0.000683  -0.064773  -0.087142  4.6e-05  3.878418  0.001
C  C117  1  0.45494084  0.87492199  0.79565652  1  0.117866  0.001874  -1.6e-05  0.132397  0.001111  4.127917  0.002
C  C118  1  0.45701212  0.91145395  0.72062385  1  -0.378731  8.3e-05  -0.04623  -0.108623  -2.5e-05  4.1219  0.0
C  C119  1  0.46597970  0.93991226  0.65457665  1  0.021644  0.001001  -0.045587  -0.110413  0.000653  4.131804  0.001
C  C120  1  0.48146720  0.97061595  0.57750836  1  0.079191  3.1e-05  -0.000806  0.139339  1.8e-05  4.11835  0.0
C  C121  1  0.79649255  0.46611980  0.94088524  1  0.012231  0.000682  -0.064745  -0.08711  4.6e-05  3.878462  0.001
C  C122  1  0.87492362  0.45493981  0.79565975  1  0.117727  0.001874  -4.7e-05  0.132434  0.001111  4.127811  0.002
C  C123  1  0.91145734  0.45701211  0.72062635  1  -0.379003  8.3e-05  -0.046195  -0.108578  -2.5e-05  4.121872  0.0
C  C124  1  0.93991991  0.46598207  0.65458021  1  0.021927  0.001001  -0.045639  -0.110455  0.000652  4.13181  0.001
C  C125  1  0.97061864  0.48146806  0.57751209  1  0.079072  3.1e-05  -0.000711  0.139352  1.8e-05  4.118312  0.0
O  O126  1  0.99826365  0.52741367  0.09556299  1  -1.116627  0.094202  -0.320695  -0.550912  0.059835  2.353211  0.086
O  O127  1  0.11316139  0.52060142  0.99377750  1  -1.090565  0.100843  -0.307704  -0.50357  0.063647  2.31511  0.092
O  O128  1  0.52736292  0.37867573  0.09568684  1  -1.120819  0.094246  -0.321819  -0.551285  0.059786  2.35439  0.086
O  O129  1  0.52074532  0.37249058  0.99382395  1  -1.090675  0.100611  -0.307212  -0.504018  0.06362  2.316217  0.091
O  O130  1  0.37859650  0.99820942  0.09551484  1  -1.126864  0.094036  -0.321971  -0.551525  0.059657  2.352527  0.086
O  O131  1  0.37244250  0.11302855  0.99368387  1  -1.099654  0.100876  -0.305968  -0.502455  0.063802  2.315019  0.092
O  O132  1  0.00181043  0.62141210  0.90446729  1  -1.126863  0.094075  -0.322101  -0.551776  0.059684  2.351637  0.086
O  O133  1  0.88698853  0.62757385  0.00629602  1  -1.100047  0.100801  -0.30583  -0.502338  0.063754  2.31601  0.092
O  O134  1  0.47259609  0.00173392  0.90443846  1  -1.116105  0.094229  -0.320821  -0.551091  0.059854  2.35221  0.086
O  O135  1  0.47940935  0.88683418  0.00622036  1  -1.090275  0.100796  -0.307609  -0.50334  0.063619  2.315772  0.091
O  O136  1  0.62132575  0.47263002  0.90431600  1  -1.120547  0.094259  -0.321852  -0.551373  0.059795  2.353995  0.086
O  O137  1  0.62750907  0.47924639  0.00617823  1  -1.090705  0.100568  -0.307174  -0.503936  0.063591  2.316654  0.091
O  O138  1  0.00173499  0.47259697  0.90444144  1  -1.116105  0.094225  -0.320799  -0.551031  0.059852  2.352284  0.086
O  O139  1  0.88683275  0.47941446  0.00622522  1  -1.090208  0.100802  -0.307527  -0.503228  0.063622  2.315669  0.091
O  O140  1  0.47262799  0.62132468  0.90431391  1  -1.120553  0.094259  -0.3219  -0.551442  0.059795  2.353988  0.086
O  O141  1  0.47924815  0.62751123  0.00617381  1  -1.090792  0.100573  -0.307193  -0.504012  0.063594  2.316755  0.091
O  O142  1  0.62141288  0.00181365  0.90445961  1  -1.126631  0.094077  -0.322031  -0.551665  0.059686  2.351737  0.086
O  O143  1  0.62757586  0.88699057  0.00629093  1  -1.100241  0.100796  -0.305775  -0.502209  0.063751  2.316051  0.092
O  O144  1  0.99820733  0.37860254  0.09551613  1  -1.126675  0.094028  -0.32193  -0.551463  0.059651  2.352674  0.086
O  O145  1  0.11302603  0.37244497  0.99368702  1  -1.099694  0.100872  -0.305983  -0.502506  0.063798  2.315053  0.092
O  O146  1  0.52740893  0.99826656  0.09556088  1  -1.116543  0.0942  -0.320699  -0.550793  0.059835  2.353296  0.086
O  O147  1  0.52059693  0.11316462  0.99377538  1  -1.089977  0.100848  -0.307569  -0.503329  0.063652  2.314976  0.092
O  O148  1  0.37867543  0.52736656  0.09568594  1  -1.120739  0.094245  -0.321825  -0.551297  0.059785  2.354337  0.086
O  O149  1  0.37249085  0.52074474  0.99382734  1  -1.090529  0.100607  -0.307228  -0.504054  0.063617  2.316264  0.091
O  O150  1  0.15653370  0.50898180  0.82581562  1  -1.172894  -0.001844  -0.572774  -0.723673  -0.001423  1.934477  -0.001
O  O151  1  0.50891714  0.50891369  0.82577221  1  -1.163269  -0.001831  -0.571859  -0.723077  -0.001425  1.935632  -0.001
O  O152  1  0.50898162  0.15653490  0.82581464  1  -1.172849  -0.001845  -0.572755  -0.723647  -0.001423  1.934545  -0.001
O  O153  1  0.84347069  0.49101775  0.17418670  1  -1.172912  -0.001845  -0.572895  -0.723897  -0.001424  1.93428  -0.001
O  O154  1  0.49101955  0.84346999  0.17418259  1  -1.173051  -0.001846  -0.57283  -0.723776  -0.001424  1.934293  -0.001
O  O155  1  0.49109106  0.49109093  0.17422280  1  -1.163679  -0.001832  -0.571922  -0.723191  -0.001425  1.935503  -0.001
