# generated using pymatgen
data_MnH10C5O7
_symmetry_space_group_name_H-M   'P 1'
_cell_length_a   7.01799423
_cell_length_b   9.53642454
_cell_length_c   12.21029884
_cell_angle_alpha   102.18040440
_cell_angle_beta   95.21793389
_cell_angle_gamma   94.57423149
_symmetry_Int_Tables_number   1
_chemical_formula_structural   MnH10C5O7
_chemical_formula_sum   'Mn4 H40 C20 O28'
_cell_volume   791.36712078
_cell_formula_units_Z   4
loop_
 _symmetry_equiv_pos_site_id
 _symmetry_equiv_pos_as_xyz
  1  'x, y, z'
loop_
 _atom_site_type_symbol
 _atom_site_label
 _atom_site_symmetry_multiplicity
 _atom_site_fract_x
 _atom_site_fract_y
 _atom_site_fract_z
 _atom_site_occupancy
 _atom_site_hle17_ddec_charge
 _atom_site_hle17_ddec_spin_density
 _atom_site_hle17_ddec_sum_bond_order
 _atom_site_hle17_magmom
 _atom_site_hse06_10hf_ddec_charge
 _atom_site_hse06_10hf_ddec_spin_density
 _atom_site_hse06_10hf_ddec_sum_bond_order
 _atom_site_hse06_10hf_magmom
 _atom_site_hse06_ddec_charge
 _atom_site_hse06_ddec_spin_density
 _atom_site_hse06_ddec_sum_bond_order
 _atom_site_hse06_magmom
 _atom_site_pbe_cm5_charge
 _atom_site_pbe_ddec_charge
 _atom_site_pbe_ddec_spin_density
 _atom_site_pbe_ddec_sum_bond_order
 _atom_site_pbe_magmom
Mn  Mn0  1  0.54553389  0.21410502  0.41674244  1  1.253661  4.807545  1.609477  4.682  1.091253  4.742377  2.091127  4.548  1.158171  4.782596  2.012996  4.607  0.601884  1.036699  4.701784  2.150037  4.491
Mn  Mn1  1  0.45423650  0.78573065  0.58323570  1  1.253684  4.807439  1.61014  4.683  1.091779  4.742933  2.091517  4.55  1.158338  4.781734  2.013586  4.608  0.602527  1.037933  4.704855  2.149923  4.496
Mn  Mn2  1  0.18014633  0.26064321  0.21581261  1  1.388029  -4.814683  1.534826  -4.717  1.243796  -4.744251  2.014893  -4.589  1.296061  -4.779653  1.942575  -4.635  0.608806  1.201356  -4.709521  2.068628  -4.545
Mn  Mn3  1  0.81950942  0.73903066  0.78424062  1  1.387932  4.810895  1.536897  4.717  1.243904  4.745298  2.017124  4.591  1.295905  4.7735  1.944974  4.636  0.609286  1.201971  4.718818  2.070438  4.549
H  H4  1  0.70250364  0.16491616  0.61662116  1  0.434679  0.000415  0.861885  0.002  0.404621  0.00124  0.923575  0.002  0.414649  0.00085  0.908996  0.002  0.304853  0.397344  0.001602  0.934141  0.003
H  H5  1  0.29746182  0.83504560  0.38334349  1  0.434429  0.000419  0.862099  0.002  0.404485  0.001206  0.923614  0.002  0.414497  0.000834  0.909059  0.002  0.304846  0.397221  0.001542  0.934161  0.003
H  H6  1  0.88135794  0.15734443  0.53739809  1  0.440999  0.000568  0.859981  0.002  0.405905  0.001246  0.928886  0.003  0.417809  0.000925  0.911863  0.002  0.296252  0.397327  0.001542  0.941118  0.003
H  H7  1  0.11857517  0.84267132  0.46253602  1  0.440826  0.000591  0.860269  0.002  0.405779  0.001262  0.929087  0.003  0.417676  0.000941  0.912076  0.002  0.296201  0.397226  0.001552  0.941277  0.003
H  H8  1  0.17526458  0.12120662  0.40085686  1  0.42851  0.000153  0.883262  -0.001  0.391518  0.000351  0.955543  -0.001  0.404417  0.000296  0.937109  -0.001  0.296041  0.382306  0.0004  0.968679  -0.001
H  H9  1  0.82511019  0.87916465  0.59921185  1  0.42887  -5.7e-05  0.882825  0.001  0.391825  0.001041  0.955161  0.002  0.404736  0.000654  0.936704  0.002  0.296167  0.382594  0.001396  0.968323  0.002
H  H10  1  0.28214041  0.01610171  0.30063439  1  0.417268  0.000312  0.899955  -0.001  0.381478  0.000608  0.971507  -0.001  0.393684  0.000536  0.953971  -0.001  0.295796  0.372792  0.000674  0.983938  -0.001
H  H11  1  0.71826395  0.98419950  0.69936215  1  0.416984  0.000199  0.900285  0.001  0.381457  0.001411  0.971461  0.002  0.393651  0.000985  0.95395  0.002  0.295681  0.372766  0.001786  0.983887  0.002
H  H12  1  0.98741922  0.42073048  0.38319487  1  0.428233  -0.000374  0.877737  -0.001  0.395927  -0.000919  0.943549  -0.001  0.406819  -0.000739  0.927827  -0.001  0.296125  0.388075  -0.001075  0.95487  -0.001
H  H13  1  0.01244942  0.57930033  0.61682007  1  0.42831  -0.000364  0.877628  0.001  0.395952  0.000239  0.943427  0.002  0.406828  -3.4e-05  0.927739  0.001  0.296268  0.388118  0.00051  0.954726  0.002
H  H14  1  0.20548279  0.46156815  0.43462734  1  0.439418  -0.000946  0.831211  -0.002  0.411529  -0.001608  0.897607  -0.003  0.420848  -0.00132  0.884022  -0.002  0.314099  0.404724  -0.001882  0.907531  -0.003
H  H15  1  0.79446124  0.53828796  0.56529740  1  0.439322  6.2e-05  0.831269  0.002  0.411451  0.000873  0.897653  0.003  0.42076  0.000464  0.884093  0.002  0.314251  0.404671  0.00129  0.907534  0.003
H  H16  1  0.42381084  0.13847216  0.05662777  1  0.42648  -0.00013  0.879835  -0.001  0.391289  -0.000739  0.950646  -0.002  0.402592  -0.00051  0.934379  -0.002  0.292009  0.383165  -0.00095  0.962359  -0.002
H  H17  1  0.57608262  0.86151222  0.94341691  1  0.425807  5.3e-05  0.880728  0.001  0.390694  0.000629  0.951399  0.002  0.401981  0.000397  0.935152  0.002  0.291788  0.38259  0.000845  0.963088  0.002
H  H18  1  0.29267448  0.00278209  0.07059265  1  0.435405  -0.000427  0.843616  -0.002  0.407552  -0.00111  0.904608  -0.002  0.417312  -0.000786  0.890428  -0.002  0.307305  0.400337  -0.001408  0.915107  -0.003
H  H19  1  0.70729921  0.99709993  0.92929623  1  0.435577  0.000393  0.843434  0.002  0.407795  0.001056  0.904255  0.002  0.417543  0.000729  0.890086  0.002  0.307485  0.400599  0.001365  0.914731  0.003
H  H20  1  0.15751273  0.48477830  0.09119381  1  0.431684  -0.000496  0.874306  -0.002  0.397477  -0.001061  0.943824  -0.003  0.408712  -0.000795  0.927514  -0.002  0.293934  0.389232  -0.001321  0.955765  -0.003
H  H21  1  0.84251027  0.51510341  0.90894753  1  0.432044  0.000486  0.873854  0.002  0.397828  0.00105  0.943389  0.003  0.409058  0.000783  0.927087  0.002  0.293951  0.389595  0.001307  0.955312  0.003
H  H22  1  0.98015477  0.36550335  0.04521154  1  0.4269  -2.7e-05  0.87865  -0.001  0.393103  -0.000535  0.946117  -0.002  0.40525  -0.000321  0.928491  -0.002  0.292739  0.384396  -0.000729  0.958696  -0.002
H  H23  1  0.01987912  0.63441186  0.95486877  1  0.426583  2.3e-05  0.879127  0.001  0.392843  0.000538  0.946461  0.002  0.404984  0.000319  0.928843  0.002  0.29259  0.384145  0.000741  0.959026  0.002
H  H24  1  0.79711494  0.17587727  0.11298357  1  0.42689  -0.000265  0.875049  -0.002  0.392239  -0.000833  0.943867  -0.002  0.404044  -0.000559  0.926717  -0.002  0.292474  0.383792  -0.001084  0.956097  -0.003
H  H25  1  0.20291352  0.82397985  0.88696073  1  0.426833  0.000224  0.875054  0.002  0.392323  0.000776  0.943659  0.002  0.404124  0.000497  0.926511  0.002  0.292629  0.383878  0.001035  0.955891  0.003
H  H26  1  0.81087686  0.11661572  0.22688895  1  0.430354  -0.000854  0.871356  -0.002  0.398633  -0.001274  0.935672  -0.002  0.409785  -0.001074  0.919603  -0.002  0.29746  0.390596  -0.001431  0.947242  -0.003
H  H27  1  0.18889524  0.88324154  0.77307155  1  0.430257  -0.000144  0.871213  0.002  0.398675  0.000649  0.935292  0.003  0.409794  0.00026  0.919272  0.002  0.297497  0.390671  0.001043  0.946818  0.003
H  H28  1  0.77800836  0.47617640  0.18036256  1  0.094927  0.000349  0.916103  0.0  0.106981  0.0005  0.976021  0.0  0.1091  0.000453  0.975613  0.0  0.112822  0.105402  0.0005  0.976547  0.0
H  H29  1  0.22197605  0.52385113  0.81962135  1  0.095115  -0.000193  0.91607  0.0  0.10717  -4.5e-05  0.976052  0.0  0.109278  -0.000164  0.975669  0.0  0.112927  0.105596  6.8e-05  0.976567  0.001
H  H30  1  0.97225866  0.63375948  0.32691333  1  0.090069  0.000222  0.937848  0.0  0.101746  0.000379  0.998249  0.0  0.104667  0.000314  0.996257  0.0  0.109516  0.099509  0.000453  0.999987  0.0
H  H31  1  0.02774840  0.36627772  0.67308899  1  0.090064  -0.000298  0.93781  0.0  0.101748  -0.000145  0.9982  0.0  0.104695  -0.000271  0.996178  0.0  0.109545  0.099503  1.6e-05  0.999935  0.0
H  H32  1  0.94507364  0.87687287  0.28083667  1  0.088892  3e-06  0.937359  0.0  0.103462  0.0002  1.000628  0.0  0.105926  0.000104  0.999392  0.0  0.098136  0.101457  0.000335  1.001955  0.0
H  H33  1  0.05495262  0.12312446  0.71912082  1  0.08898  -0.000322  0.937666  0.0  0.103574  -0.000211  1.000871  0.0  0.106011  -0.000309  0.999665  0.0  0.098178  0.101569  -6.1e-05  1.002205  0.0
H  H34  1  0.94915975  0.73143792  0.16485144  1  0.096047  4.2e-05  0.924574  0.0  0.111316  8.7e-05  0.984988  0.0  0.113612  4.8e-05  0.984096  0.0  0.098071  0.109589  0.000128  0.985776  0.0
H  H35  1  0.05077209  0.26854869  0.83509417  1  0.096145  8.8e-05  0.924563  0.0  0.111326  0.000115  0.985079  0.0  0.113607  9.3e-05  0.984188  0.0  0.098075  0.109602  0.000151  0.985853  0.0
H  H36  1  0.72218926  0.88006090  0.11213994  1  0.090837  -0.000201  0.942531  0.0  0.101996  -0.000134  1.004081  0.0  0.104974  -0.000169  1.001868  0.0  0.110933  0.099685  -9.5e-05  1.005998  0.0
H  H37  1  0.27774513  0.11991490  0.88783432  1  0.090831  0.000109  0.942536  0.0  0.102077  0.000256  1.003948  0.0  0.10506  0.000218  1.001755  0.0  0.110928  0.099735  0.000302  1.005903  0.0
H  H38  1  0.63611013  0.63093134  0.04098156  1  0.085776  -0.000194  0.932172  0.0  0.09857  -0.000185  0.992894  0.0  0.10031  -0.000221  0.992683  0.0  0.107434  0.097294  -0.00015  0.993146  0.0
H  H39  1  0.36385825  0.36903573  0.95906111  1  0.08567  0.000295  0.932315  0.0  0.098369  0.00034  0.993086  0.0  0.100118  0.000341  0.99284  0.0  0.10735  0.097083  0.000338  0.993363  0.0
H  H40  1  0.43950095  0.47220876  0.12928604  1  0.065907  -0.000467  0.984955  0.0  0.081676  -0.000812  1.054055  0.0  0.082737  -0.000711  1.053435  0.0  0.095598  0.080763  -0.000891  1.054869  0.0
H  H41  1  0.56043734  0.52781328  0.87081154  1  0.065887  0.000361  0.984626  0.0  0.081726  0.000833  1.053698  0.0  0.082781  0.000648  1.053089  0.0  0.09567  0.080821  0.001003  1.054486  0.0
H  H42  1  0.41417662  0.61531919  0.24323828  1  0.092609  -0.000229  0.936087  0.0  0.107717  -0.000313  0.998381  0.0  0.109999  -0.0003  0.996958  0.0  0.098872  0.106086  -0.000335  0.999463  0.0
H  H43  1  0.58586466  0.38473299  0.75685439  1  0.092919  -0.000349  0.936151  0.0  0.107859  -0.000384  0.998578  0.0  0.110151  -0.000409  0.997143  0.0  0.098926  0.106224  -0.000368  0.999662  0.0
C  C44  1  0.69447805  0.53680054  0.24379544  1  -0.120827  -0.001196  3.626489  -0.001  -0.125824  -0.000611  3.867366  -0.001  -0.131584  -0.000723  3.881103  -0.001  -0.083443  -0.121792  -0.000432  3.858025  -0.001
C  C45  1  0.30555154  0.46322476  0.75622418  1  -0.120935  -0.001683  3.626316  -0.001  -0.12634  -0.001011  3.867643  -0.001  -0.132069  -0.001264  3.88136  -0.001  -0.083676  -0.12235  -0.000694  3.85834  -0.001
C  C46  1  0.83033762  0.66925978  0.30659028  1  -0.142143  0.001328  3.631544  0.001  -0.152062  0.001409  3.874751  0.001  -0.15782  0.000981  3.888379  0.001  -0.091709  -0.148174  0.001899  3.865737  0.002
C  C47  1  0.16967710  0.33076988  0.69339893  1  -0.141832  0.001554  3.63095  0.002  -0.151755  0.001848  3.874071  0.002  -0.157535  0.001284  3.887701  0.001  -0.091601  -0.14784  0.002475  3.865058  0.002
C  C48  1  0.86164324  0.77817740  0.23095334  1  -0.113174  0.000453  3.58541  0.0  -0.160007  0.001037  3.840877  0.001  -0.160146  0.000738  3.851866  0.001  -0.154429  -0.159775  0.001373  3.833578  0.001
C  C49  1  0.13834918  0.22182426  0.76901364  1  -0.113339  0.0004  3.585659  0.0  -0.160201  0.000951  3.841208  0.001  -0.1603  0.000643  3.852181  0.001  -0.154407  -0.159969  0.001315  3.833901  0.001
C  C50  1  0.67551229  0.81746640  0.17280031  1  -0.138828  0.0008  3.636791  0.001  -0.148071  0.000868  3.879675  0.001  -0.153725  0.000588  3.893156  0.001  -0.090694  -0.144017  0.001186  3.870437  0.001
C  C51  1  0.32444219  0.18253200  0.82719927  1  -0.138675  0.000859  3.636519  0.001  -0.148019  0.00099  3.879223  0.001  -0.153702  0.000703  3.892759  0.001  -0.090675  -0.143939  0.001314  3.86994  0.001
C  C52  1  0.55078126  0.68046208  0.10799062  1  -0.133674  0.000433  3.645372  0.0  -0.138381  0.000604  3.886564  0.001  -0.143867  0.000453  3.901253  0.0  -0.09047  -0.13468  0.000805  3.876522  0.001
C  C53  1  0.44918158  0.31952658  0.89204466  1  -0.13345  0.000531  3.645164  0.0  -0.138014  0.000727  3.885854  0.001  -0.14349  0.000619  3.900551  0.0  -0.090507  -0.134328  0.000869  3.875812  0.001
C  C54  1  0.51163105  0.57297431  0.18182443  1  -0.137519  -0.000134  3.679459  0.0  -0.191437  -0.000286  3.932376  0.0  -0.191599  -0.000332  3.945622  0.0  -0.172268  -0.191225  -0.000224  3.923351  0.0
C  C55  1  0.48835380  0.42704019  0.81823107  1  -0.137599  0.000421  3.679135  0.001  -0.191392  0.001102  3.931882  0.001  -0.191554  0.000772  3.945124  0.001  -0.172151  -0.191168  0.001436  3.922846  0.001
C  C56  1  0.64326010  0.43069585  0.31576669  1  0.704499  0.002979  3.764675  0.0  0.643776  0.005718  4.069894  0.001  0.679921  0.004631  4.062087  0.001  0.234172  0.618506  0.006653  4.074168  0.002
C  C57  1  0.35679317  0.56930356  0.68424668  1  0.704429  0.006576  3.764344  0.007  0.644294  0.012802  4.068819  0.011  0.680397  0.009996  4.061023  0.009  0.234373  0.619064  0.015578  4.073158  0.014
C  C58  1  0.77071094  0.74314805  0.41943542  1  0.688944  0.003803  3.790915  0.004  0.631243  0.007553  4.096579  0.007  0.665879  0.005694  4.090525  0.006  0.226756  0.607286  0.009471  4.099842  0.009
C  C59  1  0.22931062  0.25698087  0.58052224  1  0.688508  0.004085  3.7912  0.004  0.631001  0.007898  4.096584  0.007  0.665645  0.006053  4.090538  0.006  0.226478  0.607013  0.009794  4.09985  0.009
C  C60  1  0.56376139  0.91797860  0.25129129  1  0.695285  0.00251  3.763699  0.003  0.63471  0.005407  4.07239  0.005  0.669214  0.00409  4.065812  0.004  0.231308  0.610933  0.006722  4.075925  0.006
C  C61  1  0.43621737  0.08207916  0.74866946  1  0.695029  0.002441  3.764717  0.003  0.634416  0.005535  4.073443  0.005  0.668876  0.004034  4.066886  0.004  0.231076  0.610688  0.007086  4.076963  0.007
C  C62  1  0.36597836  0.71278878  0.04579126  1  0.701539  -0.000161  3.783093  0.0  0.632393  -0.000253  4.109142  0.0  0.665984  -0.000197  4.101536  0.0  0.224942  0.609538  -0.000162  4.113539  0.0
C  C63  1  0.63399396  0.28716429  0.95423376  1  0.701223  0.000175  3.783215  0.0  0.632546  0.000366  4.108404  0.0  0.666151  0.000241  4.100773  0.0  0.225272  0.60969  0.00039  4.112801  0.0
O  O64  1  0.48669427  0.34680989  0.28905159  1  -0.688741  0.002602  2.086394  0.007  -0.609918  -0.000765  2.370332  0.004  -0.644916  -0.001665  2.355929  0.002  -0.294793  -0.583213  0.000173  2.379159  0.005
O  O65  1  0.51344206  0.65309139  0.71087892  1  -0.688744  0.050322  2.090414  0.027  -0.610098  0.063107  2.37502  0.034  -0.645036  0.057433  2.36041  0.03  -0.294682  -0.58358  0.068197  2.384067  0.038
O  O66  1  0.75702296  0.41560770  0.39996103  1  -0.67088  0.020049  2.001575  0.011  -0.597736  0.026753  2.238062  0.016  -0.62724  0.023786  2.22402  0.014  -0.297424  -0.576095  0.029716  2.247577  0.019
O  O67  1  0.24295044  0.58445859  0.60009501  1  -0.670708  0.022371  2.001193  0.015  -0.597884  0.031031  2.237683  0.022  -0.627305  0.026857  2.223626  0.019  -0.297538  -0.576402  0.035258  2.247277  0.026
O  O68  1  0.60519481  0.70675855  0.44563600  1  -0.654244  0.03512  2.040079  0.023  -0.57938  0.040026  2.306222  0.023  -0.612208  0.035331  2.291981  0.019  -0.3077  -0.554717  0.044648  2.315179  0.028
O  O69  1  0.39482464  0.29347066  0.55434955  1  -0.654138  0.035366  2.039847  0.023  -0.579161  0.040256  2.305764  0.023  -0.61206  0.035638  2.291534  0.019  -0.307581  -0.554359  0.044779  2.314717  0.027
O  O70  1  0.89375517  0.83896808  0.48278195  1  -0.619083  0.001378  2.028273  0.003  -0.549436  0.00339  2.243993  0.005  -0.576505  0.002102  2.233123  0.004  -0.296774  -0.530555  0.004727  2.25129  0.007
O  O71  1  0.10632083  0.16119757  0.51709549  1  -0.618515  0.001466  2.028756  0.002  -0.548943  0.003301  2.244323  0.004  -0.575998  0.002277  2.233453  0.003  -0.296329  -0.530069  0.004313  2.25165  0.005
O  O72  1  0.64982720  0.04262014  0.29954230  1  -0.667473  0.031865  2.054854  0.019  -0.587262  0.037214  2.311033  0.021  -0.620441  0.033587  2.296905  0.018  -0.302943  -0.562657  0.040703  2.320264  0.024
O  O73  1  0.35019908  0.95741925  0.70042377  1  -0.667564  0.031812  2.054813  0.02  -0.587612  0.037462  2.311085  0.022  -0.620587  0.033473  2.296808  0.018  -0.302994  -0.563233  0.04139  2.320398  0.025
O  O74  1  0.39051161  0.87770037  0.26171243  1  -0.627854  0.000583  2.022261  0.001  -0.558559  0.001866  2.239909  0.002  -0.584879  0.001302  2.230716  0.001  -0.296278  -0.540064  0.002393  2.245781  0.002
O  O75  1  0.60936999  0.12247940  0.73819267  1  -0.627884  0.000814  2.022715  0.002  -0.558266  0.002527  2.239935  0.003  -0.58463  0.001597  2.230869  0.003  -0.296301  -0.539797  0.003533  2.245805  0.004
O  O76  1  0.37523784  0.81706249  0.99407575  1  -0.67805  7.4e-05  2.018456  0.001  -0.602223  0.000242  2.239304  0.001  -0.629236  5.4e-05  2.228032  0.001  -0.312159  -0.583503  0.000398  2.247134  0.001
O  O77  1  0.62472252  0.18287550  0.00593220  1  -0.678201  -0.000151  2.0185  -0.001  -0.602524  -0.000293  2.23918  -0.001  -0.629537  -0.000129  2.227903  -0.001  -0.312271  -0.583803  -0.000409  2.247007  -0.001
O  O78  1  0.21122892  0.63303827  0.04254806  1  -0.631233  -0.000244  2.036964  0.0  -0.559589  -0.000353  2.264494  0.0  -0.585897  -0.000275  2.253664  0.0  -0.299417  -0.541174  -0.00037  2.271586  0.0
O  O79  1  0.78877970  0.36689857  0.95748938  1  -0.631223  0.000269  2.036839  0.0  -0.559818  0.000422  2.264294  0.0  -0.586141  0.000325  2.253456  0.0  -0.299569  -0.541418  0.000506  2.271413  0.001
O  O80  1  0.74018364  0.16725797  0.54129118  1  -0.870521  0.036246  1.897414  0.023  -0.810266  0.04609  2.12862  0.028  -0.835927  0.04074  2.088254  0.023  -0.581353  -0.79052  0.050958  2.157514  0.032
O  O81  1  0.25977068  0.83273724  0.45867510  1  -0.870103  0.036384  1.897616  0.023  -0.809967  0.045904  2.12865  0.027  -0.835596  0.040701  2.088339  0.023  -0.581312  -0.790315  0.050704  2.157462  0.032
O  O82  1  0.24532877  0.11679055  0.32992487  1  -0.922984  -0.000548  2.010788  0.003  -0.849168  0.00097  2.262464  0.005  -0.879683  -0.000267  2.220669  0.004  -0.55918  -0.825394  0.002316  2.291485  0.006
O  O83  1  0.75552901  0.88366442  0.67025551  1  -0.922736  0.059257  2.009355  0.035  -0.849324  0.07584  2.260386  0.045  -0.87963  0.068613  2.218644  0.04  -0.559797  -0.825939  0.082467  2.289343  0.051
O  O84  1  0.12322696  0.42029247  0.36425423  1  -0.858011  -0.029737  1.865048  -0.017  -0.800473  -0.038625  2.079297  -0.022  -0.822884  -0.035086  2.044132  -0.019  -0.567987  -0.783429  -0.041804  2.104336  -0.024
O  O85  1  0.87661470  0.57965321  0.63569767  1  -0.857989  0.029197  1.865283  0.017  -0.800319  0.038463  2.079783  0.023  -0.822704  0.034442  2.044632  0.02  -0.568348  -0.783304  0.04216  2.104682  0.026
O  O86  1  0.30249100  0.10854770  0.08723148  1  -0.860858  -0.030412  1.858989  -0.017  -0.800926  -0.039659  2.069514  -0.022  -0.823357  -0.035863  2.032548  -0.019  -0.573164  -0.784018  -0.043079  2.096163  -0.024
O  O87  1  0.69738503  0.89133753  0.91274509  1  -0.86017  0.029654  1.859641  0.017  -0.800472  0.038755  2.07017  0.022  -0.822848  0.034878  2.03328  0.019  -0.572975  -0.783646  0.04229  2.096717  0.025
O  O88  1  0.10084908  0.38857712  0.09939536  1  -0.890271  -0.034405  1.884318  -0.019  -0.82879  -0.042953  2.113767  -0.023  -0.853743  -0.038984  2.074454  -0.02  -0.585744  -0.809554  -0.046523  2.14173  -0.026
O  O89  1  0.89913998  0.61130572  0.90071645  1  -0.890617  0.034637  1.884245  0.019  -0.829287  0.043306  2.113935  0.023  -0.854189  0.039233  2.074622  0.02  -0.585887  -0.810126  0.047006  2.141841  0.026
O  O90  1  0.88750938  0.16550334  0.17827375  1  -0.877706  -0.034839  1.857305  -0.022  -0.81287  -0.044107  2.070383  -0.027  -0.837233  -0.039707  2.031742  -0.023  -0.580705  -0.794198  -0.048126  2.097813  -0.03
O  O91  1  0.11245188  0.83419851  0.82166088  1  -0.877602  0.034466  1.857013  0.022  -0.813028  0.044235  2.069715  0.027  -0.837324  0.039424  2.031191  0.023  -0.581066  -0.794418  0.048737  2.096943  0.031
