# generated using pymatgen
data_NaGdH16(C3O2)6
_symmetry_space_group_name_H-M   'P 1'
_cell_length_a   6.81246417
_cell_length_b   7.50299577
_cell_length_c   19.89126507
_cell_angle_alpha   90.00070588
_cell_angle_beta   99.90306006
_cell_angle_gamma   90.00032449
_symmetry_Int_Tables_number   1
_chemical_formula_structural   NaGdH16(C3O2)6
_chemical_formula_sum   'Na2 Gd2 H32 C36 O24'
_cell_volume   1001.57094998
_cell_formula_units_Z   2
loop_
 _symmetry_equiv_pos_site_id
 _symmetry_equiv_pos_as_xyz
  1  'x, y, z'
loop_
 _atom_site_type_symbol
 _atom_site_label
 _atom_site_symmetry_multiplicity
 _atom_site_fract_x
 _atom_site_fract_y
 _atom_site_fract_z
 _atom_site_occupancy
 _atom_site_hle17_bader_spin_density
 _atom_site_hle17_ddec_charge
 _atom_site_hle17_ddec_spin_density
 _atom_site_hle17_ddec_sum_bond_order
 _atom_site_hle17_magmom
 _atom_site_hse06_10hf_bader_spin_density
 _atom_site_hse06_10hf_ddec_charge
 _atom_site_hse06_10hf_ddec_spin_density
 _atom_site_hse06_10hf_ddec_sum_bond_order
 _atom_site_hse06_10hf_magmom
 _atom_site_hse06_bader_spin_density
 _atom_site_hse06_ddec_charge
 _atom_site_hse06_ddec_spin_density
 _atom_site_hse06_ddec_sum_bond_order
 _atom_site_hse06_magmom
 _atom_site_pbe_bader_spin_density
 _atom_site_pbe_cm5_charge
 _atom_site_pbe_ddec_charge
 _atom_site_pbe_ddec_spin_density
 _atom_site_pbe_ddec_sum_bond_order
 _atom_site_pbe_magmom
Na  Na0  1  0.83778908  0.75024677  0.67407487  1  0  0.926666  0  0.352036  0  0  0.898159  0  0.483882  0  0  0.906714  0  0.463672  0  0  0.69554  0.891433  0  0.498885  0
Na  Na1  1  0.16221737  0.25024175  0.32592646  1  0  0.926671  0  0.352025  0  0  0.898147  0  0.483872  0  0  0.906706  0  0.463679  0  0  0.695558  0.891424  0  0.498889  0
Gd  Gd2  1  0.70665638  0.25015129  0.41375688  1  0  2.12559  0  1.90535  0  0  2.022879  0  2.30049  0  0  2.080968  0  2.234946  0  0  1.497977  1.97745  0  2.353248  0
Gd  Gd3  1  0.29335006  0.75015330  0.58624847  1  0  2.125668  0  1.905305  0  0  2.023005  0  2.300408  0  0  2.081136  0  2.234781  0  0  1.498002  1.977568  0  2.353203  0
H  H4  1  0.22173220  0.64752378  0.03192188  1  0  0.083303  0  0.957158  0  0  0.094917  0  1.01777  0  0  0.0979  0  1.016399  0  0  0.097686  0.092807  0  1.018805  0
H  H5  1  0.77826592  0.14753212  0.96807646  1  0  0.083343  0  0.957143  0  0  0.094954  0  1.017753  0  0  0.097935  0  1.016385  0  0  0.097712  0.092844  0  1.018789  0
H  H6  1  0.81269745  0.85171043  0.03236067  1  0  0.085294  0  0.955417  0  0  0.0971  0  1.015542  0  0  0.100188  0  1.014067  0  0  0.098654  0.094918  0  1.016652  0
H  H7  1  0.18730394  0.35171435  0.96763932  1  0  0.085275  0  0.955415  0  0  0.097082  0  1.015539  0  0  0.10017  0  1.014065  0  0  0.0986  0.094893  0  1.016648  0
H  H8  1  0.11043306  0.84858517  0.81214522  1  0  0.109314  0  0.960725  0  0  0.119158  0  1.022125  0  0  0.122631  0  1.019406  0  0  0.109837  0.116615  0  1.024176  0
H  H9  1  0.88955187  0.34857546  0.18786132  1  0  0.109323  0  0.960682  0  0  0.119095  0  1.022208  0  0  0.122562  0  1.019483  0  0  0.109814  0.116554  0  1.024253  0
H  H10  1  0.70468983  0.65084836  0.81219075  1  0  0.109041  0  0.962091  0  0  0.118378  0  1.023863  0  0  0.121936  0  1.02102  0  0  0.10939  0.115796  0  1.025957  0
H  H11  1  0.29529936  0.15083823  0.18780959  1  0  0.109051  0  0.962105  0  0  0.118433  0  1.023818  0  0  0.121991  0  1.020977  0  0  0.10938  0.115845  0  1.025926  0
H  H12  1  0.17515807  0.85167549  0.93887570  1  0  0.084661  0  0.951631  0  0  0.096628  0  1.010511  0  0  0.09957  0  1.009576  0  0  0.097185  0.094528  0  1.011269  0
H  H13  1  0.82484031  0.35168133  0.06113015  1  0  0.084599  0  0.951675  0  0  0.096606  0  1.010518  0  0  0.099549  0  1.00958  0  0  0.097163  0.094495  0  1.011293  0
H  H14  1  0.76690126  0.64746260  0.93900490  1  0  0.084386  0  0.951334  0  0  0.097023  0  1.009486  0  0  0.099963  0  1.008539  0  0  0.097574  0.094939  0  1.010213  0
H  H15  1  0.23309088  0.14746403  0.06099610  1  0  0.084334  0  0.951434  0  0  0.096952  0  1.009608  0  0  0.099892  0  1.008659  0  0  0.097557  0.09487  0  1.010336  0
H  H16  1  0.94216334  0.73140139  0.43737347  1  0  0.101271  0  0.92716  0  0  0.107877  0  0.985438  0  0  0.111232  0  0.982562  0  0  0.131149  0.105414  0  0.987726  0
H  H17  1  0.05782957  0.23140218  0.56262194  1  0  0.101297  0  0.927239  0  0  0.107891  0  0.985483  0  0  0.111246  0  0.982606  0  0  0.131148  0.105428  0  0.987768  0
H  H18  1  0.49543849  0.76905719  0.43725740  1  0  0.101226  0  0.926303  0  0  0.108346  0  0.985115  0  0  0.11169  0  0.982296  0  0  0.131139  0.10587  0  0.987391  0
H  H19  1  0.50455776  0.26906430  0.56273184  1  0  0.101246  0  0.926395  0  0  0.108268  0  0.985188  0  0  0.111607  0  0.982373  0  0  0.131093  0.105797  0  0.987461  0
H  H20  1  0.75515679  0.09149601  0.73568076  1  0  0.416267  0  0.889577  0  0  0.38598  0  0.953186  0  0  0.396106  0  0.938047  0  0  0.288669  0.37876  0  0.963986  0
H  H21  1  0.24484679  0.59148866  0.26431715  1  0  0.416223  0  0.889639  0  0  0.385981  0  0.953183  0  0  0.396107  0  0.938044  0  0  0.288689  0.378757  0  0.963991  0
H  H22  1  0.98132147  0.40881385  0.73560017  1  0  0.415579  0  0.890573  0  0  0.385328  0  0.954106  0  0  0.395467  0  0.93895  0  0  0.289007  0.378133  0  0.964859  0
H  H23  1  0.01867447  0.90880799  0.26439725  1  0  0.415489  0  0.890698  0  0  0.385243  0  0.95422  0  0  0.395385  0  0.93906  0  0  0.288985  0.378049  0  0.964972  0
H  H24  1  0.98117324  0.10282127  0.72737897  1  0  0.417731  0  0.873353  0  0  0.390459  0  0.931087  0  0  0.399352  0  0.917885  0  0  0.297298  0.384158  0  0.940444  0
H  H25  1  0.01883044  0.60281835  0.27261999  1  0  0.417765  0  0.873306  0  0  0.39047  0  0.931075  0  0  0.399364  0  0.917872  0  0  0.297282  0.384168  0  0.940433  0
H  H26  1  0.74694039  0.39820534  0.72735188  1  0  0.416454  0  0.872899  0  0  0.389613  0  0.931697  0  0  0.398481  0  0.918516  0  0  0.297234  0.383329  0  0.941043  0
H  H27  1  0.25305546  0.89820630  0.27264750  1  0  0.416509  0  0.872805  0  0  0.389668  0  0.931616  0  0  0.398537  0  0.918435  0  0  0.297274  0.383385  0  0.940962  0
H  H28  1  0.78195523  0.88029467  0.34511814  1  0  0.399686  0  0.896604  0  0  0.369378  0  0.972939  0  0  0.381537  0  0.95938  0  0  0.30612  0.360803  0  0.982195  0
H  H29  1  0.21804940  0.38031527  0.65488218  1  0  0.399529  0  0.896607  0  0  0.369195  0  0.973003  0  0  0.381351  0  0.959595  0  0  0.306047  0.360624  0  0.982254  0
H  H30  1  0.56322519  0.62012869  0.34502745  1  0  0.399839  0  0.896806  0  0  0.36947  0  0.973175  0  0  0.381632  0  0.959355  0  0  0.305836  0.360895  0  0.982434  0
H  H31  1  0.43678161  0.12013577  0.65497430  1  0  0.399788  0  0.89686  0  0  0.369406  0  0.973237  0  0  0.381568  0  0.959436  0  0  0.305803  0.360834  0  0.982492  0
H  H32  1  0.28480609  0.64574804  0.15828614  1  0  0.094164  0  0.960651  0  0  0.104234  0  1.022488  0  0  0.107552  0  1.020014  0  0  0.104795  0.101823  0  1.024292  0
H  H33  1  0.71519647  0.14576395  0.84171447  1  0  0.094205  0  0.960693  0  0  0.104268  0  1.022527  0  0  0.107586  0  1.020051  0  0  0.104771  0.101858  0  1.024327  0
H  H34  1  0.87447910  0.85428895  0.15871541  1  0  0.093754  0  0.961346  0  0  0.103998  0  1.023069  0  0  0.107232  0  1.020658  0  0  0.104841  0.101639  0  1.024841  0
H  H35  1  0.12550890  0.35429911  0.84128531  1  0  0.093695  0  0.961243  0  0  0.103941  0  1.022973  0  0  0.107177  0  1.020558  0  0  0.104868  0.101579  0  1.02475  0
C  C36  1  0.62147383  0.75009927  0.24296014  1  0  0.672719  0  3.833916  0  0  0.615574  0  4.132568  0  0  0.649498  0  4.125345  0  0  0.23146  0.592629  0  4.136686  0
C  C37  1  0.37853412  0.25011602  0.75703977  1  0  0.672678  0  3.833695  0  0  0.615486  0  4.132383  0  0  0.649413  0  4.125157  0  0  0.231529  0.592547  0  4.136498  0
C  C38  1  0.36443563  0.69442720  0.05975379  1  0  -0.117638  0  3.743894  0  0  -0.134735  0  3.992875  0  0  -0.139681  0  4.014766  0  0  -0.089306  -0.131456  0  3.977939  0
C  C39  1  0.63556139  0.19443390  0.94024772  1  0  -0.117635  0  3.744001  0  0  -0.134773  0  3.992948  0  0  -0.139719  0  4.014836  0  0  -0.089341  -0.131496  0  3.978012  0
C  C40  1  0.69752519  0.80488662  0.06001245  1  0  -0.11986  0  3.744904  0  0  -0.136985  0  3.993755  0  0  -0.142043  0  4.015628  0  0  -0.089852  -0.133631  0  3.978835  0
C  C41  1  0.30247878  0.30490224  0.93998698  1  0  -0.119952  0  3.744819  0  0  -0.137105  0  3.993597  0  0  -0.142165  0  4.015471  0  0  -0.089819  -0.13374  0  3.978663  0
C  C42  1  0.36555643  0.74988657  0.72884904  1  0  0.675425  0  3.880645  0  0  0.632049  0  4.171118  0  0  0.665626  0  4.164577  0  0  0.205422  0.609338  0  4.174431  0
C  C43  1  0.63444406  0.24985558  0.27115244  1  0  0.675474  0  3.880586  0  0  0.632057  0  4.171164  0  0  0.665639  0  4.164615  0  0  0.205481  0.609342  0  4.174479  0
C  C44  1  0.40377902  0.74976394  0.80451274  1  0  -0.068896  0  3.748165  0  0  -0.048626  0  3.984429  0  0  -0.058177  0  4.008267  0  0  -0.016422  -0.042549  0  3.968526  0
C  C45  1  0.59621553  0.24974630  0.19548587  1  0  -0.06881  0  3.748194  0  0  -0.048635  0  3.984631  0  0  -0.05819  0  4.008471  0  0  -0.016362  -0.042539  0  3.968694  0
C  C46  1  0.81271947  0.81297658  0.44408198  1  0  0.056728  0  3.601161  0  0  0.033717  0  3.847954  0  0  0.034942  0  3.853803  0  0  0.00399  0.032697  0  3.844139  0
C  C47  1  0.18727711  0.31297382  0.55591805  1  0  0.056542  0  3.601456  0  0  0.033541  0  3.848016  0  0  0.034769  0  3.853854  0  0  0.003944  0.032516  0  3.844202  0
C  C48  1  0.63158666  0.68747157  0.44399834  1  0  0.057821  0  3.600108  0  0  0.03087  0  3.850829  0  0  0.031899  0  3.857012  0  0  0.005052  0.029907  0  3.846985  0
C  C49  1  0.36840882  0.18747109  0.55599953  1  0  0.057474  0  3.600819  0  0  0.030903  0  3.850926  0  0  0.031949  0  3.857106  0  0  0.005008  0.029941  0  3.847084  0
C  C50  1  0.25355010  0.80364661  0.84032478  1  0  -0.055306  0  3.715275  0  0  -0.079058  0  3.961309  0  0  -0.077598  0  3.981611  0  0  -0.076677  -0.079716  0  3.94745  0
C  C51  1  0.74644192  0.30364191  0.15967694  1  0  -0.055253  0  3.715251  0  0  -0.078936  0  3.961297  0  0  -0.077462  0  3.981588  0  0  -0.076666  -0.079589  0  3.947421  0
C  C52  1  0.58989527  0.69576658  0.84036643  1  0  -0.053144  0  3.715835  0  0  -0.076337  0  3.96168  0  0  -0.074917  0  3.981924  0  0  -0.075255  -0.076982  0  3.94789  0
C  C53  1  0.41009730  0.19575880  0.15963381  1  0  -0.053206  0  3.715804  0  0  -0.076391  0  3.961647  0  0  -0.074973  0  3.981895  0  0  -0.075197  -0.077036  0  3.947852  0
C  C54  1  0.47551471  0.74943725  0.94788766  1  0  0.06021  0  3.78258  0  0  0.07304  0  4.01732  0  0  0.074768  0  4.041416  0  0  -0.000812  0.072051  0  4.000825  0
C  C55  1  0.52447684  0.24943991  0.05211228  1  0  0.060406  0  3.782588  0  0  0.073155  0  4.017352  0  0  0.074883  0  4.041448  0  0  -0.000789  0.072165  0  4.000854  0
C  C56  1  0.29002727  0.80397706  0.91123584  1  0  -0.11521  0  3.744689  0  0  -0.132764  0  3.993729  0  0  -0.13815  0  4.016194  0  0  -0.088135  -0.129192  0  3.978391  0
C  C57  1  0.70996178  0.30398320  0.08876471  1  0  -0.115384  0  3.744659  0  0  -0.132955  0  3.993691  0  0  -0.138342  0  4.016152  0  0  -0.08824  -0.129374  0  3.978368  0
C  C58  1  0.62439737  0.69515606  0.91128714  1  0  -0.116454  0  3.743964  0  0  -0.134602  0  3.993148  0  0  -0.140011  0  4.015657  0  0  -0.089166  -0.131011  0  3.977793  0
C  C59  1  0.37559520  0.19515646  0.08871109  1  0  -0.116431  0  3.74409  0  0  -0.134548  0  3.99329  0  0  -0.139954  0  4.015797  0  0  -0.089181  -0.130959  0  3.977938  0
C  C60  1  0.51281674  0.74950766  0.02309855  1  0  0.067372  0  3.770191  0  0  0.078998  0  4.004992  0  0  0.080913  0  4.028161  0  0  0.000216  0.077852  0  3.989148  0
C  C61  1  0.48717928  0.24951744  0.97690115  1  0  0.0673  0  3.770266  0  0  0.079068  0  4.004876  0  0  0.080983  0  4.028043  0  0  0.000222  0.077922  0  3.98903  0
C  C62  1  0.86305399  0.91394547  0.51126011  1  0  0.706167  0  3.828083  0  0  0.654575  0  4.134633  0  0  0.688823  0  4.124943  0  0  0.237364  0.631152  0  4.140482  0
C  C63  1  0.13695840  0.41394027  0.48873781  1  0  0.706358  0  3.827875  0  0  0.654809  0  4.134308  0  0  0.689059  0  4.124613  0  0  0.237464  0.631387  0  4.140153  0
C  C64  1  0.64840041  0.58653036  0.51116199  1  0  0.705233  0  3.829569  0  0  0.655457  0  4.134949  0  0  0.689637  0  4.125385  0  0  0.237235  0.632105  0  4.140686  0
C  C65  1  0.35160165  0.08653028  0.48883530  1  0  0.704909  0  3.829953  0  0  0.655061  0  4.135325  0  0  0.689208  0  4.125823  0  0  0.237067  0.631708  0  4.141057  0
C  C66  1  0.58384606  0.75000865  0.16700355  1  0  -0.087161  0  3.776838  0  0  -0.068522  0  4.02141  0  0  -0.07835  0  4.046744  0  0  -0.022017  -0.062164  0  4.004313  0
C  C67  1  0.41615146  0.25002272  0.83299675  1  0  -0.087018  0  3.776775  0  0  -0.06839  0  4.021355  0  0  -0.078223  0  4.046694  0  0  -0.022007  -0.062036  0  4.004256  0
C  C68  1  0.39951324  0.69315295  0.13064540  1  0  -0.048545  0  3.736899  0  0  -0.072919  0  3.984836  0  0  -0.071753  0  4.005829  0  0  -0.076805  -0.073394  0  3.970495  0
C  C69  1  0.60048228  0.19316250  0.86935602  1  0  -0.048692  0  3.737012  0  0  -0.073064  0  3.984944  0  0  -0.071898  0  4.005942  0  0  -0.076798  -0.073537  0  3.970598  0
C  C70  1  0.73236883  0.80662716  0.13089818  1  0  -0.049472  0  3.7386  0  0  -0.073977  0  3.986872  0  0  -0.072748  0  4.007949  0  0  -0.078239  -0.074491  0  3.972446  0
C  C71  1  0.26762771  0.30664563  0.86909980  1  0  -0.049294  0  3.738374  0  0  -0.073794  0  3.986637  0  0  -0.072564  0  4.007717  0  0  -0.078204  -0.074309  0  3.972206  0
O  O72  1  0.79573991  0.79023355  0.27500900  1  0  -0.643176  0  2.018208  0  0  -0.571597  0  2.229932  0  0  -0.597638  0  2.219342  0  0  -0.300471  -0.553512  0  2.236806  0
O  O73  1  0.20426989  0.29024702  0.72499070  1  0  -0.643174  0  2.018211  0  0  -0.571584  0  2.229974  0  0  -0.597617  0  2.2194  0  0  -0.300516  -0.553501  0  2.236848  0
O  O74  1  0.47899567  0.71002476  0.27482674  1  0  -0.645757  0  2.017746  0  0  -0.573774  0  2.22936  0  0  -0.599747  0  2.218632  0  0  -0.301512  -0.555677  0  2.236258  0
O  O75  1  0.52101937  0.21003988  0.72517441  1  0  -0.645826  0  2.017675  0  0  -0.573744  0  2.229237  0  0  -0.599718  0  2.218511  0  0  -0.301562  -0.555656  0  2.236139  0
O  O76  1  0.18702192  0.76317893  0.69590228  1  0  -0.735368  0  1.988492  0  0  -0.693437  0  2.23568  0  0  -0.718366  0  2.224998  0  0  -0.441116  -0.675573  0  2.242611  0
O  O77  1  0.81298316  0.26315393  0.30409953  1  0  -0.735337  0  1.988502  0  0  -0.693362  0  2.235698  0  0  -0.71829  0  2.225019  0  0  -0.441066  -0.675501  0  2.242633  0
O  O78  1  0.51061229  0.73666369  0.69572755  1  0  -0.736505  0  1.987782  0  0  -0.694745  0  2.235435  0  0  -0.71972  0  2.224856  0  0  -0.441862  -0.676849  0  2.242299  0
O  O79  1  0.48939703  0.23662502  0.30427389  1  0  -0.73652  0  1.987788  0  0  -0.694707  0  2.235433  0  0  -0.719677  0  2.224852  0  0  -0.44196  -0.676816  0  2.242305  0
O  O80  1  0.80246887  0.07256008  0.51268063  1  0  -0.654922  0  2.038256  0  0  -0.607968  0  2.282455  0  0  -0.633506  0  2.271779  0  0  -0.361808  -0.589851  0  2.28964  0
O  O81  1  0.19754645  0.57255705  0.48732089  1  0  -0.655021  0  2.038235  0  0  -0.608102  0  2.282397  0  0  -0.633657  0  2.271734  0  0  -0.361819  -0.589986  0  2.289581  0
O  O82  1  0.71040253  0.42789924  0.51264329  1  0  -0.654954  0  2.038448  0  0  -0.608658  0  2.282372  0  0  -0.634104  0  2.27164  0  0  -0.36196  -0.590597  0  2.289571  0
O  O83  1  0.28960994  0.92787803  0.48736174  1  0  -0.654718  0  2.03817  0  0  -0.60846  0  2.282132  0  0  -0.633901  0  2.271419  0  0  -0.361839  -0.590395  0  2.289326  0
O  O84  1  0.77146772  0.94122038  0.39035610  1  0  -0.653699  0  2.180274  0  0  -0.609416  0  2.428019  0  0  -0.627543  0  2.413796  0  0  -0.447985  -0.595892  0  2.437591  0
O  O85  1  0.22851807  0.44122890  0.60964238  1  0  -0.653451  0  2.180189  0  0  -0.609179  0  2.427906  0  0  -0.627314  0  2.413813  0  0  -0.447911  -0.595655  0  2.437476  0
O  O86  1  0.61913907  0.55931386  0.39027164  1  0  -0.654212  0  2.180222  0  0  -0.60908  0  2.428972  0  0  -0.627151  0  2.414623  0  0  -0.448549  -0.595582  0  2.438532  0
O  O87  1  0.38087316  0.05931652  0.60972914  1  0  -0.653949  0  2.180311  0  0  -0.608933  0  2.428935  0  0  -0.627011  0  2.414598  0  0  -0.44845  -0.595433  0  2.438495  0
O  O88  1  0.87584779  0.01995555  0.73460688  1  0  -0.8698  0  1.762884  0  0  -0.831452  0  1.919924  0  0  -0.845892  0  1.888646  0  0  -0.653226  -0.82114  0  1.942  0
O  O89  1  0.12415367  0.51995160  0.26539258  1  0  -0.869818  0  1.762921  0  0  -0.831465  0  1.919945  0  0  -0.845905  0  1.888668  0  0  -0.653218  -0.821155  0  1.942032  0
O  O90  1  0.85982301  0.48070614  0.73464120  1  0  -0.867607  0  1.764305  0  0  -0.829644  0  1.921864  0  0  -0.84402  0  1.890587  0  0  -0.653187  -0.819401  0  1.943893  0
O  O91  1  0.14017059  0.98070227  0.26535541  1  0  -0.867574  0  1.764329  0  0  -0.8296  0  1.921873  0  0  -0.843978  0  1.890601  0  0  -0.653198  -0.819362  0  1.943911  0
O  O92  1  0.96233494  0.83351469  0.56255485  1  0  -0.759271  0  2.078157  0  0  -0.722527  0  2.348487  0  0  -0.747668  0  2.333546  0  0  -0.433302  -0.704254  0  2.358534  0
O  O93  1  0.03768122  0.33350997  0.43744091  1  0  -0.759327  0  2.078025  0  0  -0.722608  0  2.348336  0  0  -0.747741  0  2.333394  0  0  -0.433391  -0.70434  0  2.358384  0
O  O94  1  0.60039753  0.66700959  0.56240379  1  0  -0.759008  0  2.079786  0  0  -0.722524  0  2.349378  0  0  -0.74764  0  2.334494  0  0  -0.433025  -0.70426  0  2.359364  0
O  O95  1  0.39959926  0.16699343  0.43759557  1  0  -0.758694  0  2.080109  0  0  -0.72221  0  2.349725  0  0  -0.747311  0  2.334872  0  0  -0.432908  -0.703952  0  2.359707  0
