# generated using pymatgen
data_CdH16C20S4(N2Cl)2
_symmetry_space_group_name_H-M   'P 1'
_cell_length_a   7.54669221
_cell_length_b   9.20839261
_cell_length_c   18.18170012
_cell_angle_alpha   89.99946208
_cell_angle_beta   90.00011421
_cell_angle_gamma   99.80334791
_symmetry_Int_Tables_number   1
_chemical_formula_structural   CdH16C20S4(N2Cl)2
_chemical_formula_sum   'Cd2 H32 C40 S8 N8 Cl4'
_cell_volume   1245.04947925
_cell_formula_units_Z   2
loop_
 _symmetry_equiv_pos_site_id
 _symmetry_equiv_pos_as_xyz
  1  'x, y, z'
loop_
 _atom_site_type_symbol
 _atom_site_label
 _atom_site_symmetry_multiplicity
 _atom_site_fract_x
 _atom_site_fract_y
 _atom_site_fract_z
 _atom_site_occupancy
 _atom_site_hle17_bader_spin_density
 _atom_site_hle17_ddec_charge
 _atom_site_hle17_ddec_spin_density
 _atom_site_hle17_ddec_sum_bond_order
 _atom_site_hle17_magmom
 _atom_site_hse06_10hf_bader_spin_density
 _atom_site_hse06_10hf_ddec_charge
 _atom_site_hse06_10hf_ddec_spin_density
 _atom_site_hse06_10hf_ddec_sum_bond_order
 _atom_site_hse06_10hf_magmom
 _atom_site_hse06_bader_spin_density
 _atom_site_hse06_ddec_charge
 _atom_site_hse06_ddec_spin_density
 _atom_site_hse06_ddec_sum_bond_order
 _atom_site_hse06_magmom
 _atom_site_pbe_bader_spin_density
 _atom_site_pbe_cm5_charge
 _atom_site_pbe_ddec_charge
 _atom_site_pbe_ddec_spin_density
 _atom_site_pbe_ddec_sum_bond_order
 _atom_site_pbe_magmom
Cd  Cd0  1  0.99999958  0.99999858  0.49999981  1  0  0.928038  0  1.927702  0  0  0.73132  0  2.388307  0  0  0.779737  0  2.350655  0  0  0.663498  0.697598  0  2.41346  0
Cd  Cd1  1  0.00000068  0.50000125  0.99999935  1  0  0.928022  0  1.927674  0  0  0.731297  0  2.388307  0  0  0.779713  0  2.350656  0  0  0.663485  0.697577  0  2.413453  0
H  H2  1  0.58695469  0.88614423  0.55043400  1  0  0.074725  0  0.987737  0  0  0.080109  0  1.060598  0  0  0.082713  0  1.057482  0  0  0.096078  0.078142  0  1.062933  0
H  H3  1  0.58695418  0.38614672  0.94956949  1  0  0.074692  0  0.987771  0  0  0.080135  0  1.060548  0  0  0.082739  0  1.057434  0  0  0.0961  0.078168  0  1.062881  0
H  H4  1  0.41304550  0.11385364  0.44956842  1  0  0.074705  0  0.987787  0  0  0.080117  0  1.060599  0  0  0.082719  0  1.057492  0  0  0.096082  0.078152  0  1.062928  0
H  H5  1  0.41304468  0.61385116  0.05043128  1  0  0.074731  0  0.987686  0  0  0.080136  0  1.060489  0  0  0.082737  0  1.057387  0  0  0.096124  0.078174  0  1.062811  0
H  H6  1  0.37651189  0.66676991  0.59671119  1  0  0.101298  0  0.985187  0  0  0.105921  0  1.055344  0  0  0.109234  0  1.054899  0  0  0.094309  0.103526  0  1.055834  0
H  H7  1  0.37651157  0.16677435  0.90328933  1  0  0.10133  0  0.985187  0  0  0.105947  0  1.055338  0  0  0.109267  0  1.05489  0  0  0.094336  0.103554  0  1.055827  0
H  H8  1  0.62348542  0.33322688  0.40328794  1  0  0.101312  0  0.985261  0  0  0.105949  0  1.055392  0  0  0.109256  0  1.054954  0  0  0.094336  0.103558  0  1.055879  0
H  H9  1  0.62348885  0.83322463  0.09671255  1  0  0.101396  0  0.985108  0  0  0.105957  0  1.055314  0  0  0.109304  0  1.054841  0  0  0.094365  0.103564  0  1.055807  0
H  H10  1  0.81339481  0.41910323  0.57700369  1  0  0.112522  0  0.995983  0  0  0.117549  0  1.067043  0  0  0.121785  0  1.064329  0  0  0.088199  0.114448  0  1.069262  0
H  H11  1  0.81339629  0.91910936  0.92299379  1  0  0.112528  0  0.996124  0  0  0.117568  0  1.067156  0  0  0.121807  0  1.064439  0  0  0.088172  0.114465  0  1.069379  0
H  H12  1  0.18660358  0.58089245  0.42299489  1  0  0.112511  0  0.996102  0  0  0.117551  0  1.067134  0  0  0.121791  0  1.064417  0  0  0.088172  0.114451  0  1.06935  0
H  H13  1  0.18660304  0.08089073  0.07700699  1  0  0.112533  0  0.996059  0  0  0.117567  0  1.0671  0  0  0.121807  0  1.064381  0  0  0.088195  0.114468  0  1.069317  0
H  H14  1  0.00880541  0.65469423  0.53604017  1  0  0.073842  0  0.971015  0  0  0.078267  0  1.044449  0  0  0.080912  0  1.04193  0  0  0.098992  0.076335  0  1.046271  0
H  H15  1  0.00880804  0.15469865  0.96395899  1  0  0.073834  0  0.971003  0  0  0.078276  0  1.044402  0  0  0.080919  0  1.041885  0  0  0.098986  0.076341  0  1.046231  0
H  H16  1  0.99119274  0.34530035  0.46396006  1  0  0.073835  0  0.971061  0  0  0.078263  0  1.04447  0  0  0.080906  0  1.041955  0  0  0.098977  0.076328  0  1.04629  0
H  H17  1  0.99119129  0.84530144  0.03604288  1  0  0.07384  0  0.970953  0  0  0.078268  0  1.044395  0  0  0.080914  0  1.041875  0  0  0.098982  0.076338  0  1.046225  0
H  H18  1  0.90450791  0.48731673  0.70834552  1  0  0.109468  0  0.961065  0  0  0.120179  0  1.019534  0  0  0.123197  0  1.019164  0  0  0.102226  0.118031  0  1.019941  0
H  H19  1  0.90450857  0.98732195  0.79165501  1  0  0.109483  0  0.961093  0  0  0.120188  0  1.019562  0  0  0.123206  0  1.019191  0  0  0.102229  0.118041  0  1.01997  0
H  H20  1  0.09549119  0.51268226  0.29165471  1  0  0.109425  0  0.961087  0  0  0.120165  0  1.019532  0  0  0.123182  0  1.019162  0  0  0.102238  0.118019  0  1.019939  0
H  H21  1  0.09549232  0.01267923  0.20834521  1  0  0.109486  0  0.961095  0  0  0.120205  0  1.019552  0  0  0.123223  0  1.01918  0  0  0.102228  0.118054  0  1.019962  0
H  H22  1  0.85439622  0.54293224  0.84107112  1  0  0.076894  0  0.962058  0  0  0.084109  0  1.028327  0  0  0.087076  0  1.025063  0  0  0.10194  0.081937  0  1.030669  0
H  H23  1  0.85439164  0.04293456  0.65892819  1  0  0.076839  0  0.96212  0  0  0.084055  0  1.028401  0  0  0.087022  0  1.025135  0  0  0.101899  0.08188  0  1.030746  0
H  H24  1  0.14560732  0.45706893  0.15892910  1  0  0.076896  0  0.962076  0  0  0.084091  0  1.028369  0  0  0.08706  0  1.025102  0  0  0.101909  0.081918  0  1.030711  0
H  H25  1  0.14561090  0.95707434  0.34107204  1  0  0.076869  0  0.962048  0  0  0.084052  0  1.028363  0  0  0.087018  0  1.025101  0  0  0.101886  0.081878  0  1.03071  0
H  H26  1  0.36778626  0.48553065  0.89819883  1  0  0.082166  0  0.951894  0  0  0.087789  0  1.022243  0  0  0.090111  0  1.01963  0  0  0.107347  0.086022  0  1.024207  0
H  H27  1  0.36777778  0.98552836  0.60179906  1  0  0.082136  0  0.951979  0  0  0.087768  0  1.022305  0  0  0.09009  0  1.019693  0  0  0.107341  0.086003  0  1.024265  0
H  H28  1  0.63221883  0.51447162  0.10179920  1  0  0.082143  0  0.951957  0  0  0.087771  0  1.02229  0  0  0.090093  0  1.019677  0  0  0.107352  0.086005  0  1.024255  0
H  H29  1  0.63222117  0.01447614  0.39819952  1  0  0.082186  0  0.951946  0  0  0.08781  0  1.022276  0  0  0.090132  0  1.019663  0  0  0.107365  0.086043  0  1.024241  0
H  H30  1  0.44422241  0.43061891  0.76799445  1  0  0.103853  0  0.968789  0  0  0.110959  0  1.031773  0  0  0.114588  0  1.030805  0  0  0.098477  0.108396  0  1.032544  0
H  H31  1  0.44421966  0.93062193  0.73200377  1  0  0.103841  0  0.968746  0  0  0.110937  0  1.031752  0  0  0.114565  0  1.030787  0  0  0.098472  0.108372  0  1.032519  0
H  H32  1  0.55577825  0.56938118  0.23200248  1  0  0.103869  0  0.968788  0  0  0.110985  0  1.031756  0  0  0.114612  0  1.03079  0  0  0.098516  0.108425  0  1.032528  0
H  H33  1  0.55578147  0.06938036  0.26799371  1  0  0.103839  0  0.968773  0  0  0.110923  0  1.031788  0  0  0.114552  0  1.030823  0  0  0.098459  0.10836  0  1.032557  0
C  C34  1  0.63301392  0.78154738  0.55957258  1  0  0.134804  0  3.728056  0  0  0.103973  0  3.979086  0  0  0.111971  0  3.9969  0  0  0.037715  0.098816  0  3.966988  0
C  C35  1  0.63301450  0.28154894  0.94043035  1  0  0.134851  0  3.728032  0  0  0.104011  0  3.97902  0  0  0.112009  0  3.996843  0  0  0.037737  0.09886  0  3.966917  0
C  C36  1  0.36698782  0.21845159  0.44042984  1  0  0.134823  0  3.728045  0  0  0.103997  0  3.979034  0  0  0.111995  0  3.996857  0  0  0.037731  0.098841  0  3.966942  0
C  C37  1  0.36698460  0.71845005  0.05957152  1  0  0.134749  0  3.728051  0  0  0.103948  0  3.979036  0  0  0.111942  0  3.996859  0  0  0.037692  0.098798  0  3.966931  0
C  C38  1  0.51630484  0.65895540  0.58554949  1  0  -0.174101  0  3.758321  0  0  -0.190144  0  4.004765  0  0  -0.198995  0  4.026975  0  0  -0.099411  -0.18442  0  3.989921  0
C  C39  1  0.51630430  0.15895854  0.91445228  1  0  -0.174063  0  3.758435  0  0  -0.190103  0  4.004858  0  0  -0.198967  0  4.027079  0  0  -0.099408  -0.184383  0  3.990017  0
C  C40  1  0.48369511  0.34104137  0.41445128  1  0  -0.174115  0  3.758463  0  0  -0.190164  0  4.004894  0  0  -0.199017  0  4.027124  0  0  -0.099441  -0.184447  0  3.99006  0
C  C41  1  0.48369456  0.84103935  0.08555015  1  0  -0.174217  0  3.758375  0  0  -0.190185  0  4.004822  0  0  -0.199072  0  4.027018  0  0  -0.099458  -0.184463  0  3.989986  0
C  C42  1  0.58071251  0.52633637  0.59315529  1  0  0.086709  0  3.772384  0  0  0.103005  0  4.02489  0  0  0.109272  0  4.046375  0  0  0.000991  0.09892  0  4.010256  0
C  C43  1  0.58071352  0.02634074  0.90684552  1  0  0.086628  0  3.772406  0  0  0.102926  0  4.024907  0  0  0.109191  0  4.046396  0  0  0.000936  0.09884  0  4.010274  0
C  C44  1  0.41928480  0.47366041  0.40684549  1  0  0.086702  0  3.772369  0  0  0.10297  0  4.024918  0  0  0.109235  0  4.046406  0  0  0.000937  0.098882  0  4.01029  0
C  C45  1  0.41928534  0.97365714  0.09315690  1  0  0.086774  0  3.772376  0  0  0.103015  0  4.024945  0  0  0.10928  0  4.046438  0  0  0.000953  0.098928  0  4.010314  0
C  C46  1  0.76089014  0.52248550  0.57492386  1  0  -0.183343  0  3.727928  0  0  -0.198209  0  3.975915  0  0  -0.206601  0  3.995649  0  0  -0.103497  -0.192805  0  3.962856  0
C  C47  1  0.76089250  0.02248953  0.92507547  1  0  -0.183325  0  3.728  0  0  -0.198199  0  3.97596  0  0  -0.206592  0  3.995693  0  0  -0.103461  -0.192792  0  3.962907  0
C  C48  1  0.23910981  0.47751128  0.42507582  1  0  -0.183363  0  3.72805  0  0  -0.198231  0  3.97602  0  0  -0.206626  0  3.995756  0  0  -0.103471  -0.192828  0  3.962962  0
C  C49  1  0.23910769  0.97750835  0.07492695  1  0  -0.183354  0  3.727833  0  0  -0.198204  0  3.975835  0  0  -0.206596  0  3.995564  0  0  -0.103468  -0.192796  0  3.96278  0
C  C50  1  0.86789813  0.65166858  0.55087469  1  0  0.123631  0  3.735323  0  0  0.095132  0  3.987553  0  0  0.102885  0  4.005204  0  0  0.032402  0.090152  0  3.975492  0
C  C51  1  0.86789919  0.15167218  0.94912577  1  0  0.123706  0  3.73521  0  0  0.095207  0  3.987437  0  0  0.102963  0  4.005094  0  0  0.032469  0.090226  0  3.975385  0
C  C52  1  0.13210050  0.34832820  0.44912664  1  0  0.123759  0  3.735209  0  0  0.095272  0  3.987418  0  0  0.103029  0  4.005078  0  0  0.032509  0.090296  0  3.975353  0
C  C53  1  0.13209991  0.84832680  0.05087666  1  0  0.123702  0  3.735087  0  0  0.095195  0  3.987338  0  0  0.102948  0  4.004991  0  0  0.032444  0.090208  0  3.975292  0
C  C54  1  0.17866941  0.45181998  0.72799417  1  0  0.089561  0  3.789587  0  0  0.104243  0  4.044853  0  0  0.111058  0  4.065982  0  0  0.002757  0.099759  0  4.030462  0
C  C55  1  0.17866802  0.95182227  0.77200426  1  0  0.089585  0  3.789626  0  0  0.104242  0  4.04493  0  0  0.111048  0  4.066075  0  0  0.00277  0.099761  0  4.030536  0
C  C56  1  0.82132992  0.54818010  0.27200385  1  0  0.089437  0  3.789787  0  0  0.104089  0  4.045126  0  0  0.110893  0  4.066274  0  0  0.002676  0.099607  0  4.030739  0
C  C57  1  0.82133287  0.04817892  0.22799431  1  0  0.089581  0  3.789602  0  0  0.104264  0  4.044865  0  0  0.111079  0  4.065993  0  0  0.002771  0.099783  0  4.030471  0
C  C58  1  0.01091991  0.48541661  0.74872256  1  0  -0.17126  0  3.720616  0  0  -0.182645  0  3.959414  0  0  -0.190858  0  3.979543  0  0  -0.096297  -0.177372  0  3.94596  0
C  C59  1  0.01091851  0.98541927  0.75127723  1  0  -0.171304  0  3.720658  0  0  -0.182666  0  3.959476  0  0  -0.190877  0  3.979607  0  0  -0.096317  -0.177396  0  3.946022  0
C  C60  1  0.98907965  0.51458458  0.25127712  1  0  -0.171171  0  3.720558  0  0  -0.182562  0  3.959374  0  0  -0.19077  0  3.979505  0  0  -0.0963  -0.177285  0  3.945918  0
C  C61  1  0.98908394  0.01458301  0.24872245  1  0  -0.171337  0  3.720603  0  0  -0.182724  0  3.959409  0  0  -0.190936  0  3.979536  0  0  -0.096337  -0.177446  0  3.945953  0
C  C62  1  0.98204880  0.51539402  0.82210162  1  0  0.133946  0  3.737519  0  0  0.103056  0  3.989732  0  0  0.110922  0  4.007188  0  0  0.038396  0.097966  0  3.977857  0
C  C63  1  0.98204399  0.01539488  0.67789793  1  0  0.134011  0  3.737702  0  0  0.103092  0  3.989952  0  0  0.110961  0  4.007403  0  0  0.038427  0.098004  0  3.978073  0
C  C64  1  0.01795474  0.48460716  0.17789750  1  0  0.133905  0  3.737541  0  0  0.10301  0  3.989801  0  0  0.110878  0  4.007249  0  0  0.038404  0.097918  0  3.977921  0
C  C65  1  0.01795784  0.98461071  0.32210230  1  0  0.134029  0  3.737636  0  0  0.103135  0  3.989885  0  0  0.111  0  4.007342  0  0  0.038451  0.098043  0  3.978013  0
C  C66  1  0.26929520  0.48466913  0.85418255  1  0  0.139482  0  3.715863  0  0  0.110265  0  3.969281  0  0  0.118832  0  3.986151  0  0  0.042588  0.104697  0  3.957858  0
C  C67  1  0.26928855  0.98466823  0.64581580  1  0  0.139522  0  3.715765  0  0  0.11031  0  3.969172  0  0  0.118876  0  3.986039  0  0  0.042643  0.104747  0  3.957741  0
C  C68  1  0.73070857  0.51533314  0.14581547  1  0  0.139535  0  3.715915  0  0  0.110317  0  3.96934  0  0  0.118882  0  3.986206  0  0  0.042605  0.104751  0  3.957911  0
C  C69  1  0.73071016  0.01533517  0.35418277  1  0  0.139514  0  3.715928  0  0  0.110305  0  3.969328  0  0  0.118874  0  3.986194  0  0  0.042641  0.104742  0  3.9579  0
C  C70  1  0.31157602  0.45445602  0.78181702  1  0  -0.177075  0  3.74579  0  0  -0.191361  0  3.98794  0  0  -0.200089  0  4.008859  0  0  -0.098302  -0.185729  0  3.973921  0
C  C71  1  0.31157146  0.95445709  0.71818206  1  0  -0.176945  0  3.74572  0  0  -0.191227  0  3.987896  0  0  -0.19995  0  4.008817  0  0  -0.098243  -0.185596  0  3.973872  0
C  C72  1  0.68842643  0.54554626  0.21818100  1  0  -0.176945  0  3.7459  0  0  -0.191244  0  3.988075  0  0  -0.199966  0  4.008995  0  0  -0.098256  -0.185618  0  3.974065  0
C  C73  1  0.68842966  0.04554520  0.28181651  1  0  -0.177023  0  3.74583  0  0  -0.191304  0  3.988003  0  0  -0.200031  0  4.008922  0  0  -0.09828  -0.185675  0  3.973982  0
S  S74  1  0.44968472  0.35746871  0.62171402  1  0  0.04892  0  2.458622  0  0  0.048614  0  2.814507  0  0  0.046313  0  2.814681  0  0  0.066627  0.05033  0  2.814307  0
S  S75  1  0.44968725  0.85747454  0.87828564  1  0  0.048867  0  2.458595  0  0  0.048559  0  2.81448  0  0  0.04626  0  2.814652  0  0  0.066601  0.050283  0  2.814275  0
S  S76  1  0.55031235  0.64252698  0.37828455  1  0  0.048868  0  2.458593  0  0  0.048564  0  2.814499  0  0  0.046266  0  2.81467  0  0  0.066625  0.050287  0  2.814303  0
S  S77  1  0.55031317  0.14252444  0.12171403  1  0  0.048828  0  2.458661  0  0  0.048539  0  2.814566  0  0  0.04624  0  2.814739  0  0  0.06662  0.050262  0  2.814369  0
S  S78  1  0.19793791  0.40359719  0.63473129  1  0  0.038722  0  2.488891  0  0  0.036734  0  2.853409  0  0  0.03303  0  2.854652  0  0  0.067849  0.039503  0  2.852462  0
S  S79  1  0.19793840  0.90359996  0.86526849  1  0  0.0387  0  2.48888  0  0  0.036715  0  2.853418  0  0  0.033015  0  2.854663  0  0  0.067834  0.03948  0  2.852475  0
S  S80  1  0.80205963  0.59640070  0.36526728  1  0  0.038744  0  2.488895  0  0  0.036755  0  2.853445  0  0  0.033057  0  2.854688  0  0  0.067848  0.039525  0  2.852508  0
S  S81  1  0.80206046  0.09639792  0.13473008  1  0  0.038726  0  2.488951  0  0  0.036746  0  2.85345  0  0  0.033042  0  2.854699  0  0  0.067832  0.039512  0  2.852512  0
N  N82  1  0.80610060  0.77955579  0.54302910  1  0  -0.333378  0  3.258414  0  0  -0.260434  0  3.522704  0  0  -0.27941  0  3.541735  0  0  -0.334983  -0.247502  0  3.509274  0
N  N83  1  0.80610119  0.27955704  0.95697289  1  0  -0.333477  0  3.258425  0  0  -0.260585  0  3.522802  0  0  -0.279538  0  3.541771  0  0  -0.335057  -0.247642  0  3.509347  0
N  N84  1  0.19389935  0.22044098  0.45697277  1  0  -0.33345  0  3.258335  0  0  -0.260559  0  3.522719  0  0  -0.279505  0  3.541667  0  0  -0.335045  -0.24761  0  3.509251  0
N  N85  1  0.19389791  0.72044194  0.04302954  1  0  -0.333386  0  3.258389  0  0  -0.260477  0  3.522715  0  0  -0.27944  0  3.541714  0  0  -0.335009  -0.247542  0  3.509279  0
N  N86  1  0.10742620  0.51298631  0.87449515  1  0  -0.335821  0  3.267595  0  0  -0.265851  0  3.537035  0  0  -0.285028  0  3.556461  0  0  -0.334085  -0.252887  0  3.523581  0
N  N87  1  0.10741667  0.01298484  0.62550368  1  0  -0.335932  0  3.267695  0  0  -0.265946  0  3.537123  0  0  -0.285125  0  3.556554  0  0  -0.334155  -0.252976  0  3.523657  0
N  N88  1  0.89257913  0.48701706  0.12550398  1  0  -0.335899  0  3.267726  0  0  -0.265894  0  3.5371  0  0  -0.285079  0  3.556548  0  0  -0.334087  -0.252922  0  3.523633  0
N  N89  1  0.89258228  0.98701966  0.37449600  1  0  -0.335952  0  3.267859  0  0  -0.265943  0  3.537241  0  0  -0.285125  0  3.556682  0  0  -0.334133  -0.252972  0  3.523775  0
Cl  Cl90  1  0.75183298  0.15279223  0.53627433  1  0  -0.619545  0  0.846014  0  0  -0.566878  0  1.107238  0  0  -0.582756  0  1.087872  0  0  -0.342062  -0.555044  0  1.120451  0
Cl  Cl91  1  0.75183667  0.65279539  0.96372436  1  0  -0.61954  0  0.846017  0  0  -0.566891  0  1.107247  0  0  -0.582769  0  1.087884  0  0  -0.342061  -0.555055  0  1.120463  0
Cl  Cl92  1  0.24816612  0.84720676  0.46372479  1  0  -0.619551  0  0.846007  0  0  -0.566882  0  1.107226  0  0  -0.582761  0  1.08786  0  0  -0.342067  -0.55505  0  1.12044  0
Cl  Cl93  1  0.24816399  0.34720469  0.03627586  1  0  -0.619531  0  0.845995  0  0  -0.566877  0  1.107222  0  0  -0.582755  0  1.087858  0  0  -0.342063  -0.555044  0  1.120433  0
