# generated using pymatgen
data_ZnH8C8(O2F)4
_symmetry_space_group_name_H-M   'P 1'
_cell_length_a   6.42818666
_cell_length_b   6.15599057
_cell_length_c   8.96279331
_cell_angle_alpha   88.63659958
_cell_angle_beta   68.73832823
_cell_angle_gamma   102.57719953
_symmetry_Int_Tables_number   1
_chemical_formula_structural   ZnH8C8(O2F)4
_chemical_formula_sum   'Zn1 H8 C8 O8 F4'
_cell_volume   320.53617013
_cell_formula_units_Z   1
loop_
 _symmetry_equiv_pos_site_id
 _symmetry_equiv_pos_as_xyz
  1  'x, y, z'
loop_
 _atom_site_type_symbol
 _atom_site_label
 _atom_site_symmetry_multiplicity
 _atom_site_fract_x
 _atom_site_fract_y
 _atom_site_fract_z
 _atom_site_occupancy
 _atom_site_hle17_bader_spin_density
 _atom_site_hle17_ddec_charge
 _atom_site_hle17_ddec_spin_density
 _atom_site_hle17_ddec_sum_bond_order
 _atom_site_hle17_magmom
 _atom_site_hse06_10hf_bader_spin_density
 _atom_site_hse06_10hf_ddec_charge
 _atom_site_hse06_10hf_ddec_spin_density
 _atom_site_hse06_10hf_ddec_sum_bond_order
 _atom_site_hse06_10hf_magmom
 _atom_site_hse06_bader_spin_density
 _atom_site_hse06_ddec_charge
 _atom_site_hse06_ddec_spin_density
 _atom_site_hse06_ddec_sum_bond_order
 _atom_site_hse06_magmom
 _atom_site_pbe_bader_spin_density
 _atom_site_pbe_cm5_charge
 _atom_site_pbe_ddec_charge
 _atom_site_pbe_ddec_spin_density
 _atom_site_pbe_ddec_sum_bond_order
 _atom_site_pbe_magmom
Zn  Zn0  1  0.99999732  0.49999865  0.99999768  1  0  1.23348  0  1.643474  0  0  1.087619  0  2.084876  0  0  1.133003  0  2.023921  0  0  0.668894  1.055591  0  2.126728  0
H  H1  1  0.07326258  0.31444153  0.24818036  1  0  0.43509  0  0.804028  0  0  0.416131  0  0.859055  0  0  0.424914  0  0.849237  0  0  0.323915  0.40984  0  0.866174  0
H  H2  1  0.92672080  0.68555827  0.75181900  1  0  0.435074  0  0.803998  0  0  0.416102  0  0.85905  0  0  0.424885  0  0.849231  0  0  0.323905  0.409807  0  0.866174  0
H  H3  1  0.16552175  0.20964798  0.08062209  1  0  0.42367  0  0.885229  0  0  0.38644  0  0.958311  0  0  0.398772  0  0.940444  0  0  0.289461  0.377747  0  0.97089  0
H  H4  1  0.83447699  0.79035361  0.91937884  1  0  0.42372  0  0.885192  0  0  0.386471  0  0.958306  0  0  0.398803  0  0.940437  0  0  0.289451  0.377779  0  0.970882  0
H  H5  1  0.31858906  0.88096554  0.94753952  1  0  0.427191  0  0.878249  0  0  0.394934  0  0.943688  0  0  0.405494  0  0.92851  0  0  0.290582  0.38748  0  0.954402  0
H  H6  1  0.68140206  0.11904168  0.05245877  1  0  0.427238  0  0.878191  0  0  0.39498  0  0.943633  0  0  0.40554  0  0.928454  0  0  0.290631  0.387525  0  0.954348  0
H  H7  1  0.40146109  0.72734058  0.04423297  1  0  0.43177  0  0.860319  0  0  0.401563  0  0.921168  0  0  0.411838  0  0.90606  0  0  0.297009  0.3943  0  0.931851  0
H  H8  1  0.59852593  0.27266130  0.95576763  1  0  0.431672  0  0.86044  0  0  0.401468  0  0.921287  0  0  0.411741  0  0.906181  0  0  0.296964  0.394205  0  0.931968  0
C  C9  1  0.31080944  0.22695124  0.78744342  1  0  0.712674  0  3.838162  0  0  0.655852  0  4.139617  0  0  0.69082  0  4.129921  0  0  0.226912  0.632142  0  4.145588  0
C  C10  1  0.68919294  0.77305247  0.21256099  1  0  0.712728  0  3.837987  0  0  0.655841  0  4.139622  0  0  0.690807  0  4.129926  0  0  0.226864  0.632131  0  4.145593  0
C  C11  1  0.41804161  0.12426945  0.63531827  1  0  -0.20489  0  3.712892  0  0  -0.209814  0  3.98077  0  0  -0.21608  0  3.99559  0  0  -0.022514  -0.205727  0  3.971122  0
C  C12  1  0.58197771  0.87572265  0.36466085  1  0  -0.204927  0  3.71215  0  0  -0.209987  0  3.980268  0  0  -0.216256  0  3.995099  0  0  -0.022556  -0.205896  0  3.970616  0
C  C13  1  0.33169484  0.11198500  0.51201257  1  0  0.219363  0  3.757123  0  0  0.184563  0  4.058278  0  0  0.194218  0  4.066504  0  0  0.100116  0.17766  0  4.053187  0
C  C14  1  0.66832140  0.88802235  0.48801494  1  0  0.219217  0  3.757201  0  0  0.184484  0  4.058361  0  0  0.194134  0  4.066592  0  0  0.100051  0.177583  0  4.053266  0
C  C15  1  0.59264503  0.01201544  0.61631271  1  0  0.204016  0  3.764529  0  0  0.169714  0  4.064159  0  0  0.178948  0  4.073375  0  0  0.09508  0.163065  0  4.058441  0
C  C16  1  0.40735768  0.98797817  0.38367512  1  0  0.203795  0  3.764559  0  0  0.169516  0  4.064304  0  0  0.178751  0  4.073526  0  0  0.094961  0.162863  0  4.058586  0
O  O17  1  0.03141548  0.25932273  0.15961458  1  0  -0.820708  0  1.886472  0  0  -0.760682  0  2.09232  0  0  -0.783018  0  2.062364  0  0  -0.564419  -0.744954  0  2.112993  0
O  O18  1  0.96857620  0.74067628  0.84037931  1  0  -0.820734  0  1.886364  0  0  -0.760692  0  2.092238  0  0  -0.783027  0  2.06228  0  0  -0.564406  -0.744948  0  2.112881  0
O  O19  1  0.30762680  0.72076052  0.97797111  1  0  -0.859145  0  1.929347  0  0  -0.805378  0  2.141302  0  0  -0.826224  0  2.10546  0  0  -0.59127  -0.790548  0  2.165868  0
O  O20  1  0.69235727  0.27924436  0.02203352  1  0  -0.859056  0  1.929315  0  0  -0.805291  0  2.141266  0  0  -0.826134  0  2.105421  0  0  -0.591279  -0.790467  0  2.165845  0
O  O21  1  0.19441240  0.36554939  0.78557578  1  0  -0.601497  0  2.007696  0  0  -0.551809  0  2.259604  0  0  -0.577294  0  2.246475  0  0  -0.301927  -0.53417  0  2.268047  0
O  O22  1  0.80558952  0.63445089  0.21442325  1  0  -0.601533  0  2.007659  0  0  -0.5518  0  2.259601  0  0  -0.577285  0  2.246473  0  0  -0.301927  -0.53416  0  2.268045  0
O  O23  1  0.34126495  0.15643467  0.91277985  1  0  -0.666303  0  2.068881  0  0  -0.593668  0  2.276747  0  0  -0.620563  0  2.264825  0  0  -0.310804  -0.574994  0  2.284612  0
O  O24  1  0.65873254  0.84356996  0.08721575  1  0  -0.666392  0  2.068515  0  0  -0.5937  0  2.276411  0  0  -0.620597  0  2.264491  0  0  -0.310841  -0.57503  0  2.284281  0
F  F25  1  0.16667783  0.21679747  0.51382088  1  0  -0.161884  0  1.242053  0  0  -0.119886  0  1.411355  0  0  -0.127865  0  1.400228  0  0  -0.088859  -0.114105  0  1.419041  0
F  F26  1  0.83332102  0.78319254  0.48617361  1  0  -0.161783  0  1.242348  0  0  -0.119787  0  1.411638  0  0  -0.127765  0  1.400512  0  0  -0.088787  -0.114007  0  1.419323  0
F  F27  1  0.69903576  0.02157322  0.72223711  1  0  -0.15608  0  1.287076  0  0  -0.111752  0  1.46686  0  0  -0.120441  0  1.456293  0  0  -0.077697  -0.105518  0  1.474167  0
F  F28  1  0.30098139  0.97841600  0.27777945  1  0  -0.155767  0  1.287883  0  0  -0.111432  0  1.467695  0  0  -0.120118  0  1.457134  0  0  -0.077509  -0.105195  0  1.475  0
