# generated using pymatgen
data_Cd3H12(C7N5)2
_symmetry_space_group_name_H-M   'P 1'
_cell_length_a   12.87198069
_cell_length_b   14.68084109
_cell_length_c   15.05385669
_cell_angle_alpha   90.00003083
_cell_angle_beta   89.99980873
_cell_angle_gamma   89.99906570
_symmetry_Int_Tables_number   1
_chemical_formula_structural   Cd3H12(C7N5)2
_chemical_formula_sum   'Cd12 H48 C56 N40'
_cell_volume   2844.74992489
_cell_formula_units_Z   4
loop_
 _symmetry_equiv_pos_site_id
 _symmetry_equiv_pos_as_xyz
  1  'x, y, z'
loop_
 _atom_site_type_symbol
 _atom_site_label
 _atom_site_symmetry_multiplicity
 _atom_site_fract_x
 _atom_site_fract_y
 _atom_site_fract_z
 _atom_site_occupancy
 _atom_site_pbe_bader_charge
 _atom_site_pbe_bader_spin_density
 _atom_site_pbe_cm5_charge
 _atom_site_pbe_ddec_charge
 _atom_site_pbe_ddec_spin_density
 _atom_site_pbe_ddec_sum_bond_order
 _atom_site_pbe_magmom
Cd  Cd0  1  0.99999639  0.75000385  0.65808195  1  1.347968  0  0.842554  0.948713  0  2.440316  0
Cd  Cd1  1  0.50000283  0.74999912  0.15808189  1  1.347751  0  0.842622  0.948832  0  2.440305  0
Cd  Cd2  1  0.00000246  0.24999804  0.34191909  1  1.347906  0  0.842599  0.948753  0  2.440377  0
Cd  Cd3  1  0.49999602  0.25000344  0.84191981  1  1.347959  0  0.842597  0.948727  0  2.440363  0
Cd  Cd4  1  0.23806963  0.06260250  0.59443937  1  1.026246  0  0.590559  0.509589  0  2.799451  0
Cd  Cd5  1  0.73806711  0.43739064  0.09444063  1  1.026283  0  0.590546  0.509648  0  2.799504  0
Cd  Cd6  1  0.23806459  0.56260446  0.40556298  1  1.026227  0  0.590564  0.509649  0  2.799517  0
Cd  Cd7  1  0.26193173  0.06259674  0.09444321  1  1.026227  0  0.590582  0.509668  0  2.799354  0
Cd  Cd8  1  0.76193155  0.93739870  0.40556100  1  1.026239  0  0.590536  0.509548  0  2.799535  0
Cd  Cd9  1  0.26192786  0.56260783  0.90556040  1  1.026123  0  0.590547  0.509549  0  2.799473  0
Cd  Cd10  1  0.76193192  0.43739811  0.59444004  1  1.026253  0  0.590546  0.509612  0  2.799496  0
Cd  Cd11  1  0.73806867  0.93740038  0.90555583  1  1.026396  0  0.590552  0.509578  0  2.799454  0
H  H12  1  0.45843445  0.94637241  0.31591995  1  0.516183  0  0.328835  0.294609  0  0.925489  0
H  H13  1  0.95843009  0.55362852  0.81591925  1  0.51626  0  0.328841  0.294666  0  0.925427  0
H  H14  1  0.45843758  0.44637460  0.68408263  1  0.516117  0  0.328822  0.294548  0  0.925543  0
H  H15  1  0.04156912  0.94637147  0.81592199  1  0.516239  0  0.328809  0.294577  0  0.925525  0
H  H16  1  0.54156440  0.05362743  0.68407975  1  0.516182  0  0.328848  0.294627  0  0.925492  0
H  H17  1  0.04156876  0.44636928  0.18407780  1  0.516244  0  0.328808  0.294584  0  0.925505  0
H  H18  1  0.54156204  0.55362660  0.31591841  1  0.516121  0  0.328852  0.294536  0  0.925553  0
H  H19  1  0.95843284  0.05362906  0.18407772  1  0.516229  0  0.328847  0.294666  0  0.925453  0
H  H20  1  0.28524950  0.84552391  0.53143239  1  0.135182  0  0.115204  0.116003  0  1.01649  0
H  H21  1  0.78525221  0.65447866  0.03144281  1  0.135037  0  0.115178  0.115958  0  1.016432  0
H  H22  1  0.28525502  0.34552529  0.46856864  1  0.13528  0  0.115251  0.116086  0  1.016452  0
H  H23  1  0.21474384  0.84551882  0.03144168  1  0.135044  0  0.115158  0.115928  0  1.016453  0
H  H24  1  0.71474935  0.15447729  0.46856599  1  0.135165  0  0.115198  0.115985  0  1.016488  0
H  H25  1  0.21474819  0.34552118  0.96855557  1  0.135005  0  0.115158  0.115925  0  1.016468  0
H  H26  1  0.71474461  0.65447591  0.53143173  1  0.135272  0  0.115239  0.116062  0  1.016493  0
H  H27  1  0.78525423  0.15447897  0.96855869  1  0.135069  0  0.115157  0.115934  0  1.016495  0
H  H28  1  0.39283275  0.79781874  0.37704853  1  0.163021  0  0.115861  0.11613  0  1.053094  0
H  H29  1  0.89283263  0.70218453  0.87705654  1  0.16312  0  0.11585  0.116174  0  1.053091  0
H  H30  1  0.39283845  0.29781953  0.62295150  1  0.163068  0  0.115857  0.116168  0  1.053036  0
H  H31  1  0.10716245  0.79781208  0.87705503  1  0.163136  0  0.115842  0.116141  0  1.053105  0
H  H32  1  0.60716610  0.20218178  0.62294985  1  0.163098  0  0.115858  0.116159  0  1.053032  0
H  H33  1  0.10716622  0.29781599  0.12293985  1  0.162957  0  0.115843  0.116159  0  1.05316  0
H  H34  1  0.60716040  0.70218099  0.37704886  1  0.163063  0  0.115825  0.116124  0  1.053041  0
H  H35  1  0.89283717  0.20218435  0.12294069  1  0.163037  0  0.115834  0.116141  0  1.053139  0
H  H36  1  0.42081639  0.14918202  0.46959604  1  0.073176  0  0.099496  0.145631  0  1.009187  0
H  H37  1  0.92080498  0.35081552  0.96959217  1  0.072957  0  0.09951  0.145692  0  1.009112  0
H  H38  1  0.42081631  0.64918405  0.53040517  1  0.073125  0  0.099498  0.145635  0  1.009153  0
H  H39  1  0.07919589  0.14918326  0.96959265  1  0.073008  0  0.099524  0.145709  0  1.009032  0
H  H40  1  0.57918712  0.85081918  0.53040300  1  0.073165  0  0.099504  0.145623  0  1.009184  0
H  H41  1  0.07919387  0.64918568  0.03040555  1  0.072938  0  0.099486  0.145654  0  1.009119  0
H  H42  1  0.57918409  0.35081647  0.46959321  1  0.073154  0  0.099508  0.145642  0  1.009146  0
H  H43  1  0.92080607  0.85081453  0.03040639  1  0.073164  0  0.099496  0.145672  0  1.009108  0
H  H44  1  0.34998762  0.14187775  0.36845262  1  0.090204  0  0.10382  0.156908  0  0.979369  0
H  H45  1  0.84998151  0.35812757  0.86844742  1  0.090093  0  0.103866  0.156985  0  0.979295  0
H  H46  1  0.34998792  0.64187847  0.63155011  1  0.090117  0  0.103817  0.156905  0  0.979335  0
H  H47  1  0.15001897  0.14187115  0.86844771  1  0.090109  0  0.103869  0.156998  0  0.979289  0
H  H48  1  0.65001278  0.85812277  0.63154575  1  0.090224  0  0.103819  0.156921  0  0.979356  0
H  H49  1  0.15001579  0.64187090  0.13155095  1  0.090169  0  0.103854  0.156953  0  0.979325  0
H  H50  1  0.65001326  0.35812274  0.36845026  1  0.090121  0  0.103825  0.156915  0  0.979333  0
H  H51  1  0.84998221  0.85812732  0.13155399  1  0.090089  0  0.10388  0.157011  0  0.979281  0
H  H52  1  0.48595370  0.11787065  0.37029049  1  0.072264  0  0.103541  0.152541  0  0.979137  0
H  H53  1  0.98595026  0.38212863  0.87028929  1  0.072419  0  0.103539  0.152569  0  0.979183  0
H  H54  1  0.48595479  0.61787341  0.62971118  1  0.072351  0  0.103512  0.152498  0  0.979175  0
H  H55  1  0.01405099  0.11787146  0.87028995  1  0.072319  0  0.10352  0.152563  0  0.979127  0
H  H56  1  0.51404670  0.88212783  0.62970722  1  0.072286  0  0.103535  0.152529  0  0.979142  0
H  H57  1  0.01404859  0.61786985  0.12971108  1  0.072288  0  0.103538  0.152547  0  0.979194  0
H  H58  1  0.51404639  0.38212711  0.37028852  1  0.072368  0  0.103508  0.152514  0  0.979146  0
H  H59  1  0.98595018  0.88213246  0.12971109  1  0.072441  0  0.103516  0.152548  0  0.979134  0
C  C60  1  0.14403382  0.95051145  0.64781143  1  0.739053  0  -0.00636  -0.060718  0  3.567428  0
C  C61  1  0.64404236  0.54949186  0.14781781  1  0.738994  0  -0.006486  -0.060814  0  3.567664  0
C  C62  1  0.14403902  0.45050663  0.35218540  1  0.738975  0  -0.006474  -0.060805  0  3.567498  0
C  C63  1  0.35596333  0.95050501  0.14781501  1  0.739165  0  -0.00653  -0.060775  0  3.567804  0
C  C64  1  0.85596580  0.04948771  0.35218495  1  0.742222  0  -0.006355  -0.060668  0  3.567372  0
C  C65  1  0.35596891  0.45051343  0.85218720  1  0.742363  0  -0.006374  -0.060681  0  3.567349  0
C  C66  1  0.85596837  0.54948912  0.64781164  1  0.739103  0  -0.006317  -0.060659  0  3.567358  0
C  C67  1  0.64403862  0.04949346  0.85218802  1  0.739013  0  -0.006507  -0.060804  0  3.567554  0
C  C68  1  0.15865113  0.63346416  0.81205363  1  0.750589  0  -0.007537  -0.075321  0  3.57804  0
C  C69  1  0.65865225  0.86654993  0.31205220  1  0.750231  0  -0.007474  -0.075435  0  3.578113  0
C  C70  1  0.15865463  0.13345653  0.18794301  1  0.750208  0  -0.00749  -0.075453  0  3.578206  0
C  C71  1  0.34134892  0.63345317  0.31205525  1  0.750267  0  -0.007489  -0.075409  0  3.578099  0
C  C72  1  0.84135083  0.36653908  0.18794873  1  0.750629  0  -0.007496  -0.075333  0  3.577978  0
C  C73  1  0.34134893  0.13346013  0.68794817  1  0.75046  0  -0.007522  -0.075356  0  3.577986  0
C  C74  1  0.84134732  0.86654399  0.81205470  1  0.75028  0  -0.007436  -0.075326  0  3.57826  0
C  C75  1  0.65866002  0.36654599  0.68795442  1  0.750204  0  -0.007595  -0.075498  0  3.57811  0
C  C76  1  0.15563879  0.65541515  0.49586025  1  0.733139  0  -0.007474  -0.06065  0  3.571347  0
C  C77  1  0.65562905  0.84458206  0.99587165  1  0.73251  0  -0.007218  -0.06026  0  3.570746  0
C  C78  1  0.15564573  0.15542132  0.50412976  1  0.733546  0  -0.007423  -0.060458  0  3.570847  0
C  C79  1  0.34435780  0.65541530  0.99587537  1  0.732766  0  -0.007397  -0.060414  0  3.570816  0
C  C80  1  0.84435073  0.34458401  0.50413016  1  0.733345  0  -0.007475  -0.060575  0  3.571047  0
C  C81  1  0.34436902  0.15541437  0.00412474  1  0.733007  0  -0.007262  -0.060265  0  3.570716  0
C  C82  1  0.84435389  0.84457920  0.49586927  1  0.733495  0  -0.007429  -0.060502  0  3.570937  0
C  C83  1  0.65564027  0.34458113  0.00413895  1  0.733138  0  -0.00756  -0.060701  0  3.571353  0
C  C84  1  0.39026765  0.01349995  0.42672930  1  1.019108  0  0.217283  0.388403  0  3.956706  0
C  C85  1  0.89026461  0.48650142  0.92672947  1  1.019126  0  0.217368  0.388571  0  3.956632  0
C  C86  1  0.39026973  0.51350268  0.57327260  1  1.019186  0  0.217175  0.388183  0  3.956865  0
C  C87  1  0.10973487  0.01349598  0.92672981  1  1.019207  0  0.217309  0.388376  0  3.956789  0
C  C88  1  0.60973197  0.98650057  0.57326974  1  1.019097  0  0.217285  0.388373  0  3.956743  0
C  C89  1  0.10973424  0.51349842  0.07327090  1  1.019095  0  0.217337  0.388445  0  3.956673  0
C  C90  1  0.60973067  0.48649920  0.42672777  1  1.019216  0  0.217187  0.388267  0  3.956783  0
C  C91  1  0.89026475  0.98650045  0.07327123  1  1.019275  0  0.217281  0.388515  0  3.956721  0
C  C92  1  0.32844224  0.88763289  0.48515782  1  0.427871  0  -0.012887  -0.053715  0  4.022042  0
C  C93  1  0.82844456  0.61237001  0.98516512  1  0.428678  0  -0.012924  -0.053624  0  4.022009  0
C  C94  1  0.32844836  0.38763430  0.51484311  1  0.427363  0  -0.012971  -0.053809  0  4.022111  0
C  C95  1  0.17155166  0.88762735  0.98516413  1  0.428118  0  -0.012877  -0.053563  0  4.021998  0
C  C96  1  0.67155739  0.11236831  0.51484255  1  0.427841  0  -0.012889  -0.053697  0  4.022129  0
C  C97  1  0.17155507  0.38763256  0.01483193  1  0.428272  0  -0.012944  -0.05367  0  4.021912  0
C  C98  1  0.67155127  0.61236690  0.48515792  1  0.427329  0  -0.012971  -0.053757  0  4.02203  0
C  C99  1  0.82844408  0.11236636  0.01483424  1  0.428263  0  -0.012926  -0.053637  0  4.022017  0
C  C100  1  0.38057989  0.86274564  0.40953725  1  0.227087  0  -0.003938  -0.048544  0  3.961974  0
C  C101  1  0.88057865  0.63725647  0.90954389  1  0.226573  0  -0.003869  -0.048609  0  3.962171  0
C  C102  1  0.38058494  0.36274709  0.59046352  1  0.227604  0  -0.003962  -0.048664  0  3.962162  0
C  C103  1  0.11941709  0.86274017  0.90954371  1  0.22695  0  -0.003897  -0.048614  0  3.962145  0
C  C104  1  0.61941818  0.13725488  0.59046179  1  0.227025  0  -0.00396  -0.048627  0  3.962085  0
C  C105  1  0.11941865  0.36274201  0.09045182  1  0.226797  0  -0.003849  -0.048624  0  3.96202  0
C  C106  1  0.61941391  0.63725343  0.40953685  1  0.227605  0  -0.003895  -0.048611  0  3.962096  0
C  C107  1  0.88058098  0.13725763  0.09045400  1  0.226701  0  -0.003833  -0.048547  0  3.96198  0
C  C108  1  0.41307758  0.11078780  0.40745516  1  -0.086937  0  -0.227928  -0.472076  0  3.954945  0
C  C109  1  0.91307322  0.38921186  0.90745130  1  -0.086742  0  -0.228023  -0.472299  0  3.954938  0
C  C110  1  0.41307881  0.61079123  0.59254738  1  -0.086982  0  -0.227901  -0.472016  0  3.954927  0
C  C111  1  0.08692788  0.11078484  0.90745241  1  -0.086676  0  -0.227991  -0.472269  0  3.954906  0
C  C112  1  0.58692283  0.88921340  0.59254388  1  -0.086931  0  -0.227952  -0.472072  0  3.954944  0
C  C113  1  0.08692407  0.61078730  0.09254575  1  -0.086618  0  -0.227981  -0.472183  0  3.954945  0
C  C114  1  0.58692160  0.38921066  0.40745298  1  -0.086997  0  -0.22791  -0.472054  0  3.954892  0
C  C115  1  0.91307330  0.88921023  0.09254796  1  -0.087  0  -0.227971  -0.472269  0  3.954916  0
N  N116  1  0.09666793  0.88587109  0.66809798  1  -1.35043  0  -0.362616  -0.338765  0  3.318301  0
N  N117  1  0.59666829  0.61412610  0.16810838  1  -1.350391  0  -0.362503  -0.338667  0  3.318468  0
N  N118  1  0.09667011  0.38586830  0.33189697  1  -1.35036  0  -0.362527  -0.338709  0  3.318362  0
N  N119  1  0.40332956  0.88586737  0.16810673  1  -1.350492  0  -0.36246  -0.338709  0  3.318619  0
N  N120  1  0.90332936  0.11412943  0.33189973  1  -1.353619  0  -0.362612  -0.338783  0  3.318223  0
N  N121  1  0.40333445  0.38587373  0.83189664  1  -1.353712  0  -0.362601  -0.338766  0  3.318328  0
N  N122  1  0.90333107  0.61412949  0.66809942  1  -1.350513  0  -0.362653  -0.338817  0  3.318226  0
N  N123  1  0.59667162  0.11413042  0.83189563  1  -1.350371  0  -0.362486  -0.338657  0  3.318208  0
N  N124  1  0.10394129  0.67654109  0.76648865  1  -1.367894  0  -0.356998  -0.331111  0  3.319673  0
N  N125  1  0.60394787  0.82346490  0.26649052  1  -1.367597  0  -0.357076  -0.331037  0  3.319717  0
N  N126  1  0.10394695  0.17653485  0.23350816  1  -1.367541  0  -0.357051  -0.331002  0  3.319763  0
N  N127  1  0.39605659  0.67653681  0.26649543  1  -1.3676  0  -0.357068  -0.331107  0  3.319821  0
N  N128  1  0.89605834  0.32345738  0.23351238  1  -1.367956  0  -0.357035  -0.331122  0  3.319719  0
N  N129  1  0.39605487  0.17654107  0.73351118  1  -1.367919  0  -0.357024  -0.331112  0  3.319745  0
N  N130  1  0.89605501  0.82346567  0.76649021  1  -1.367652  0  -0.35709  -0.33108  0  3.319852  0
N  N131  1  0.60394925  0.32346440  0.73351158  1  -1.367631  0  -0.356988  -0.331015  0  3.319758  0
N  N132  1  0.11208556  0.69759631  0.55003448  1  -1.331314  0  -0.363614  -0.326713  0  3.33375  0
N  N133  1  0.61208165  0.80239719  0.05004763  1  -1.330781  0  -0.363886  -0.327153  0  3.333833  0
N  N134  1  0.11208494  0.19760108  0.44995834  1  -1.331704  0  -0.363703  -0.32692  0  3.333626  0
N  N135  1  0.38791899  0.69759486  0.05004726  1  -1.330939  0  -0.363713  -0.326975  0  3.333583  0
N  N136  1  0.88791174  0.30240217  0.44995991  1  -1.331468  0  -0.363617  -0.326794  0  3.333617  0
N  N137  1  0.38791797  0.19760197  0.94995274  1  -1.331177  0  -0.363862  -0.327159  0  3.333841  0
N  N138  1  0.88791391  0.80239876  0.55004070  1  -1.331655  0  -0.363685  -0.326862  0  3.333676  0
N  N139  1  0.61208608  0.30240362  0.94996374  1  -1.331422  0  -0.363535  -0.326656  0  3.333794  0
N  N140  1  0.41888024  0.94263927  0.37428645  1  -1.2768  0  -0.377685  -0.256293  0  3.65566  0
N  N141  1  0.91887970  0.55736294  0.87428907  1  -1.27674  0  -0.377715  -0.256428  0  3.6557  0
N  N142  1  0.41888360  0.44264143  0.62571491  1  -1.277013  0  -0.377624  -0.256105  0  3.655746  0
N  N143  1  0.08112006  0.94263504  0.87428970  1  -1.276719  0  -0.377662  -0.256223  0  3.655694  0
N  N144  1  0.58111861  0.05736056  0.62571259  1  -1.27679  0  -0.377658  -0.256256  0  3.655656  0
N  N145  1  0.08112304  0.44263622  0.12571130  1  -1.276677  0  -0.377665  -0.256218  0  3.655564  0
N  N146  1  0.58111603  0.55735909  0.37428545  1  -1.277021  0  -0.377682  -0.256146  0  3.655775  0
N  N147  1  0.91888034  0.05736208  0.12571067  1  -1.276867  0  -0.377749  -0.25645  0  3.655641  0
N  N148  1  0.33541386  0.98124669  0.49546748  1  -1.233596  0  -0.36881  -0.330253  0  3.473304  0
N  N149  1  0.83541481  0.51875543  0.99547008  1  -1.234127  0  -0.368831  -0.330334  0  3.473161  0
N  N150  1  0.33541614  0.48124809  0.50453480  1  -1.233499  0  -0.368696  -0.330095  0  3.473324  0
N  N151  1  0.16458370  0.98124261  0.99546983  1  -1.233981  0  -0.368827  -0.330301  0  3.473287  0
N  N152  1  0.66458576  0.01875519  0.50453156  1  -1.233595  0  -0.368792  -0.330202  0  3.473247  0
N  N153  1  0.16458326  0.48124781  0.00452896  1  -1.233695  0  -0.36879  -0.330207  0  3.473231  0
N  N154  1  0.66458271  0.51875311  0.49546623  1  -1.233508  0  -0.368717  -0.330173  0  3.473247  0
N  N155  1  0.83541592  0.01875178  0.00453054  1  -1.2337  0  -0.368742  -0.330241  0  3.47321  0
