# generated using pymatgen
data_ZnH14C17(SN4)2
_symmetry_space_group_name_H-M   'P 1'
_cell_length_a   8.65431891
_cell_length_b   9.46616231
_cell_length_c   11.69554978
_cell_angle_alpha   84.77583302
_cell_angle_beta   88.51228314
_cell_angle_gamma   81.78139233
_symmetry_Int_Tables_number   1
_chemical_formula_structural   ZnH14C17(SN4)2
_chemical_formula_sum   'Zn2 H28 C34 S4 N16'
_cell_volume   944.27589657
_cell_formula_units_Z   2
loop_
 _symmetry_equiv_pos_site_id
 _symmetry_equiv_pos_as_xyz
  1  'x, y, z'
loop_
 _atom_site_type_symbol
 _atom_site_label
 _atom_site_symmetry_multiplicity
 _atom_site_fract_x
 _atom_site_fract_y
 _atom_site_fract_z
 _atom_site_occupancy
 _atom_site_hle17_bader_spin_density
 _atom_site_hle17_ddec_charge
 _atom_site_hle17_ddec_spin_density
 _atom_site_hle17_ddec_sum_bond_order
 _atom_site_hle17_magmom
 _atom_site_hse06_10hf_bader_spin_density
 _atom_site_hse06_10hf_ddec_charge
 _atom_site_hse06_10hf_ddec_spin_density
 _atom_site_hse06_10hf_ddec_sum_bond_order
 _atom_site_hse06_10hf_magmom
 _atom_site_hse06_bader_spin_density
 _atom_site_hse06_ddec_charge
 _atom_site_hse06_ddec_spin_density
 _atom_site_hse06_ddec_sum_bond_order
 _atom_site_hse06_magmom
 _atom_site_pbe_bader_spin_density
 _atom_site_pbe_cm5_charge
 _atom_site_pbe_ddec_charge
 _atom_site_pbe_ddec_spin_density
 _atom_site_pbe_ddec_sum_bond_order
 _atom_site_pbe_magmom
Zn  Zn0  1  0.64300728  0.84812204  0.77268224  1  0  0.996647  0  2.056871  0  0  0.802205  0  2.570179  0  0  0.841777  0  2.518175  0  0  0.768155  0.775456  0  2.605048  0
Zn  Zn1  1  0.35698955  0.15187637  0.22731948  1  0  0.99666  0  2.056809  0  0  0.80223  0  2.570082  0  0  0.841804  0  2.518081  0  0  0.768162  0.775478  0  2.604994  0
H  H2  1  0.50314240  0.80075087  0.05364646  1  0  0.119478  0  0.963977  0  0  0.126768  0  1.026775  0  0  0.128522  0  1.027273  0  0  0.107493  0.125682  0  1.025666  0
H  H3  1  0.49686197  0.19925080  0.94635311  1  0  0.119446  0  0.964022  0  0  0.126732  0  1.026816  0  0  0.128487  0  1.027313  0  0  0.10749  0.125647  0  1.025706  0
H  H4  1  0.45662645  0.65697766  0.23639928  1  0  0.092698  0  0.95909  0  0  0.097105  0  1.031217  0  0  0.100331  0  1.029124  0  0  0.098663  0.094641  0  1.032993  0
H  H5  1  0.54337540  0.34302510  0.76359772  1  0  0.092726  0  0.959065  0  0  0.097129  0  1.031192  0  0  0.100355  0  1.029097  0  0  0.098669  0.094664  0  1.032961  0
H  H6  1  0.58440320  0.40702615  0.27489167  1  0  0.095748  0  0.96939  0  0  0.106219  0  1.0312  0  0  0.108058  0  1.03128  0  0  0.099201  0.104625  0  1.031704  0
H  H7  1  0.41559392  0.59297763  0.72510883  1  0  0.095806  0  0.969281  0  0  0.106265  0  1.031112  0  0  0.108105  0  1.031192  0  0  0.099226  0.104672  0  1.031613  0
H  H8  1  0.77335407  0.29110782  0.13473544  1  0  0.112353  0  0.965335  0  0  0.119007  0  1.031038  0  0  0.121529  0  1.031185  0  0  0.104389  0.118002  0  1.029319  0
H  H9  1  0.22664225  0.70888631  0.86526574  1  0  0.112371  0  0.965413  0  0  0.119016  0  1.031118  0  0  0.12153  0  1.031284  0  0  0.104381  0.118013  0  1.029394  0
H  H10  1  0.88114802  0.23789830  0.91460416  1  0  0.08178  0  0.957961  0  0  0.090404  0  1.034737  0  0  0.091183  0  1.034471  0  0  0.103491  0.089502  0  1.035176  0
H  H11  1  0.11884844  0.76210228  0.08539571  1  0  0.081771  0  0.958003  0  0  0.090421  0  1.034747  0  0  0.091202  0  1.03448  0  0  0.103496  0.089513  0  1.035206  0
H  H12  1  0.03129340  0.31397284  0.97401577  1  0  0.080053  0  0.942173  0  0  0.090675  0  1.013471  0  0  0.09093  0  1.014336  0  0  0.106896  0.090024  0  1.01335  0
H  H13  1  0.96870210  0.68602665  0.02598592  1  0  0.080064  0  0.942105  0  0  0.09071  0  1.013391  0  0  0.090966  0  1.014247  0  0  0.106904  0.090063  0  1.013271  0
H  H14  1  0.07084517  0.44368777  0.77052281  1  0  0.084768  0  0.951081  0  0  0.099627  0  1.016953  0  0  0.100084  0  1.018019  0  0  0.096981  0.099575  0  1.015763  0
H  H15  1  0.92915363  0.55631279  0.22947871  1  0  0.084777  0  0.951119  0  0  0.099645  0  1.016992  0  0  0.100102  0  1.018058  0  0  0.096985  0.099594  0  1.015798  0
H  H16  1  0.13784547  0.25928394  0.79527556  1  0  0.092377  0  0.945055  0  0  0.107586  0  1.00905  0  0  0.108288  0  1.010415  0  0  0.097219  0.107049  0  1.008078  0
H  H17  1  0.86215435  0.74071768  0.20472757  1  0  0.092422  0  0.945018  0  0  0.107644  0  1.008981  0  0  0.108345  0  1.010348  0  0  0.097255  0.107108  0  1.008009  0
H  H18  1  0.81811630  0.36963091  0.68587656  1  0  0.09152  0  0.920774  0  0  0.102891  0  0.989639  0  0  0.103883  0  0.988963  0  0  0.117285  0.102059  0  0.990425  0
H  H19  1  0.18188176  0.63036649  0.31412091  1  0  0.091536  0  0.920773  0  0  0.102895  0  0.989647  0  0  0.103885  0  0.98897  0  0  0.1173  0.102064  0  0.990435  0
H  H20  1  0.99526123  0.33943156  0.60604310  1  0  0.081857  0  0.94558  0  0  0.092046  0  1.01979  0  0  0.09316  0  1.019604  0  0  0.107252  0.091458  0  1.019567  0
H  H21  1  0.00473960  0.66056363  0.39396044  1  0  0.081871  0  0.945495  0  0  0.09207  0  1.019693  0  0  0.093184  0  1.019509  0  0  0.107261  0.091487  0  1.019468  0
H  H22  1  0.23125507  0.14442029  0.58485627  1  0  0.106374  0  0.988592  0  0  0.113444  0  1.054125  0  0  0.115798  0  1.053977  0  0  0.098655  0.11058  0  1.055978  0
H  H23  1  0.76875404  0.85558035  0.41514066  1  0  0.106289  0  0.988636  0  0  0.113405  0  1.054138  0  0  0.115758  0  1.053989  0  0  0.098596  0.11054  0  1.056001  0
H  H24  1  0.36452051  0.90582885  0.53258673  1  0  0.099919  0  0.941913  0  0  0.113703  0  0.995188  0  0  0.115818  0  0.994956  0  0  0.104695  0.112186  0  0.99525  0
H  H25  1  0.63548002  0.09416749  0.46740989  1  0  0.099937  0  0.941935  0  0  0.113721  0  0.995196  0  0  0.115836  0  0.994963  0  0  0.104701  0.112206  0  0.995259  0
H  H26  1  0.23955043  0.68859795  0.56921025  1  0  0.088597  0  0.988802  0  0  0.098734  0  1.053941  0  0  0.101345  0  1.053073  0  0  0.0899  0.095686  0  1.05637  0
H  H27  1  0.76044136  0.31140264  0.43078719  1  0  0.088614  0  0.988759  0  0  0.098746  0  1.053902  0  0  0.101357  0  1.053032  0  0  0.089882  0.095697  0  1.056327  0
H  H28  1  0.97740000  0.69478905  0.66655151  1  0  0.110856  0  0.958601  0  0  0.116187  0  1.026704  0  0  0.119251  0  1.024838  0  0  0.105319  0.114195  0  1.027762  0
H  H29  1  0.02259670  0.30520944  0.33344423  1  0  0.110894  0  0.958719  0  0  0.116222  0  1.026798  0  0  0.119286  0  1.024933  0  0  0.105344  0.114226  0  1.027858  0
C  C30  1  0.66671382  0.62587291  0.99133627  1  0  0.120543  0  3.829321  0  0  0.115194  0  4.081256  0  0  0.116289  0  4.104882  0  0  0.096876  0.114276  0  4.065871  0
C  C31  1  0.33328915  0.37413085  0.00866747  1  0  0.120472  0  3.829357  0  0  0.115286  0  4.081074  0  0  0.116381  0  4.104698  0  0  0.096791  0.11437  0  4.065693  0
C  C32  1  0.56093291  0.69127424  0.07042400  1  0  -0.116335  0  3.701337  0  0  -0.132134  0  3.947453  0  0  -0.134041  0  3.968796  0  0  -0.080684  -0.130533  0  3.931726  0
C  C33  1  0.43906988  0.30872311  0.92957848  1  0  -0.116232  0  3.701016  0  0  -0.132062  0  3.947075  0  0  -0.133971  0  3.968416  0  0  -0.08063  -0.130466  0  3.931349  0
C  C34  1  0.53554691  0.60944169  0.17176450  1  0  -0.058379  0  3.731701  0  0  -0.078715  0  3.99179  0  0  -0.081421  0  4.013315  0  0  -0.089136  -0.076936  0  3.977271  0
C  C35  1  0.46445615  0.39056105  0.82823504  1  0  -0.058393  0  3.731574  0  0  -0.078715  0  3.991645  0  0  -0.081419  0  4.013169  0  0  -0.089143  -0.076933  0  3.977115  0
C  C36  1  0.61092341  0.46679701  0.19453147  1  0  -0.043802  0  3.726269  0  0  -0.06222  0  3.980016  0  0  -0.062992  0  4.001784  0  0  -0.086399  -0.061768  0  3.965744  0
C  C37  1  0.38908053  0.53320034  0.80547097  1  0  -0.043924  0  3.726274  0  0  -0.062341  0  3.980036  0  0  -0.063114  0  4.001805  0  0  -0.086448  -0.061891  0  3.96576  0
C  C38  1  0.71638699  0.40105286  0.11770536  1  0  -0.138447  0  3.72773  0  0  -0.153856  0  3.981863  0  0  -0.157644  0  4.002108  0  0  -0.0895  -0.151353  0  3.967066  0
C  C39  1  0.28361546  0.59894663  0.88229698  1  0  -0.138454  0  3.727742  0  0  -0.153846  0  3.981875  0  0  -0.157632  0  4.00212  0  0  -0.089496  -0.151345  0  3.967076  0
C  C40  1  0.74282183  0.48433902  0.01562605  1  0  0.088234  0  3.781305  0  0  0.063736  0  4.02497  0  0  0.066932  0  4.046715  0  0  0.10378  0.061447  0  4.010764  0
C  C41  1  0.25718169  0.51565401  0.98437926  1  0  0.08835  0  3.78134  0  0  0.063801  0  4.025014  0  0  0.067  0  4.046757  0  0  0.103888  0.061509  0  4.010807  0
C  C42  1  0.94708288  0.32961050  0.90375168  1  0  -0.014963  0  3.617931  0  0  -0.087645  0  3.876611  0  0  -0.083862  0  3.886628  0  0  -0.054331  -0.08978  0  3.870096  0
C  C43  1  0.05291460  0.67039113  0.09624981  1  0  -0.014936  0  3.617907  0  0  -0.087655  0  3.876657  0  0  -0.083866  0  3.886672  0  0  -0.054362  -0.089814  0  3.870161  0
C  C44  1  0.03194636  0.33849852  0.78840854  1  0  -0.153947  0  3.686226  0  0  -0.197562  0  3.947908  0  0  -0.199552  0  3.960859  0  0  -0.16269  -0.196268  0  3.939216  0
C  C45  1  0.96805112  0.66150311  0.21159295  1  0  -0.153977  0  3.686356  0  0  -0.197619  0  3.948086  0  0  -0.199611  0  3.961042  0  0  -0.162676  -0.196313  0  3.939388  0
C  C46  1  0.93626713  0.30959822  0.68708047  1  0  -0.014033  0  3.615317  0  0  -0.090723  0  3.875908  0  0  -0.08744  0  3.886141  0  0  -0.048603  -0.092794  0  3.869085  0
C  C47  1  0.06373396  0.69040236  0.31292012  1  0  -0.014058  0  3.615277  0  0  -0.090758  0  3.87592  0  0  -0.087462  0  3.886122  0  0  -0.048628  -0.092832  0  3.869098  0
C  C48  1  0.02907955  0.04972692  0.65341092  1  0  0.090138  0  3.78826  0  0  0.065674  0  4.030304  0  0  0.06846  0  4.05303  0  0  0.107033  0.063925  0  4.014806  0
C  C49  1  0.97092357  0.95027480  0.34658355  1  0  0.090203  0  3.78823  0  0  0.065821  0  4.030213  0  0  0.068607  0  4.052939  0  0  0.107093  0.064074  0  4.014716  0
C  C50  1  0.17698310  0.04749332  0.60152254  1  0  -0.120931  0  3.714314  0  0  -0.135977  0  3.965161  0  0  -0.139291  0  3.986126  0  0  -0.085186  -0.133273  0  3.951849  0
C  C51  1  0.82301183  0.95250845  0.39846704  1  0  -0.120857  0  3.71388  0  0  -0.135996  0  3.964766  0  0  -0.13931  0  3.98573  0  0  -0.085131  -0.133291  0  3.951465  0
C  C52  1  0.24920175  0.91480274  0.57304664  1  0  -0.039013  0  3.717018  0  0  -0.060849  0  3.974994  0  0  -0.062405  0  3.997121  0  0  -0.084405  -0.059916  0  3.959887  0
C  C53  1  0.75079372  0.08520329  0.42694520  1  0  -0.039069  0  3.716875  0  0  -0.060892  0  3.974856  0  0  -0.062449  0  3.996983  0  0  -0.084443  -0.059962  0  3.959753  0
C  C54  1  0.17791595  0.78931602  0.59567874  1  0  -0.059818  0  3.736493  0  0  -0.078369  0  3.992361  0  0  -0.080666  0  4.014547  0  0  -0.090851  -0.076017  0  3.977447  0
C  C55  1  0.82208416  0.21068348  0.40432196  1  0  -0.059772  0  3.736363  0  0  -0.078333  0  3.992227  0  0  -0.08063  0  4.014412  0  0  -0.09077  -0.075976  0  3.977299  0
C  C56  1  0.03247554  0.79114746  0.64881322  1  0  -0.1332  0  3.718275  0  0  -0.148691  0  3.9698  0  0  -0.150929  0  3.989869  0  0  -0.088301  -0.147205  0  3.95533  0
C  C57  1  0.96753156  0.20885203  0.35118984  1  0  -0.133347  0  3.718136  0  0  -0.148797  0  3.969641  0  0  -0.151033  0  3.989708  0  0  -0.088382  -0.147306  0  3.955161  0
C  C58  1  0.95794394  0.92510284  0.67793813  1  0  0.121246  0  3.8378  0  0  0.112085  0  4.093653  0  0  0.113017  0  4.118098  0  0  0.095355  0.111448  0  4.077133  0
C  C59  1  0.04206029  0.07489240  0.32206188  1  0  0.121338  0  3.837804  0  0  0.112084  0  4.093728  0  0  0.113011  0  4.118175  0  0  0.095335  0.111452  0  4.077197  0
C  C60  1  0.65254083  0.68097865  0.55808707  1  0  0.311816  0  4.08078  0  0  0.291892  0  4.380407  0  0  0.315773  0  4.392461  0  0  0.149703  0.276016  0  4.371752  0
C  C61  1  0.34746885  0.31902526  0.44190536  1  0  0.312107  0  4.081062  0  0  0.292196  0  4.380663  0  0  0.316076  0  4.39271  0  0  0.149883  0.27633  0  4.372007  0
C  C62  1  0.34244692  0.97620561  0.88899076  1  0  0.315694  0  4.084643  0  0  0.296195  0  4.381231  0  0  0.319951  0  4.394814  0  0  0.153548  0.281259  0  4.36823  0
C  C63  1  0.65755480  0.02379821  0.11100789  1  0  0.315618  0  4.084409  0  0  0.29612  0  4.381  0  0  0.319877  0  4.394586  0  0  0.153505  0.281183  0  4.368001  0
S  S64  1  0.69978411  0.58515001  0.45276887  1  0  -0.341697  0  2.069009  0  0  -0.320975  0  2.355864  0  0  -0.336198  0  2.352864  0  0  -0.144157  -0.310075  0  2.358693  0
S  S65  1  0.30021247  0.41485049  0.54723700  1  0  -0.341936  0  2.068729  0  0  -0.321223  0  2.355564  0  0  -0.336449  0  2.35256  0  0  -0.144224  -0.310325  0  2.358392  0
S  S66  1  0.18269660  0.00730321  0.96119534  1  0  -0.327171  0  2.100536  0  0  -0.313132  0  2.419872  0  0  -0.327109  0  2.416719  0  0  -0.150498  -0.303314  0  2.419177  0
S  S67  1  0.81729923  0.99269414  0.03880563  1  0  -0.32711  0  2.100712  0  0  -0.313072  0  2.420043  0  0  -0.327047  0  2.416892  0  0  -0.150466  -0.303246  0  2.419344  0
N  N68  1  0.81447701  0.96753735  0.72728193  1  0  -0.283089  0  3.26446  0  0  -0.22093  0  3.585563  0  0  -0.23415  0  3.594623  0  0  -0.218195  -0.212202  0  3.579195  0
N  N69  1  0.18552523  0.03246324  0.27271777  1  0  -0.283184  0  3.264636  0  0  -0.220981  0  3.585747  0  0  -0.234202  0  3.594806  0  0  -0.2182  -0.212253  0  3.579375  0
N  N70  1  0.79339357  0.10734343  0.73328772  1  0  -0.0453  0  2.853181  0  0  -0.065552  0  3.124083  0  0  -0.057496  0  3.132684  0  0  -0.065747  -0.070247  0  3.118089  0
N  N71  1  0.20660635  0.89265716  0.26671206  1  0  -0.045282  0  2.853251  0  0  -0.065554  0  3.124148  0  0  -0.057498  0  3.132745  0  0  -0.065753  -0.070244  0  3.118153  0
N  N72  1  0.92090548  0.15798091  0.68882518  1  0  0.018714  0  3.523447  0  0  0.136469  0  3.707377  0  0  0.126351  0  3.730532  0  0  -0.115796  0.142115  0  3.693395  0
N  N73  1  0.07909691  0.84201862  0.31117374  1  0  0.018722  0  3.523527  0  0  0.136476  0  3.707415  0  0  0.12636  0  3.730571  0  0  -0.11578  0.142114  0  3.693446  0
N  N74  1  0.71938719  0.67369243  0.88450531  1  0  -0.285997  0  3.24596  0  0  -0.226741  0  3.56263  0  0  -0.239472  0  3.57223  0  0  -0.216352  -0.218396  0  3.55649  0
N  N75  1  0.28061160  0.32630814  0.11549536  1  0  -0.286038  0  3.245977  0  0  -0.226854  0  3.562624  0  0  -0.239586  0  3.572223  0  0  -0.21639  -0.218513  0  3.556501  0
N  N76  1  0.82119693  0.57278679  0.84372130  1  0  -0.05817  0  2.889324  0  0  -0.06963  0  3.160415  0  0  -0.063423  0  3.17105  0  0  -0.069902  -0.073277  0  3.153129  0
N  N77  1  0.17880184  0.42721380  0.15627851  1  0  -0.05816  0  2.889306  0  0  -0.069585  0  3.160408  0  0  -0.063377  0  3.171041  0  0  -0.069888  -0.073245  0  3.153133  0
N  N78  1  0.83701676  0.45889950  0.92136784  1  0  0.021967  0  3.494783  0  0  0.134468  0  3.684077  0  0  0.124911  0  3.706354  0  0  -0.116051  0.139965  0  3.670084  0
N  N79  1  0.16298566  0.54110001  0.07863279  1  0  0.021864  0  3.494834  0  0  0.134328  0  3.684219  0  0  0.124765  0  3.706496  0  0  -0.116106  0.139868  0  3.670166  0
N  N80  1  0.61556387  0.75488498  0.63407496  1  0  -0.598083  0  3.014982  0  0  -0.53093  0  3.327204  0  0  -0.553043  0  3.325508  0  0  -0.425444  -0.515666  0  3.327761  0
N  N81  1  0.38442992  0.24511873  0.36593163  1  0  -0.598188  0  3.015559  0  0  -0.531059  0  3.327795  0  0  -0.553166  0  3.326096  0  0  -0.425578  -0.515807  0  3.328366  0
N  N82  1  0.46183474  0.95395055  0.83690871  1  0  -0.590992  0  3.023836  0  0  -0.517676  0  3.336455  0  0  -0.540503  0  3.334174  0  0  -0.429674  -0.502155  0  3.336089  0
N  N83  1  0.53816130  0.04605319  0.16309524  1  0  -0.590949  0  3.023407  0  0  -0.517628  0  3.336027  0  0  -0.540459  0  3.333748  0  0  -0.429639  -0.502106  0  3.335669  0
