# generated using pymatgen
data_CoH11C13N2O5
_symmetry_space_group_name_H-M   'P 1'
_cell_length_a   7.73096062
_cell_length_b   11.08906819
_cell_length_c   15.89859063
_cell_angle_alpha   106.07941230
_cell_angle_beta   90.00044664
_cell_angle_gamma   90.00056357
_symmetry_Int_Tables_number   1
_chemical_formula_structural   CoH11C13N2O5
_chemical_formula_sum   'Co4 H44 C52 N8 O20'
_cell_volume   1309.65144307
_cell_formula_units_Z   4
loop_
 _symmetry_equiv_pos_site_id
 _symmetry_equiv_pos_as_xyz
  1  'x, y, z'
loop_
 _atom_site_type_symbol
 _atom_site_label
 _atom_site_symmetry_multiplicity
 _atom_site_fract_x
 _atom_site_fract_y
 _atom_site_fract_z
 _atom_site_occupancy
 _atom_site_pbe_bader_charge
 _atom_site_pbe_bader_spin_density
 _atom_site_pbe_cm5_charge
 _atom_site_pbe_ddec_charge
 _atom_site_pbe_ddec_spin_density
 _atom_site_pbe_ddec_sum_bond_order
 _atom_site_pbe_magmom
Co  Co0  1  0.49860363  0.69286327  0.81599407  1  1.189884  2.54533  0.672508  0.818116  2.778684  2.445774  2.494
Co  Co1  1  0.99857782  0.30717463  0.68401132  1  1.19003  2.545307  0.672472  0.818098  2.778672  2.445767  2.494
Co  Co2  1  0.50139988  0.30713435  0.18400862  1  1.189727  2.545301  0.672545  0.818222  2.778662  2.446  2.494
Co  Co3  1  0.00142699  0.69281286  0.31598421  1  1.190142  2.54529  0.672467  0.818034  2.778658  2.44593  2.494
H  H4  1  0.79175980  0.80668967  0.76760760  1  0.628598  -2e-05  0.282736  0.36998  2.2e-05  0.966665  0.0
H  H5  1  0.29171368  0.19333185  0.73239151  1  0.62821  -1.9e-05  0.282823  0.370205  2.2e-05  0.966425  0.0
H  H6  1  0.20822302  0.19329523  0.23238172  1  0.628029  -1.9e-05  0.282714  0.369933  2.2e-05  0.966722  0.0
H  H7  1  0.70827560  0.80667214  0.26761756  1  0.627737  -1.9e-05  0.282847  0.370229  2.2e-05  0.966379  0.0
H  H8  1  0.65735277  0.85345152  0.71379070  1  0.596634  -0.000106  0.291966  0.381253  -9.9e-05  0.937149  0.0
H  H9  1  0.15730030  0.14657665  0.78620686  1  0.596176  -0.000106  0.291984  0.381167  -9.9e-05  0.937196  0.0
H  H10  1  0.34264686  0.14656339  0.28620494  1  0.596538  -0.000105  0.291935  0.381203  -9.9e-05  0.937197  0.0
H  H11  1  0.84269804  0.85341974  0.21380312  1  0.596131  -0.000106  0.291904  0.381084  -9.9e-05  0.937339  0.0
H  H12  1  0.33652205  0.47749261  0.78088590  1  0.489055  0.000469  0.296432  0.301625  0.000435  0.972273  0.0
H  H13  1  0.83651856  0.52254191  0.71910329  1  0.489124  0.000467  0.296537  0.301789  0.000435  0.972225  0.0
H  H14  1  0.66347628  0.52250311  0.21911702  1  0.489176  0.00047  0.296414  0.301575  0.000435  0.972392  0.0
H  H15  1  0.16349142  0.47745213  0.28089425  1  0.489025  0.000467  0.296579  0.301811  0.000435  0.972032  0.0
H  H16  1  0.48121715  0.48758565  0.86011363  1  0.494615  0.000302  0.300684  0.310226  0.000147  0.952022  0.0
H  H17  1  0.98120277  0.51243921  0.63988339  1  0.494474  0.000302  0.300754  0.310391  0.000147  0.952032  0.0
H  H18  1  0.51877213  0.51241382  0.13989009  1  0.494547  0.000302  0.30075  0.310263  0.000147  0.95199  0.0
H  H19  1  0.01880462  0.48754919  0.36011297  1  0.494432  0.000302  0.300761  0.310361  0.000147  0.952011  0.0
H  H20  1  0.86875301  0.69496996  0.06404495  1  0.11118  0.000698  0.106205  0.11561  0.000227  1.017137  0.0
H  H21  1  0.36871090  0.30502811  0.43594860  1  0.110675  0.000698  0.106096  0.115516  0.000226  1.017123  0.0
H  H22  1  0.13124145  0.30504479  0.93595505  1  0.111336  0.000698  0.106204  0.11558  0.000227  1.017211  0.0
H  H23  1  0.63128485  0.69495924  0.56405068  1  0.110503  0.000699  0.106104  0.11559  0.000226  1.017062  0.0
H  H24  1  0.39678145  0.57232683  0.01498713  1  0.098995  4e-06  0.109679  0.122633  -0.000202  1.014142  0.0
H  H25  1  0.89675957  0.42767530  0.48500472  1  0.099015  4e-06  0.109606  0.122492  -0.000202  1.014212  0.0
H  H26  1  0.60321559  0.42768694  0.98501393  1  0.09897  3e-06  0.109697  0.122689  -0.000202  1.014052  0.0
H  H27  1  0.10325040  0.57231215  0.51499206  1  0.099316  3e-06  0.109598  0.122558  -0.000202  1.014252  0.0
H  H28  1  0.07050971  0.59536229  0.80107273  1  0.080386  0.001075  0.110352  0.124355  0.000518  1.039574  0.0
H  H29  1  0.57048577  0.40468260  0.69891651  1  0.08058  0.001075  0.110328  0.12432  0.000518  1.039822  0.0
H  H30  1  0.92948087  0.40463261  0.19892687  1  0.08038  0.001075  0.110372  0.124331  0.000519  1.039695  0.0
H  H31  1  0.42950998  0.59531533  0.30107807  1  0.080519  0.001075  0.110322  0.124347  0.000518  1.039764  0.0
H  H32  1  0.23848478  0.84850386  0.77092299  1  0.132978  0.002545  0.122058  0.097403  0.000867  1.000451  0.002
H  H33  1  0.73843273  0.15154059  0.72908479  1  0.132632  0.002543  0.122119  0.097546  0.000867  1.00058  0.002
H  H34  1  0.76147345  0.15143524  0.22907684  1  0.133114  0.002546  0.122066  0.097408  0.000868  1.000205  0.002
H  H35  1  0.26153457  0.84846988  0.27090361  1  0.132721  0.002545  0.122119  0.097558  0.000867  1.000168  0.002
H  H36  1  0.98528547  0.96321922  0.84492928  1  0.127148  0.000908  0.11479  0.135668  0.00033  1.012233  0.001
H  H37  1  0.48524340  0.03680656  0.65506917  1  0.126475  0.000909  0.114702  0.135548  0.00033  1.012323  0.001
H  H38  1  0.01469087  0.03672555  0.15507047  1  0.13157  0.000907  0.114736  0.135578  0.00033  1.012245  0.001
H  H39  1  0.51474459  0.96322281  0.34491944  1  0.127234  0.000909  0.114716  0.135607  0.00033  1.012113  0.001
H  H40  1  0.22971058  0.96709779  0.09190400  1  0.125023  0.000775  0.111714  0.124205  0.000294  1.015045  0.0
H  H41  1  0.72970897  0.03291208  0.40810104  1  0.12517  0.000775  0.111717  0.124198  0.000294  1.015046  0.0
H  H42  1  0.77036149  0.03299911  0.90809944  1  0.124494  0.000776  0.111711  0.124108  0.000294  1.015302  0.0
H  H43  1  0.27030489  0.96705963  0.59188677  1  0.124375  0.000776  0.111721  0.124178  0.000294  1.015189  0.0
H  H44  1  0.46935106  0.84577270  0.00575577  1  0.127425  0.002013  0.123889  0.108564  0.000628  1.004051  0.002
H  H45  1  0.96933364  0.15425167  0.49426141  1  0.126507  0.002014  0.123881  0.108655  0.000628  1.004071  0.002
H  H46  1  0.53071454  0.15429684  0.99424569  1  0.126045  0.002014  0.123913  0.108481  0.000628  1.004372  0.002
H  H47  1  0.03069704  0.84572536  0.50573570  1  0.126387  0.002013  0.123915  0.108472  0.000628  1.004394  0.002
C  C48  1  0.95076402  0.64684609  0.92930901  1  0.004086  -0.001435  -0.020764  -0.028381  -0.002322  4.023918  -0.002
C  C49  1  0.45073980  0.35317916  0.57069693  1  0.005163  -0.001438  -0.020825  -0.028544  -0.002324  4.023725  -0.002
C  C50  1  0.04923561  0.35315913  0.07069276  1  0.00432  -0.001434  -0.020776  -0.028444  -0.00232  4.024254  -0.002
C  C51  1  0.54925595  0.64681286  0.42930395  1  0.004843  -0.001438  -0.020863  -0.028587  -0.002324  4.023857  -0.002
C  C52  1  0.97577875  0.66336108  0.01896249  1  -0.10365  0.016336  -0.081226  -0.117244  0.008533  3.945783  0.01
C  C53  1  0.47574265  0.33664868  0.48104217  1  -0.104602  0.016345  -0.081058  -0.116828  0.008538  3.945091  0.01
C  C54  1  0.02422347  0.33664866  0.98104464  1  -0.104281  0.016333  -0.081212  -0.117043  0.008531  3.945891  0.01
C  C55  1  0.52425569  0.66334619  0.51895806  1  -0.103922  0.016351  -0.08108  -0.116945  0.008541  3.944997  0.01
C  C56  1  0.13631554  0.63619025  0.04941749  1  0.035691  0.002144  -0.019999  -0.030716  0.000434  4.003248  0.001
C  C57  1  0.63629281  0.36381619  0.45058508  1  0.035549  0.002144  -0.019983  -0.031104  0.000434  4.003146  0.001
C  C58  1  0.86368926  0.36382159  0.95058441  1  0.03606  0.002145  -0.019963  -0.030885  0.000435  4.003385  0.001
C  C59  1  0.36370294  0.63617577  0.54941705  1  0.035365  0.002143  -0.019968  -0.031038  0.000432  4.003113  0.001
C  C60  1  0.27168878  0.59184868  0.99029681  1  -0.00188  0.013443  -0.076485  -0.167151  0.006682  3.890624  0.008
C  C61  1  0.77167455  0.40815444  0.50970978  1  -0.002141  0.013451  -0.076542  -0.166899  0.006685  3.890454  0.008
C  C62  1  0.72830826  0.40815368  0.00970562  1  -0.002131  0.013441  -0.076573  -0.16729  0.00668  3.890378  0.008
C  C63  1  0.22833025  0.59183370  0.49029344  1  -0.002288  0.013454  -0.076607  -0.167035  0.006686  3.890623  0.008
C  C64  1  0.24634083  0.57464359  0.90081668  1  0.280962  -0.003849  0.086686  0.269643  -0.004805  4.008932  -0.004
C  C65  1  0.74632116  0.42537722  0.59919241  1  0.281201  -0.003852  0.0867  0.269614  -0.004808  4.009257  -0.004
C  C66  1  0.75366009  0.42536055  0.09918865  1  0.280751  -0.003848  0.086748  0.269745  -0.004805  4.008791  -0.004
C  C67  1  0.25366941  0.57461843  0.40081238  1  0.281277  -0.003855  0.086735  0.269519  -0.004811  4.009213  -0.004
C  C68  1  0.08612751  0.60386254  0.87050061  1  0.036391  0.014903  -0.082791  -0.181711  0.007912  3.895794  0.009
C  C69  1  0.58609695  0.39616695  0.62949859  1  0.036626  0.014908  -0.082716  -0.181622  0.007914  3.896217  0.009
C  C70  1  0.91387730  0.39614456  0.12950156  1  0.036784  0.014904  -0.08283  -0.18172  0.007912  3.895971  0.009
C  C71  1  0.41390527  0.60382709  0.37049895  1  0.036254  0.014912  -0.082651  -0.181513  0.007915  3.896035  0.009
C  C72  1  0.77716808  0.67066998  0.89767136  1  1.49771  -0.00192  0.204024  0.553217  -0.003159  4.180714  -0.003
C  C73  1  0.27713309  0.32936091  0.60232722  1  1.496852  -0.001919  0.204022  0.553371  -0.003157  4.180255  -0.003
C  C74  1  0.22282767  0.32933524  0.10233041  1  1.497926  -0.00192  0.204063  0.553309  -0.00316  4.180568  -0.003
C  C75  1  0.72286783  0.67062766  0.39766476  1  1.497737  -0.001919  0.20407  0.553471  -0.003159  4.179903  -0.003
C  C76  1  0.16304374  0.64898096  0.14481163  1  1.560725  0.001314  0.207241  0.569659  0.001308  4.20877  0.001
C  C77  1  0.66302239  0.35099407  0.35517675  1  1.559707  0.001317  0.207082  0.569294  0.00131  4.208573  0.001
C  C78  1  0.83695072  0.35102614  0.85519054  1  1.560218  0.001314  0.207193  0.569596  0.001307  4.208847  0.001
C  C79  1  0.33698112  0.64900192  0.64481931  1  1.560022  0.001315  0.206991  0.569303  0.001308  4.208724  0.001
C  C80  1  0.23059725  0.87588552  0.84200293  1  0.51304  -0.000624  0.050979  0.109426  -0.000891  3.928891  0.001
C  C81  1  0.73055120  0.12415483  0.65801155  1  0.467559  -0.000556  0.050843  0.109339  -0.000894  3.928743  0.0
C  C82  1  0.76937780  0.12409634  0.15799142  1  0.513164  -0.000625  0.050818  0.109323  -0.000893  3.928576  0.0
C  C83  1  0.26941480  0.87584455  0.34199466  1  0.468676  -0.000563  0.050881  0.109162  -0.000896  3.928208  0.0
C  C84  1  0.08841176  0.94074011  0.88473435  1  -0.015027  0.005027  -0.077639  -0.159857  0.002444  3.891766  0.004
C  C85  1  0.58837487  0.05928831  0.61526840  1  0.031028  0.004957  -0.077465  -0.159837  0.002443  3.892016  0.004
C  C86  1  0.91158269  0.05923995  0.11525773  1  -0.019603  0.00503  -0.077432  -0.159629  0.002444  3.891096  0.004
C  C87  1  0.41161053  0.94072239  0.38473831  1  0.029531  0.004963  -0.077522  -0.159783  0.002445  3.890997  0.004
C  C88  1  0.07781217  0.97067901  0.97638185  1  -0.067986  -0.003773  0.014488  0.103553  -0.004572  3.970177  -0.002
C  C89  1  0.57778822  0.02933877  0.52362496  1  -0.103466  -0.003815  0.014543  0.10364  -0.004572  3.970035  -0.002
C  C90  1  0.92220299  0.02934553  0.02360951  1  -0.104365  -0.003814  0.014564  0.10351  -0.00457  3.969736  -0.002
C  C91  1  0.42218683  0.97065829  0.47639209  1  -0.068188  -0.003777  0.014513  0.103408  -0.004576  3.96983  -0.002
C  C92  1  0.22246158  0.94133680  0.02071004  1  -0.004743  0.003967  -0.075293  -0.156762  0.001573  3.91456  0.003
C  C93  1  0.72244619  0.05867592  0.47929310  1  -0.00487  0.003967  -0.075294  -0.156625  0.001573  3.914007  0.003
C  C94  1  0.77757945  0.05872180  0.97928094  1  -0.004908  0.003966  -0.075257  -0.156502  0.001572  3.914619  0.003
C  C95  1  0.27754568  0.94130748  0.52071038  1  -0.004524  0.003969  -0.075254  -0.156485  0.001575  3.914692  0.003
C  C96  1  0.35943883  0.87527709  0.97359502  1  0.505139  -7e-06  0.047071  0.092217  -0.001696  3.948634  0.0
C  C97  1  0.85941886  0.12474432  0.52641969  1  0.506425  -8e-06  0.047127  0.091951  -0.001695  3.948752  0.0
C  C98  1  0.64060219  0.12476448  0.02639616  1  0.506852  -4e-06  0.047021  0.092215  -0.001692  3.948749  0.0
C  C99  1  0.14059241  0.87524053  0.47359541  1  0.506264  -8e-06  0.046997  0.092128  -0.001696  3.94889  0.0
N  N100  1  0.38316069  0.53521962  0.83906159  1  -1.213049  0.071175  -0.601811  -0.60491  0.037597  3.438665  0.049
N  N101  1  0.88314129  0.46481303  0.66093595  1  -1.212902  0.071187  -0.601888  -0.605095  0.03759  3.439017  0.049
N  N102  1  0.61682730  0.46477514  0.16094176  1  -1.213  0.071172  -0.601918  -0.605002  0.037598  3.438871  0.049
N  N103  1  0.11686351  0.53518188  0.33906366  1  -1.212709  0.071182  -0.601937  -0.605068  0.037589  3.439096  0.049
N  N104  1  0.36200839  0.83859380  0.88504597  1  -1.312821  0.072613  -0.34903  -0.276422  0.03785  3.657703  0.049
N  N105  1  0.86197156  0.16144184  0.61496796  1  -1.313349  0.072611  -0.349001  -0.27622  0.037847  3.657634  0.049
N  N106  1  0.63799382  0.16141094  0.11494375  1  -1.313017  0.072615  -0.34888  -0.276271  0.03785  3.657597  0.049
N  N107  1  0.13800479  0.83854859  0.38504958  1  -1.313424  0.072618  -0.348955  -0.276134  0.037849  3.65717  0.049
O  O108  1  0.75649505  0.66585159  0.81496235  1  -1.155231  0.094043  -0.318007  -0.555543  0.048546  2.329207  0.074
O  O109  1  0.25647231  0.33417918  0.68503560  1  -1.155039  0.09405  -0.318083  -0.555642  0.048551  2.329047  0.074
O  O110  1  0.24351363  0.33414622  0.18503535  1  -1.1552  0.094044  -0.318056  -0.555649  0.048549  2.329169  0.074
O  O111  1  0.74352732  0.66581496  0.31495944  1  -1.155219  0.094035  -0.318067  -0.555605  0.048544  2.329144  0.074
O  O112  1  0.64859783  0.69324917  0.94799851  1  -1.152537  0.055225  -0.292358  -0.519729  0.02772  2.206188  0.048
O  O113  1  0.14856064  0.30678924  0.55200184  1  -1.15199  0.055219  -0.292276  -0.519796  0.027717  2.206247  0.048
O  O114  1  0.35140568  0.30676161  0.05200632  1  -1.152705  0.055232  -0.292354  -0.519728  0.027725  2.206106  0.048
O  O115  1  0.85144287  0.69319910  0.44799638  1  -1.152656  0.055239  -0.292333  -0.519849  0.027723  2.205877  0.048
O  O116  1  0.03234455  0.69627556  0.19503613  1  -1.166409  0.094196  -0.33486  -0.582989  0.049326  2.412351  0.072
O  O117  1  0.53231163  0.30368330  0.30495470  1  -1.16515  0.0942  -0.334648  -0.58271  0.049326  2.412334  0.072
O  O118  1  0.96765119  0.30372680  0.80496630  1  -1.166263  0.094199  -0.334868  -0.583027  0.049327  2.412128  0.072
O  O119  1  0.46768412  0.69630982  0.69504201  1  -1.165039  0.094187  -0.334586  -0.582678  0.049321  2.412399  0.072
O  O120  1  0.30152357  0.61443811  0.17190520  1  -1.180219  0.007373  -0.311629  -0.548307  0.002982  2.172978  0.006
O  O121  1  0.80152754  0.38553003  0.32809159  1  -1.180185  0.007374  -0.31165  -0.548181  0.002982  2.172798  0.006
O  O122  1  0.69846830  0.38556052  0.82809582  1  -1.180155  0.007371  -0.311565  -0.548193  0.00298  2.173049  0.006
O  O123  1  0.19847856  0.61445843  0.67190351  1  -1.18061  0.007372  -0.311629  -0.54824  0.002981  2.172642  0.006
O  O124  1  0.76028004  0.88151530  0.74945522  1  -1.243691  0.005882  -0.611757  -0.777773  0.002705  1.886304  0.004
O  O125  1  0.26022584  0.11850233  0.75054060  1  -1.242842  0.005881  -0.611856  -0.777899  0.002705  1.886145  0.004
O  O126  1  0.23972865  0.11847609  0.25053736  1  -1.242985  0.00588  -0.611704  -0.777666  0.002706  1.886438  0.004
O  O127  1  0.73978931  0.88150501  0.24947987  1  -1.242364  0.005881  -0.611771  -0.77787  0.002705  1.886175  0.004
