# generated using pymatgen
data_CuH10C10IN4
_symmetry_space_group_name_H-M   'P 1'
_cell_length_a   3.94854900
_cell_length_b   16.52082430
_cell_length_c   17.63267343
_cell_angle_alpha   89.27120594
_cell_angle_beta   83.89011259
_cell_angle_gamma   83.13664092
_symmetry_Int_Tables_number   1
_chemical_formula_structural   CuH10C10IN4
_chemical_formula_sum   'Cu4 H40 C40 I4 N16'
_cell_volume   1135.50756353
_cell_formula_units_Z   4
loop_
 _symmetry_equiv_pos_site_id
 _symmetry_equiv_pos_as_xyz
  1  'x, y, z'
loop_
 _atom_site_type_symbol
 _atom_site_label
 _atom_site_symmetry_multiplicity
 _atom_site_fract_x
 _atom_site_fract_y
 _atom_site_fract_z
 _atom_site_occupancy
 _atom_site_hle17_bader_spin_density
 _atom_site_hle17_ddec_charge
 _atom_site_hle17_ddec_spin_density
 _atom_site_hle17_ddec_sum_bond_order
 _atom_site_hle17_magmom
 _atom_site_hse06_10hf_bader_spin_density
 _atom_site_hse06_10hf_ddec_charge
 _atom_site_hse06_10hf_ddec_spin_density
 _atom_site_hse06_10hf_ddec_sum_bond_order
 _atom_site_hse06_10hf_magmom
 _atom_site_hse06_bader_spin_density
 _atom_site_hse06_ddec_charge
 _atom_site_hse06_ddec_spin_density
 _atom_site_hse06_ddec_sum_bond_order
 _atom_site_hse06_magmom
 _atom_site_pbe_bader_charge
 _atom_site_pbe_bader_spin_density
 _atom_site_pbe_cm5_charge
 _atom_site_pbe_ddec_charge
 _atom_site_pbe_ddec_spin_density
 _atom_site_pbe_ddec_sum_bond_order
 _atom_site_pbe_magmom
Cu  Cu0  1  0.43977744  0.97497594  0.78673815  1  0  0.350517  0  2.166028  0  0  0.257058  0  2.655701  0  0  0.254971  0  2.616149  0  0.50718  0  0.36052  0.260595  0  2.680914  0
Cu  Cu1  1  0.20152642  0.02508347  0.21314852  1  0  0.350791  0  2.165294  0  0  0.257259  0  2.655137  0  0  0.255227  0  2.615462  0  0.507016  0  0.360886  0.260811  0  2.680191  0
Cu  Cu2  1  0.16395956  0.52513848  0.28663680  1  0  0.349295  0  2.167845  0  0  0.255739  0  2.657489  0  0  0.253514  0  2.618177  0  0.5044  0  0.360368  0.259215  0  2.682549  0
Cu  Cu3  1  0.97656086  0.47487643  0.71317501  1  0  0.350229  0  2.163929  0  0  0.256692  0  2.653492  0  0  0.254588  0  2.614024  0  0.507371  0  0.360461  0.260227  0  2.678633  0
H  H4  1  0.05603327  0.69222525  0.75461896  1  0  0.10963  0  1.016302  0  0  0.115094  0  1.08695  0  0  0.120173  0  1.085285  0  0.120057  0  0.088422  0.11155  0  1.088319  0
H  H5  1  0.50279021  0.30790062  0.24589688  1  0  0.10938  0  1.016408  0  0  0.114592  0  1.087495  0  0  0.119752  0  1.085689  0  0.109798  0  0.088031  0.110998  0  1.088963  0
H  H6  1  0.49759674  0.80788002  0.25462636  1  0  0.11  0  1.013971  0  0  0.115082  0  1.085053  0  0  0.120226  0  1.083306  0  0.119273  0  0.088247  0.111482  0  1.086501  0
H  H7  1  0.55978584  0.19194771  0.74583129  1  0  0.108901  0  1.017074  0  0  0.114573  0  1.087418  0  0  0.119748  0  1.085593  0  0.115873  0  0.087994  0.110964  0  1.088907  0
H  H8  1  0.10683491  0.66843610  0.89400125  1  0  0.079157  0  0.926428  0  0  0.09218  0  0.9833  0  0  0.09451  0  0.980726  0  0.09879  0  0.118415  0.090421  0  0.985119  0
H  H9  1  0.66937545  0.33130019  0.10677525  1  0  0.079139  0  0.925524  0  0  0.092248  0  0.981994  0  0  0.094635  0  0.979423  0  0.09209  0  0.11825  0.090428  0  0.983871  0
H  H10  1  0.52504364  0.83147774  0.39401428  1  0  0.078591  0  0.924879  0  0  0.091328  0  0.982096  0  0  0.093782  0  0.979433  0  0.092762  0  0.118166  0.089499  0  0.983984  0
H  H11  1  0.74999438  0.16864691  0.60671703  1  0  0.078602  0  0.924963  0  0  0.091404  0  0.981896  0  0  0.093844  0  0.979264  0  0.098837  0  0.11782  0.089578  0  0.983786  0
H  H12  1  0.24083119  0.87129439  0.99994537  1  0  0.128776  0  0.948906  0  0  0.148312  0  1.013172  0  0  0.149746  0  1.013237  0  0.064363  0  0.094652  0.147275  0  1.013143  0
H  H13  1  0.11146015  0.12838886  0.99968798  1  0  0.129085  0  0.948078  0  0  0.148718  0  1.012292  0  0  0.150165  0  1.012387  0  0.054268  0  0.09512  0.147654  0  1.012291  0
H  H14  1  0.86164526  0.62860543  0.49985843  1  0  0.129259  0  0.947942  0  0  0.14921  0  1.011697  0  0  0.150668  0  1.01175  0  0.061203  0  0.095229  0.148154  0  1.011699  0
H  H15  1  0.98902474  0.37163200  0.49966229  1  0  0.129074  0  0.948336  0  0  0.148628  0  1.012545  0  0  0.150109  0  1.012566  0  0.065814  0  0.094867  0.147566  0  1.012537  0
H  H16  1  0.32140987  0.95616410  0.93989118  1  0  0.124285  0  0.979433  0  0  0.14015  0  1.047578  0  0  0.144687  0  1.043921  0  0.083572  0  0.083396  0.136782  0  1.050358  0
H  H17  1  0.21796289  0.04350269  0.05985744  1  0  0.121772  0  0.980901  0  0  0.138146  0  1.048668  0  0  0.142707  0  1.044963  0  0.084469  0  0.082628  0.134791  0  1.051444  0
H  H18  1  0.02687244  0.54379485  0.43970645  1  0  0.123271  0  0.980102  0  0  0.138899  0  1.048738  0  0  0.1435  0  1.045002  0  0.081201  0  0.082889  0.135531  0  1.05152  0
H  H19  1  0.01082010  0.45645416  0.55990954  1  0  0.123612  0  0.980109  0  0  0.139705  0  1.048064  0  0  0.144264  0  1.044389  0  0.083681  0  0.083394  0.136308  0  1.05086  0
H  H20  1  0.62026517  0.91631087  0.00497273  1  0  0.131113  0  0.960277  0  0  0.151143  0  1.022788  0  0  0.153519  0  1.022576  0  0.0689  0  0.090325  0.149482  0  1.022868  0
H  H21  1  0.54067350  0.08343029  0.99531885  1  0  0.131403  0  0.958627  0  0  0.150591  0  1.022058  0  0  0.152984  0  1.02182  0  0.074356  0  0.08998  0.148921  0  1.022154  0
H  H22  1  0.28614099  0.58358833  0.50478464  1  0  0.130956  0  0.960295  0  0  0.151091  0  1.022526  0  0  0.153466  0  1.022307  0  0.083013  0  0.09021  0.149421  0  1.022618  0
H  H23  1  0.37342631  0.41656009  0.49534421  1  0  0.131337  0  0.958759  0  0  0.15073  0  1.021858  0  0  0.153128  0  1.021614  0  0.075537  0  0.090132  0.149043  0  1.021975  0
H  H24  1  0.88089858  0.71617169  0.64307178  1  0  0.120835  0  0.970602  0  0  0.129196  0  1.031987  0  0  0.134038  0  1.030934  0  0.123  0  0.098634  0.125715  0  1.033073  0
H  H25  1  0.24203067  0.28396332  0.35718482  1  0  0.120474  0  0.970866  0  0  0.129218  0  1.031977  0  0  0.133955  0  1.031057  0  0.122663  0  0.098927  0.125787  0  1.032981  0
H  H26  1  0.34693984  0.78393419  0.14294677  1  0  0.121107  0  0.97039  0  0  0.12964  0  1.031639  0  0  0.134464  0  1.030653  0  0.126994  0  0.098982  0.126194  0  1.032604  0
H  H27  1  0.27652148  0.21597707  0.85715559  1  0  0.121309  0  0.970462  0  0  0.129599  0  1.032104  0  0  0.134445  0  1.031032  0  0.125934  0  0.09875  0.126146  0  1.033104  0
H  H28  1  0.73821721  0.76959912  0.51519730  1  0  0.072377  0  0.973093  0  0  0.075503  0  1.04827  0  0  0.079152  0  1.042648  0  0.106126  0  0.111302  0.072822  0  1.052236  0
H  H29  1  0.02570121  0.23063038  0.48475368  1  0  0.072203  0  0.97234  0  0  0.075492  0  1.047167  0  0  0.079111  0  1.04159  0  0.10179  0  0.111195  0.072824  0  1.051081  0
H  H30  1  0.26045703  0.73026899  0.01498034  1  0  0.07288  0  0.972029  0  0  0.075467  0  1.047759  0  0  0.079087  0  1.042162  0  0.104529  0  0.110949  0.072824  0  1.051695  0
H  H31  1  0.00845200  0.26941792  0.98479906  1  0  0.072332  0  0.972823  0  0  0.07586  0  1.047509  0  0  0.079428  0  1.042019  0  0.102864  0  0.11136  0.073221  0  1.051408  0
H  H32  1  0.43668275  0.04459582  0.55176191  1  0  0.136648  0  0.947377  0  0  0.15238  0  1.015314  0  0  0.153953  0  1.014693  0  0.061259  0  0.099107  0.151258  0  1.01577  0
H  H33  1  0.03444244  0.95577513  0.44796281  1  0  0.136711  0  0.947294  0  0  0.152424  0  1.015492  0  0  0.153962  0  1.014894  0  0.099604  0  0.099158  0.151313  0  1.015951  0
H  H34  1  0.23145859  0.45539091  0.05187778  1  0  0.137298  0  0.94689  0  0  0.152909  0  1.014748  0  0  0.154462  0  1.01415  0  0.101093  0  0.099275  0.151785  0  1.015211  0
H  H35  1  0.74037417  0.54410700  0.94811580  1  0  0.136642  0  0.947348  0  0  0.152537  0  1.015475  0  0  0.15414  0  1.014816  0  0.099942  0  0.098876  0.15141  0  1.015936  0
H  H36  1  0.35740938  0.05778593  0.65402762  1  0  0.113572  0  0.983965  0  0  0.124002  0  1.064375  0  0  0.128716  0  1.059871  0  0.069324  0  0.082944  0.120598  0  1.067564  0
H  H37  1  0.06681707  0.94246004  0.34571685  1  0  0.113695  0  0.985112  0  0  0.124607  0  1.064544  0  0  0.129284  0  1.060112  0  0.066617  0  0.082766  0.121256  0  1.067652  0
H  H38  1  0.16439058  0.44238918  0.15413636  1  0  0.113593  0  0.98474  0  0  0.124202  0  1.064861  0  0  0.128924  0  1.060374  0  0.064279  0  0.082717  0.120808  0  1.068016  0
H  H39  1  0.76020258  0.55757268  0.84587746  1  0  0.113513  0  0.985217  0  0  0.124326  0  1.064818  0  0  0.129006  0  1.060402  0  0.063129  0  0.082916  0.120949  0  1.067957  0
H  H40  1  0.04781613  0.02160106  0.60130038  1  0  0.133068  0  0.944846  0  0  0.157467  0  1.002109  0  0  0.158158  0  1.002923  0  0.085994  0  0.099831  0.156976  0  1.001518  0
H  H41  1  0.67063923  0.97895218  0.39815026  1  0  0.133982  0  0.944242  0  0  0.158128  0  1.001802  0  0  0.158832  0  1.002592  0  0.041463  0  0.09995  0.157636  0  1.001224  0
H  H42  1  0.81926236  0.47848321  0.10118068  1  0  0.134571  0  0.942596  0  0  0.158432  0  1.000587  0  0  0.159155  0  1.001342  0  0.038806  0  0.100254  0.157925  0  1.000029  0
H  H43  1  0.40024366  0.52101104  0.89809999  1  0  0.13363  0  0.943925  0  0  0.158214  0  1.001146  0  0  0.158894  0  1.001978  0  0.028978  0  0.100203  0.157722  0  1.00056  0
C  C44  1  0.61956473  0.84335707  0.90554216  1  0  0.47442  0  3.687535  0  0  0.468903  0  3.939831  0  0  0.483976  0  3.952151  0  1.047006  0  0.248823  0.458803  0  3.93155  0
C  C45  1  0.36882903  0.15637739  0.09461365  1  0  0.475599  0  3.686839  0  0  0.468427  0  3.941458  0  0  0.48353  0  3.953735  0  1.079629  0  0.249453  0.458324  0  3.93317  0
C  C46  1  0.21208042  0.65665858  0.40545383  1  0  0.472658  0  3.687325  0  0  0.465908  0  3.9421  0  0  0.481167  0  3.954161  0  1.063509  0  0.248029  0.455689  0  3.933944  0
C  C47  1  0.27447364  0.34353191  0.59459300  1  0  0.471821  0  3.68993  0  0  0.46736  0  3.941224  0  0  0.482473  0  3.953505  0  1.075888  0  0.24853  0.457249  0  3.932909  0
C  C48  1  0.73579406  0.80843848  0.77730202  1  0  0.21461  0  3.733816  0  0  0.205605  0  3.982117  0  0  0.217601  0  3.993579  0  0.479064  0  0.121054  0.197806  0  3.974287  0
C  C49  1  0.32159048  0.19160569  0.22286950  1  0  0.213711  0  3.730998  0  0  0.204922  0  3.979158  0  0  0.216877  0  3.99069  0  0.505313  0  0.120882  0.197148  0  3.971302  0
C  C50  1  0.29281117  0.69173142  0.27725248  1  0  0.211509  0  3.732659  0  0  0.202491  0  3.981874  0  0  0.214443  0  3.993292  0  0.438527  0  0.119441  0.194711  0  3.974057  0
C  C51  1  0.26279237  0.30830239  0.72286471  1  0  0.213089  0  3.73181  0  0  0.20316  0  3.981703  0  0  0.21512  0  3.99316  0  0.458965  0  0.120202  0.19539  0  3.973874  0
C  C52  1  0.92784031  0.73624249  0.79700361  1  0  -0.197146  0  3.70317  0  0  -0.216866  0  3.95437  0  0  -0.227468  0  3.971447  0  -0.015668  0  -0.08868  -0.210461  0  3.94322  0
C  C53  1  0.46119390  0.26374132  0.20343104  1  0  -0.197222  0  3.699756  0  0  -0.216704  0  3.950609  0  0  -0.227313  0  3.967542  0  -0.013608  0  -0.088913  -0.21027  0  3.939492  0
C  C54  1  0.41329390  0.76383961  0.29697513  1  0  -0.196944  0  3.700857  0  0  -0.21579  0  3.951481  0  0  -0.226412  0  3.968484  0  0.028459  0  -0.087896  -0.20937  0  3.940399  0
C  C55  1  0.47416792  0.23613140  0.70337122  1  0  -0.197417  0  3.702062  0  0  -0.216737  0  3.952966  0  0  -0.227384  0  3.969958  0  -0.00519  0  -0.089149  -0.210309  0  3.941882  0
C  C56  1  0.95605550  0.72294386  0.87423491  1  0  0.171291  0  3.710051  0  0  0.142371  0  3.96936  0  0  0.154854  0  3.981781  0  0.465092  0  0.055723  0.134548  0  3.960704  0
C  C57  1  0.55367802  0.27681499  0.12633160  1  0  0.17058  0  3.706558  0  0  0.141908  0  3.965724  0  0  0.154312  0  3.978237  0  0.508639  0  0.055091  0.134146  0  3.957035  0
C  C58  1  0.42851438  0.77703278  0.37421028  1  0  0.171998  0  3.707175  0  0  0.143237  0  3.966341  0  0  0.155585  0  3.978834  0  0.492803  0  0.056172  0.135484  0  3.957655  0
C  C59  1  0.57957455  0.22307663  0.62627320  1  0  0.171595  0  3.706666  0  0  0.143094  0  3.965935  0  0  0.155442  0  3.978399  0  0.487452  0  0.056089  0.135336  0  3.957277  0
C  C60  1  0.44083737  0.90069002  0.96551993  1  0  -0.409298  0  3.678418  0  0  -0.492532  0  3.909381  0  0  -0.49746  0  3.913041  0  -0.089063  0  -0.245231  -0.488856  0  3.906884  0
C  C61  1  0.30694134  0.09900420  0.03443554  1  0  -0.407431  0  3.678378  0  0  -0.490194  0  3.909837  0  0  -0.495146  0  3.913453  0  -0.087605  0  -0.244405  -0.48652  0  3.907311  0
C  C62  1  0.09094683  0.59924759  0.46536781  1  0  -0.408717  0  3.678172  0  0  -0.4919  0  3.909215  0  0  -0.496932  0  3.912722  0  -0.085811  0  -0.245336  -0.488183  0  3.906807  0
C  C63  1  0.15522300  0.40096423  0.53442874  1  0  -0.408782  0  3.678087  0  0  -0.492203  0  3.908632  0  0  -0.497216  0  3.912285  0  -0.089122  0  -0.245217  -0.488449  0  3.906138  0
C  C64  1  0.47794741  0.93386010  0.61652482  1  0  0.462542  0  3.695294  0  0  0.458029  0  3.945107  0  0  0.472022  0  3.959373  0  1.039494  0  0.244878  0.448757  0  3.935502  0
C  C65  1  0.02853710  0.06645172  0.38318017  1  0  0.466819  0  3.693913  0  0  0.461278  0  3.945051  0  0  0.475326  0  3.959207  0  1.037846  0  0.24664  0.451946  0  3.935563  0
C  C66  1  0.16167611  0.56623664  0.11645852  1  0  0.464663  0  3.695676  0  0  0.459135  0  3.94614  0  0  0.473169  0  3.960391  0  1.069417  0  0.245953  0.44983  0  3.936538  0
C  C67  1  0.84587284  0.43354415  0.88321952  1  0  0.464517  0  3.693255  0  0  0.459223  0  3.943742  0  0  0.473341  0  3.957787  0  1.061068  0  0.245844  0.449861  0  3.934286  0
C  C68  1  0.68275716  0.83194718  0.69816938  1  0  0.209565  0  3.728118  0  0  0.202341  0  3.971146  0  0  0.213264  0  3.984391  0  0.487689  0  0.118657  0.195211  0  3.962174  0
C  C69  1  0.21338350  0.16821465  0.30187192  1  0  0.211491  0  3.72611  0  0  0.204309  0  3.969221  0  0  0.215248  0  3.982514  0  0.421481  0  0.11943  0.197155  0  3.960233  0
C  C70  1  0.26368231  0.66823552  0.19810170  1  0  0.210706  0  3.726949  0  0  0.202796  0  3.970622  0  0  0.213875  0  3.983673  0  0.445738  0  0.118338  0.19556  0  3.961771  0
C  C71  1  0.13167934  0.33172208  0.80187533  1  0  0.210729  0  3.726708  0  0  0.204276  0  3.968997  0  0  0.215305  0  3.982098  0  0.453557  0  0.118839  0.197049  0  3.96014  0
C  C72  1  0.76576823  0.77878800  0.63641305  1  0  -0.188288  0  3.682391  0  0  -0.205846  0  3.929501  0  0  -0.216017  0  3.946227  0  -0.109643  0  -0.083304  -0.199576  0  3.918447  0
C  C73  1  0.18215853  0.22140797  0.36366805  1  0  -0.188308  0  3.681054  0  0  -0.206323  0  3.92807  0  0  -0.216471  0  3.94493  0  0.000187  0  -0.083271  -0.200034  0  3.916938  0
C  C74  1  0.29420487  0.72133617  0.13631609  1  0  -0.188596  0  3.681485  0  0  -0.20616  0  3.928504  0  0  -0.216409  0  3.945222  0  0.059495  0  -0.083417  -0.199826  0  3.917474  0
C  C75  1  0.15420247  0.27853303  0.86365509  1  0  -0.189663  0  3.681503  0  0  -0.207631  0  3.928851  0  0  -0.217861  0  3.945543  0  -0.076757  0  -0.083489  -0.201292  0  3.917838  0
C  C76  1  0.68747280  0.80858663  0.56540105  1  0  0.182962  0  3.706262  0  0  0.147398  0  3.978203  0  0  0.161593  0  3.986686  0  0.594174  0  0.058082  0.13844  0  3.972208  0
C  C77  1  0.06283240  0.19170141  0.43449034  1  0  0.183854  0  3.7064  0  0  0.148541  0  3.97821  0  0  0.162789  0  3.986645  0  0.525027  0  0.058635  0.139557  0  3.972232  0
C  C78  1  0.24705265  0.69141195  0.06526420  1  0  0.182267  0  3.707017  0  0  0.147193  0  3.978997  0  0  0.161443  0  3.987476  0  0.46656  0  0.05876  0.138177  0  3.97303  0
C  C79  1  0.00603242  0.30830726  0.93451433  1  0  0.18437  0  3.706766  0  0  0.148634  0  3.97861  0  0  0.162876  0  3.987165  0  0.597271  0  0.058899  0.139634  0  3.972627  0
C  C80  1  0.32454736  0.01978182  0.60540880  1  0  -0.41064  0  3.690083  0  0  -0.497652  0  3.930458  0  0  -0.50071  0  3.933493  0  -0.069095  0  -0.241493  -0.495251  0  3.928209  0
C  C81  1  0.94950028  0.98059218  0.39422711  1  0  -0.413434  0  3.690074  0  0  -0.499856  0  3.930135  0  0  -0.502954  0  3.93331  0  -0.085764  0  -0.242732  -0.497467  0  3.927826  0
C  C82  1  0.09403629  0.48030489  0.10542484  1  0  -0.413432  0  3.688584  0  0  -0.499741  0  3.929502  0  0  -0.502806  0  3.932458  0  -0.082392  0  -0.242142  -0.497358  0  3.927352  0
C  C83  1  0.68074966  0.51938079  0.89430217  1  0  -0.411923  0  3.689191  0  0  -0.499345  0  3.929555  0  0  -0.502464  0  3.932564  0  -0.066742  0  -0.242343  -0.496915  0  3.927339  0
I  I84  1  0.88273501  0.06450018  0.82574628  1  0  -0.445392  0  1.62777  0  0  -0.381764  0  2.070464  0  0  -0.409006  0  2.040654  0  -0.429932  0  -0.191289  -0.363619  0  2.091705  0
I  I85  1  0.77095366  0.93540072  0.17444666  1  0  -0.445649  0  1.626253  0  0  -0.382384  0  2.069616  0  0  -0.409706  0  2.039986  0  -0.430101  0  -0.191896  -0.364223  0  2.090663  0
I  I86  1  0.69643115  0.43565481  0.32568841  1  0  -0.444852  0  1.628358  0  0  -0.381228  0  2.071135  0  0  -0.408396  0  2.041476  0  -0.428913  0  -0.191343  -0.363076  0  2.092236  0
I  I87  1  0.45652707  0.56459420  0.67441644  1  0  -0.445277  0  1.624906  0  0  -0.381604  0  2.067297  0  0  -0.408894  0  2.037508  0  -0.429408  0  -0.19123  -0.363426  0  2.088527  0
N  N88  1  0.80196134  0.77531962  0.92841760  1  0  -0.394154  0  2.997418  0  0  -0.357437  0  3.261642  0  0  -0.372389  0  3.273291  0  -1.19062  0  -0.314637  -0.347656  0  3.253751  0
N  N89  1  0.50654622  0.22429779  0.07198514  1  0  -0.394334  0  2.991485  0  0  -0.357392  0  3.25658  0  0  -0.372364  0  3.26826  0  -1.221783  0  -0.314763  -0.347599  0  3.24864  0
N  N90  1  0.32677895  0.72463751  0.42836610  1  0  -0.39274  0  2.995667  0  0  -0.355555  0  3.260323  0  0  -0.370584  0  3.27199  0  -1.219787  0  -0.313746  -0.345717  0  3.252411  0
N  N91  1  0.48003768  0.27562187  0.57194349  1  0  -0.393118  0  2.994689  0  0  -0.356844  0  3.258532  0  0  -0.371792  0  3.270235  0  -1.212048  0  -0.31463  -0.347065  0  3.250595  0
N  N92  1  0.58450482  0.86242863  0.83171062  1  0  -0.394012  0  3.218348  0  0  -0.336658  0  3.500392  0  0  -0.346901  0  3.503313  0  -1.18492  0  -0.348677  -0.330245  0  3.497964  0
N  N93  1  0.27857179  0.13751494  0.16832069  1  0  -0.393638  0  3.218188  0  0  -0.335936  0  3.500983  0  0  -0.346134  0  3.503876  0  -1.214992  0  -0.348232  -0.329547  0  3.498562  0
N  N94  1  0.19559279  0.63770834  0.33162735  1  0  -0.390586  0  3.215063  0  0  -0.33353  0  3.498324  0  0  -0.343828  0  3.501209  0  -1.212054  0  -0.347821  -0.32702  0  3.495844  0
N  N95  1  0.16572470  0.36240959  0.66831954  1  0  -0.390469  0  3.215807  0  0  -0.333867  0  3.498734  0  0  -0.344128  0  3.501699  0  -1.214541  0  -0.347131  -0.327412  0  3.496229  0
N  N96  1  0.54353513  0.88523500  0.55504694  1  0  -0.386002  0  2.966753  0  0  -0.348014  0  3.22722  0  0  -0.363565  0  3.239808  0  -1.200856  0  -0.312281  -0.337911  0  3.218681  0
N  N97  1  0.98455680  0.11513351  0.44463120  1  0  -0.388535  0  2.969089  0  0  -0.35042  0  3.23021  0  0  -0.365969  0  3.242771  0  -1.196654  0  -0.314089  -0.340304  0  3.221698  0
N  N98  1  0.17976628  0.61475687  0.05492060  1  0  -0.386872  0  2.968462  0  0  -0.348583  0  3.229348  0  0  -0.364174  0  3.241957  0  -1.206396  0  -0.313591  -0.338456  0  3.220816  0
N  N99  1  0.85121323  0.38488126  0.94469428  1  0  -0.387808  0  2.966499  0  0  -0.349533  0  3.227291  0  0  -0.365111  0  3.2398  0  -1.198614  0  -0.314007  -0.339407  0  3.218806  0
N  N100  1  0.54005688  0.91003558  0.68808675  1  0  -0.390213  0  3.217961  0  0  -0.33012  0  3.500836  0  0  -0.341139  0  3.504647  0  -1.210578  0  -0.34862  -0.323266  0  3.497785  0
N  N101  1  0.13854952  0.09014332  0.31180822  1  0  -0.392568  0  3.21897  0  0  -0.332112  0  3.502143  0  0  -0.343202  0  3.506029  0  -1.18184  0  -0.349109  -0.325205  0  3.499073  0
N  N102  1  0.19915276  0.59013553  0.18803164  1  0  -0.391327  0  3.220948  0  0  -0.329672  0  3.502816  0  0  -0.340767  0  3.506623  0  -1.206774  0  -0.348351  -0.32272  0  3.499711  0
N  N103  1  0.97886350  0.40981170  0.81180861  1  0  -0.391198  0  3.218638  0  0  -0.330576  0  3.501017  0  0  -0.341638  0  3.504721  0  -1.210291  0  -0.348477  -0.323664  0  3.498024  0
