# generated using pymatgen
data_Cd8H26C24N36Cl4O
_symmetry_space_group_name_H-M   'P 1'
_cell_length_a   13.28327252
_cell_length_b   13.28328737
_cell_length_c   17.92949564
_cell_angle_alpha   68.69809721
_cell_angle_beta   68.69799950
_cell_angle_gamma   77.29328002
_symmetry_Int_Tables_number   1
_chemical_formula_structural   Cd8H26C24N36Cl4O
_chemical_formula_sum   'Cd16 H52 C48 N72 Cl8 O2'
_cell_volume   2731.92371217
_cell_formula_units_Z   2
loop_
 _symmetry_equiv_pos_site_id
 _symmetry_equiv_pos_as_xyz
  1  'x, y, z'
loop_
 _atom_site_type_symbol
 _atom_site_label
 _atom_site_symmetry_multiplicity
 _atom_site_fract_x
 _atom_site_fract_y
 _atom_site_fract_z
 _atom_site_occupancy
 _atom_site_pbe_bader_charge
 _atom_site_pbe_bader_spin_density
 _atom_site_pbe_cm5_charge
 _atom_site_pbe_ddec_charge
 _atom_site_pbe_ddec_spin_density
 _atom_site_pbe_ddec_sum_bond_order
 _atom_site_pbe_magmom
Cd  Cd0  1  0.20022836  0.39564846  0.13640443  1  1.217006  0  0.746807  0.706218  0  2.379957  0
Cd  Cd1  1  0.60435096  0.79977101  0.36359558  1  1.217057  0  0.746846  0.706244  0  2.379965  0
Cd  Cd2  1  0.79977191  0.60435132  0.86359424  1  1.217135  0  0.746832  0.706256  0  2.379969  0
Cd  Cd3  1  0.39564931  0.20022877  0.63640645  1  1.217008  0  0.746822  0.706264  0  2.379902  0
Cd  Cd4  1  0.31398116  0.53020975  0.87335517  1  1.210943  0  0.749018  0.748129  0  2.324334  0
Cd  Cd5  1  0.46978917  0.68602101  0.62664520  1  1.210911  0  0.749025  0.748102  0  2.324359  0
Cd  Cd6  1  0.68602156  0.46979060  0.12664326  1  1.210882  0  0.749063  0.748163  0  2.324368  0
Cd  Cd7  1  0.53021354  0.31398014  0.37335412  1  1.210967  0  0.749025  0.748132  0  2.324297  0
Cd  Cd8  1  0.99999916  0.00000075  0.49999859  1  1.198348  0  0.708726  0.71103  0  2.488828  0
Cd  Cd9  1  0.99999851  0.00000097  0.00000074  1  1.198423  0  0.708737  0.711055  0  2.488786  0
Cd  Cd10  1  0.29700452  0.90716509  0.42063529  1  1.200802  0  0.693819  0.714527  0  2.455328  0
Cd  Cd11  1  0.09283321  0.70299543  0.07936616  1  1.200689  0  0.693828  0.714526  0  2.455294  0
Cd  Cd12  1  0.70299737  0.09283614  0.57936535  1  1.200773  0  0.693839  0.714499  0  2.455284  0
Cd  Cd13  1  0.90716219  0.29700644  0.92063605  1  1.200807  0  0.693825  0.714496  0  2.455328  0
Cd  Cd14  1  0.99999859  0.49999924  0.49999883  1  1.224853  0  0.773499  0.69873  0  2.458139  0
Cd  Cd15  1  0.50000135  0.99999836  0.00000057  1  1.224933  0  0.77352  0.6988  0  2.458078  0
H  H16  1  0.29731673  0.33252940  0.30924584  1  0.099311  0  0.123553  0.079129  0  1.030051  0
H  H17  1  0.66747565  0.70268752  0.19075184  1  0.099377  0  0.123553  0.079103  0  1.029966  0
H  H18  1  0.70268841  0.66747475  0.69075147  1  0.099364  0  0.123535  0.079119  0  1.029962  0
H  H19  1  0.33252218  0.29731654  0.80924802  1  0.099376  0  0.123548  0.079136  0  1.029995  0
H  H20  1  0.49588091  0.42316069  0.05791265  1  0.17264  0  0.120896  0.092864  0  1.022869  0
H  H21  1  0.57684404  0.50411950  0.44208777  1  0.172713  0  0.120919  0.092897  0  1.022802  0
H  H22  1  0.50411853  0.57684644  0.94208818  1  0.172836  0  0.12092  0.092902  0  1.022766  0
H  H23  1  0.42315948  0.49588157  0.55791304  1  0.172682  0  0.120899  0.092886  0  1.022823  0
H  H24  1  0.76030664  0.35756255  0.56167030  1  0.114129  0  0.124243  0.09164  0  1.007545  0
H  H25  1  0.64243696  0.23969099  0.93833142  1  0.114167  0  0.124246  0.09162  0  1.007594  0
H  H26  1  0.23969283  0.64243731  0.43832858  1  0.11416  0  0.124242  0.091626  0  1.007545  0
H  H27  1  0.35756169  0.76030733  0.06167087  1  0.114178  0  0.124259  0.091663  0  1.007525  0
H  H28  1  0.08718792  0.22723433  0.50535256  1  0.104153  0  0.124599  0.089865  0  1.013264  0
H  H29  1  0.77276393  0.91281150  0.99464758  1  0.104166  0  0.124586  0.089849  0  1.013333  0
H  H30  1  0.91281074  0.77276319  0.49464772  1  0.104132  0  0.12457  0.089842  0  1.013253  0
H  H31  1  0.22723391  0.08718851  0.00535392  1  0.104141  0  0.12459  0.089866  0  1.01322  0
H  H32  1  0.33898172  0.15337665  0.23334883  1  0.135203  0  0.130427  0.097949  0  0.992468  0
H  H33  1  0.84662157  0.66102021  0.26664953  1  0.135233  0  0.130424  0.097924  0  0.992509  0
H  H34  1  0.66102262  0.84662191  0.76664908  1  0.135331  0  0.130435  0.097907  0  0.992528  0
H  H35  1  0.15337545  0.33898231  0.73335040  1  0.135207  0  0.130449  0.097915  0  0.99244  0
H  H36  1  0.99986021  0.22392546  0.31249727  1  0.121125  0  0.125629  0.092425  0  0.99491  0
H  H37  1  0.77607309  0.00014017  0.18750228  1  0.121106  0  0.125621  0.092398  0  0.994935  0
H  H38  1  0.00014413  0.77607392  0.68750098  1  0.121051  0  0.125623  0.09241  0  0.99492  0
H  H39  1  0.22392556  0.99986058  0.81249824  1  0.12113  0  0.125621  0.092365  0  0.994887  0
H  H40  1  0.84780440  0.65468022  0.08411390  1  0.116546  0  0.127148  0.092149  0  1.002643  0
H  H41  1  0.34531685  0.15219396  0.41588796  1  0.116548  0  0.127174  0.092161  0  1.002627  0
H  H42  1  0.15219263  0.34531826  0.91588711  1  0.116562  0  0.127178  0.092172  0  1.002652  0
H  H43  1  0.65468262  0.84780509  0.58411448  1  0.11651  0  0.127169  0.092173  0  1.002638  0
H  H44  1  0.95317805  0.32292945  0.12112465  1  0.1442  0  0.113815  0.093322  0  1.043048  0
H  H45  1  0.67706933  0.04682370  0.37887510  1  0.144238  0  0.113804  0.093263  0  1.043026  0
H  H46  1  0.04682223  0.67706952  0.87887648  1  0.144264  0  0.113795  0.093255  0  1.043001  0
H  H47  1  0.32292932  0.95317786  0.62112410  1  0.144227  0  0.113802  0.093266  0  1.043052  0
H  H48  1  0.29103504  0.14425863  0.11778095  1  0.131148  0  0.129076  0.088527  0  1.028918  0
H  H49  1  0.85573962  0.70896833  0.38221759  1  0.131109  0  0.129104  0.088542  0  1.028907  0
H  H50  1  0.70896849  0.85574001  0.88221938  1  0.131134  0  0.129075  0.088514  0  1.028894  0
H  H51  1  0.14426066  0.29103387  0.61778099  1  0.131148  0  0.129096  0.088525  0  1.028893  0
H  H52  1  0.48283995  0.28258461  0.86959891  1  0.132631  0  0.134387  0.099474  0  0.988336  0
H  H53  1  0.71740821  0.51716243  0.63039840  1  0.127723  0  0.134363  0.099425  0  0.98826  0
H  H54  1  0.51716521  0.71740902  0.13039898  1  0.132838  0  0.134356  0.099402  0  0.988273  0
H  H55  1  0.28259288  0.48283565  0.36960052  1  0.128096  0  0.13437  0.099407  0  0.988317  0
H  H56  1  0.06880150  0.70381787  0.28912864  1  0.103256  0  0.132371  0.102052  0  0.97453  0
H  H57  1  0.29618288  0.93119554  0.21087351  1  0.103335  0  0.132389  0.102082  0  0.974571  0
H  H58  1  0.93119797  0.29618037  0.71087178  1  0.103216  0  0.132364  0.102035  0  0.974533  0
H  H59  1  0.70381984  0.06879995  0.78912901  1  0.103215  0  0.132376  0.102076  0  0.974528  0
H  H60  1  0.07005364  0.36662842  0.35492037  1  0.101905  0  0.121995  0.08181  0  1.037284  0
H  H61  1  0.63336792  0.92994203  0.14508430  1  0.101557  0  0.12204  0.081884  0  1.037242  0
H  H62  1  0.92994664  0.63336974  0.64508042  1  0.101927  0  0.12202  0.081865  0  1.037246  0
H  H63  1  0.36662993  0.07005233  0.85492039  1  0.101922  0  0.122009  0.081818  0  1.037242  0
H  H64  1  0.21904123  0.73760465  0.72474469  1  0.609874  0  0.323677  0.405505  0  0.877812  0
H  H65  1  0.26239372  0.78095881  0.77525709  1  0.609855  0  0.323663  0.405467  0  0.877821  0
H  H66  1  0.78095416  0.26240207  0.27525567  1  0.609908  0  0.323704  0.405532  0  0.877696  0
H  H67  1  0.73759599  0.21904443  0.22474628  1  0.609923  0  0.323725  0.405589  0  0.877599  0
C  C68  1  0.36612248  0.35633980  0.25313696  1  0.941306  0  0.122279  0.123397  0  4.037842  0
C  C69  1  0.64366121  0.63388022  0.24686220  1  0.941163  0  0.122224  0.123372  0  4.037744  0
C  C70  1  0.63388104  0.64366047  0.74686239  1  0.941352  0  0.122251  0.123334  0  4.037758  0
C  C71  1  0.35633337  0.36612255  0.75313888  1  0.941125  0  0.122184  0.123246  0  4.037836  0
C  C72  1  0.46561286  0.40228648  0.12599315  1  0.918791  0  0.126644  0.142144  0  3.994  0
C  C73  1  0.59771629  0.53438620  0.37400705  1  0.918616  0  0.126572  0.142017  0  3.993735  0
C  C74  1  0.53438660  0.59771742  0.87400687  1  0.918704  0  0.126582  0.142063  0  3.993727  0
C  C75  1  0.40228398  0.46561358  0.62599442  1  0.918752  0  0.126599  0.14208  0  3.993946  0
C  C76  1  0.83420201  0.30298785  0.55101572  1  0.968961  0  0.128324  0.135103  0  3.997475  0
C  C77  1  0.69701176  0.16579715  0.94898383  1  0.968698  0  0.128363  0.135235  0  3.997631  0
C  C78  1  0.16579745  0.69701200  0.44898259  1  0.968711  0  0.128377  0.135254  0  3.997604  0
C  C79  1  0.30298689  0.83420279  0.05101691  1  0.968816  0  0.128299  0.135115  0  3.997499  0
C  C80  1  0.99933195  0.23754706  0.52183151  1  0.980236  0  0.119782  0.116812  0  4.032271  0
C  C81  1  0.76245156  0.00066707  0.97816769  1  0.979996  0  0.119744  0.116813  0  4.032331  0
C  C82  1  0.00066752  0.76245199  0.47816758  1  0.980063  0  0.119748  0.116794  0  4.032222  0
C  C83  1  0.23754628  0.99933214  0.02183347  1  0.980098  0  0.119767  0.116832  0  4.032281  0
C  C84  1  0.25335445  0.15017788  0.26903832  1  0.924943  0  0.12107  0.115202  0  4.034565  0
C  C85  1  0.84982163  0.74664679  0.23095991  1  0.924658  0  0.121042  0.115142  0  4.034689  0
C  C86  1  0.74664907  0.84982238  0.73095935  1  0.924647  0  0.121013  0.115144  0  4.0347  0
C  C87  1  0.15017702  0.25335476  0.76904040  1  0.924991  0  0.120959  0.115161  0  4.034558  0
C  C88  1  0.08221026  0.18687988  0.30890652  1  0.935969  0  0.126916  0.131454  0  4.013246  0
C  C89  1  0.81311844  0.91779035  0.19109174  1  0.935974  0  0.126933  0.131473  0  4.013228  0
C  C90  1  0.91779489  0.81311941  0.69109097  1  0.935888  0  0.126877  0.131418  0  4.013236  0
C  C91  1  0.18687939  0.08221129  0.80890877  1  0.93611  0  0.126957  0.131576  0  4.013124  0
C  C92  1  0.89590153  0.57650842  0.09471415  1  0.982542  0  0.127552  0.128673  0  4.015407  0
C  C93  1  0.42348887  0.10409879  0.40528651  1  0.982487  0  0.127453  0.12854  0  4.015319  0
C  C94  1  0.10409712  0.42348991  0.90528647  1  0.982521  0  0.127476  0.128548  0  4.015287  0
C  C95  1  0.57650978  0.89590195  0.59471458  1  0.982555  0  0.127476  0.128545  0  4.015343  0
C  C96  1  0.94935559  0.40834875  0.11425288  1  0.974442  0  0.128097  0.138594  0  3.976484  0
C  C97  1  0.59164829  0.05064305  0.38574764  1  0.974455  0  0.128116  0.138654  0  3.976525  0
C  C98  1  0.05064307  0.59164876  0.88574907  1  0.974305  0  0.128115  0.138703  0  3.976344  0
C  C99  1  0.40835036  0.94935607  0.61425220  1  0.974305  0  0.128099  0.138668  0  3.976405  0
C  C100  1  0.32625343  0.20174844  0.05692105  1  0.940945  0  0.128887  0.128565  0  4.009704  0
C  C101  1  0.79824902  0.67375042  0.44307647  1  0.940954  0  0.128856  0.128566  0  4.009768  0
C  C102  1  0.67375254  0.79824996  0.94307758  1  0.940932  0  0.12894  0.128685  0  4.009843  0
C  C103  1  0.20175126  0.32625016  0.55692199  1  0.940943  0  0.12887  0.128631  0  4.009766  0
C  C104  1  0.42308360  0.27171526  0.93155182  1  0.935607  0  0.126785  0.121719  0  4.019247  0
C  C105  1  0.72828078  0.57692080  0.56844578  1  0.94059  0  0.126805  0.121709  0  4.018892  0
C  C106  1  0.57692237  0.72828233  0.06844424  1  0.935521  0  0.126848  0.1218  0  4.018982  0
C  C107  1  0.27171950  0.42307817  0.43155311  1  0.940186  0  0.126859  0.121809  0  4.01885  0
C  C108  1  0.07847252  0.62204642  0.28582972  1  0.942106  0  0.123726  0.121175  0  4.026661  0
C  C109  1  0.37795232  0.92152070  0.21417339  1  0.942044  0  0.123757  0.121217  0  4.026478  0
C  C110  1  0.92152695  0.37795263  0.71416993  1  0.942103  0  0.12375  0.121254  0  4.026631  0
C  C111  1  0.62204717  0.07847027  0.78583121  1  0.942248  0  0.123693  0.121125  0  4.026654  0
C  C112  1  0.07954137  0.45153654  0.31899510  1  1.01164  0  0.12133  0.120386  0  4.018469  0
C  C113  1  0.54846219  0.92045482  0.18100770  1  1.012076  0  0.121361  0.120398  0  4.018532  0
C  C114  1  0.92045810  0.54846250  0.68100566  1  1.01202  0  0.12131  0.120316  0  4.018534  0
C  C115  1  0.45153729  0.07953938  0.81899548  1  1.011903  0  0.121366  0.120437  0  4.018424  0
N  N116  1  0.35464418  0.35288737  0.95497054  1  -0.768857  0  -0.261371  -0.21836  0  3.449808  0
N  N117  1  0.64710763  0.64536080  0.54502502  1  -0.768831  0  -0.261303  -0.218225  0  3.449166  0
N  N118  1  0.64536260  0.64710853  0.04502632  1  -0.768845  0  -0.261357  -0.21826  0  3.449278  0
N  N119  1  0.35289346  0.35463970  0.45497380  1  -0.768934  0  -0.261317  -0.218212  0  3.449209  0
N  N120  1  0.29195384  0.30740728  0.03621332  1  -0.749286  0  -0.262933  -0.202584  0  3.453208  0
N  N121  1  0.69259311  0.70805265  0.46378333  1  -0.749588  0  -0.262991  -0.202617  0  3.453148  0
N  N122  1  0.70805375  0.69259339  0.96378427  1  -0.749503  0  -0.262998  -0.202685  0  3.453224  0
N  N123  1  0.30740716  0.29194955  0.53621637  1  -0.749504  0  -0.262984  -0.202687  0  3.453227  0
N  N124  1  0.40826080  0.17538228  0.99349774  1  -1.213014  0  -0.361369  -0.326093  0  3.474226  0
N  N125  1  0.82461181  0.59174111  0.50650102  1  -1.212716  0  -0.361394  -0.32613  0  3.474251  0
N  N126  1  0.59174517  0.82461370  0.00650099  1  -1.212836  0  -0.361441  -0.326253  0  3.474515  0
N  N127  1  0.17538766  0.40825874  0.49349730  1  -1.212738  0  -0.361433  -0.326226  0  3.474246  0
N  N128  1  0.11777873  0.48833223  0.23523040  1  -0.790036  0  -0.264183  -0.198748  0  3.469673  0
N  N129  1  0.51166802  0.88221940  0.26477035  1  -0.79013  0  -0.26422  -0.198736  0  3.469778  0
N  N130  1  0.88221911  0.51166698  0.76476852  1  -0.790492  0  -0.264177  -0.198663  0  3.469631  0
N  N131  1  0.48833307  0.11777949  0.73523169  1  -0.790406  0  -0.264204  -0.198757  0  3.46964  0
N  N132  1  0.11669399  0.59857871  0.21345026  1  -0.752  0  -0.262266  -0.219575  0  3.420335  0
N  N133  1  0.40142101  0.88329963  0.28655302  1  -0.752085  0  -0.262304  -0.21964  0  3.420201  0
N  N134  1  0.88330385  0.40142050  0.78654979  1  -0.751923  0  -0.26226  -0.219613  0  3.420223  0
N  N135  1  0.59858009  0.11669441  0.71345088  1  -0.75204  0  -0.262231  -0.219549  0  3.420185  0
N  N136  1  0.05375631  0.53248385  0.35375818  1  -1.22085  0  -0.367313  -0.338054  0  3.495014  0
N  N137  1  0.46751450  0.94624191  0.14624312  1  -1.220751  0  -0.367353  -0.338162  0  3.494871  0
N  N138  1  0.94624235  0.46751528  0.64624167  1  -1.220923  0  -0.367338  -0.338146  0  3.495005  0
N  N139  1  0.53248416  0.05375399  0.85375927  1  -1.220873  0  -0.367345  -0.338121  0  3.495006  0
N  N140  1  0.21564896  0.07391304  0.34224541  1  -0.767687  0  -0.257433  -0.215492  0  3.429598  0
N  N141  1  0.92608470  0.78435158  0.15775347  1  -0.7673  0  -0.257399  -0.215434  0  3.429707  0
N  N142  1  0.78435457  0.92608560  0.65775381  1  -0.767267  0  -0.257349  -0.215399  0  3.429762  0
N  N143  1  0.07391151  0.21565022  0.84224687  1  -0.767754  0  -0.257374  -0.215435  0  3.42952  0
N  N144  1  0.10539005  0.09807366  0.36794309  1  -0.74516  0  -0.261434  -0.19921  0  3.471328  0
N  N145  1  0.90192484  0.89461199  0.13205525  1  -0.745238  0  -0.261471  -0.199212  0  3.471335  0
N  N146  1  0.89461428  0.90192652  0.63205495  1  -0.745297  0  -0.261482  -0.199223  0  3.471353  0
N  N147  1  0.09807218  0.10538973  0.86794490  1  -0.745194  0  -0.261484  -0.199285  0  3.471319  0
N  N148  1  0.17273266  0.22341571  0.24522857  1  -1.210467  0  -0.364417  -0.346226  0  3.44006  0
N  N149  1  0.77658185  0.82726766  0.25477106  1  -1.210504  0  -0.364412  -0.346207  0  3.439961  0
N  N150  1  0.82727168  0.77658285  0.75476878  1  -1.210428  0  -0.364372  -0.346179  0  3.440023  0
N  N151  1  0.22341598  0.17273317  0.74523022  1  -1.210581  0  -0.364371  -0.346193  0  3.439998  0
N  N152  1  0.83498213  0.19988795  0.55655001  1  -0.755511  0  -0.261184  -0.201186  0  3.467093  0
N  N153  1  0.80011057  0.16501708  0.94344921  1  -0.755439  0  -0.261298  -0.201407  0  3.467308  0
N  N154  1  0.16501733  0.80011190  0.44344774  1  -0.755446  0  -0.26134  -0.201506  0  3.467438  0
N  N155  1  0.19988646  0.83498221  0.05655158  1  -0.755472  0  -0.261285  -0.201398  0  3.467158  0
N  N156  1  0.94142134  0.15800490  0.53751558  1  -0.766655  0  -0.264371  -0.201313  0  3.477144  0
N  N157  1  0.84199459  0.05857678  0.96248362  1  -0.766613  0  -0.264209  -0.201119  0  3.477027  0
N  N158  1  0.05857732  0.84199504  0.46248293  1  -0.766603  0  -0.264193  -0.201069  0  3.47713  0
N  N159  1  0.15800325  0.94142324  0.03751732  1  -0.766694  0  -0.264213  -0.201143  0  3.477029  0
N  N160  1  0.93581158  0.33055138  0.52938222  1  -1.230951  0  -0.364182  -0.341904  0  3.460803  0
N  N161  1  0.66944700  0.06418572  0.97061868  1  -1.230618  0  -0.364224  -0.342013  0  3.460831  0
N  N162  1  0.06418707  0.66944694  0.47061728  1  -1.230609  0  -0.364177  -0.341947  0  3.460752  0
N  N163  1  0.33055003  0.93581276  0.02938344  1  -1.230685  0  -0.364197  -0.34195  0  3.460896  0
N  N164  1  0.03244324  0.45534779  0.10776291  1  -0.745595  0  -0.256301  -0.206723  0  3.427217  0
N  N165  1  0.54465054  0.96755685  0.39223730  1  -0.745612  0  -0.256305  -0.206727  0  3.427242  0
N  N166  1  0.96755541  0.54465215  0.89223783  1  -0.745597  0  -0.256319  -0.206819  0  3.427128  0
N  N167  1  0.45534811  0.03244470  0.60776245  1  -0.745549  0  -0.256301  -0.206796  0  3.427112  0
N  N168  1  0.99761829  0.56367192  0.09538645  1  -0.771883  0  -0.261045  -0.2005  0  3.46274  0
N  N169  1  0.43632644  0.00237990  0.40461500  1  -0.772024  0  -0.261029  -0.200483  0  3.462661  0
N  N170  1  0.00237874  0.43632737  0.90461546  1  -0.772022  0  -0.261011  -0.200403  0  3.462566  0
N  N171  1  0.56367303  0.99761996  0.59538554  1  -0.771998  0  -0.260997  -0.20039  0  3.462597  0
N  N172  1  0.86146901  0.48142966  0.10678182  1  -1.246961  0  -0.369453  -0.328649  0  3.517601  0
N  N173  1  0.51856885  0.13853170  0.39321726  1  -1.246883  0  -0.369411  -0.328557  0  3.517503  0
N  N174  1  0.13853046  0.51856938  0.89321782  1  -1.24688  0  -0.36943  -0.328606  0  3.517498  0
N  N175  1  0.48142980  0.86146904  0.60678271  1  -1.246893  0  -0.369438  -0.328606  0  3.517539  0
N  N176  1  0.36398501  0.37695917  0.17397089  1  -1.198159  0  -0.35831  -0.33277  0  3.444274  0
N  N177  1  0.62304703  0.63601573  0.32602796  1  -1.198192  0  -0.358267  -0.332703  0  3.444141  0
N  N178  1  0.63601688  0.62304610  0.82602810  1  -1.198411  0  -0.358274  -0.332679  0  3.444132  0
N  N179  1  0.37695649  0.36398534  0.67397284  1  -1.198033  0  -0.358259  -0.332681  0  3.444224  0
N  N180  1  0.52686483  0.39762882  0.17244459  1  -0.765351  0  -0.271242  -0.205333  0  3.4844  0
N  N181  1  0.60237743  0.47313531  0.32755380  1  -0.765933  0  -0.271188  -0.205243  0  3.484177  0
N  N182  1  0.47313625  0.60237734  0.82755439  1  -0.766132  0  -0.271213  -0.205364  0  3.484289  0
N  N183  1  0.39762609  0.52686495  0.67244555  1  -0.765519  0  -0.2712  -0.205334  0  3.484376  0
N  N184  1  0.46228005  0.36829945  0.25499184  1  -0.752965  0  -0.259837  -0.223176  0  3.409716  0
N  N185  1  0.63170371  0.53772141  0.24500704  1  -0.752009  0  -0.259836  -0.223179  0  3.409596  0
N  N186  1  0.53772184  0.63170259  0.74500747  1  -0.751986  0  -0.259795  -0.223086  0  3.409604  0
N  N187  1  0.36829575  0.46228168  0.75499376  1  -0.752783  0  -0.259777  -0.223038  0  3.409581  0
Cl  Cl188  1  0.27639915  0.58439166  0.01389719  1  -0.649408  0  -0.294891  -0.484781  0  1.343864  0
Cl  Cl189  1  0.41560628  0.72359982  0.48610281  1  -0.649419  0  -0.294903  -0.484788  0  1.343838  0
Cl  Cl190  1  0.72359869  0.41560917  0.98610018  1  -0.649435  0  -0.294895  -0.484777  0  1.343863  0
Cl  Cl191  1  0.58439480  0.27640149  0.51389746  1  -0.649418  0  -0.294904  -0.48481  0  1.343842  0
Cl  Cl192  1  0.17231521  0.94937317  0.56156350  1  -0.686525  0  -0.362157  -0.546883  0  1.108134  0
Cl  Cl193  1  0.05062550  0.82768392  0.93843689  1  -0.686541  0  -0.362147  -0.54688  0  1.108118  0
Cl  Cl194  1  0.82768425  0.05062669  0.43843593  1  -0.686531  0  -0.362148  -0.546884  0  1.108156  0
Cl  Cl195  1  0.94937234  0.17231852  0.06156396  1  -0.686544  0  -0.362143  -0.546887  0  1.108141  0
O  O196  1  0.27660315  0.72339609  0.75000059  1  -1.193331  0  -0.556615  -0.73221  0  2.03347  0
O  O197  1  0.72338899  0.27661015  0.25000133  1  -1.193404  0  -0.556697  -0.732371  0  2.03321  0
