# generated using pymatgen
data_Zn2H21C46S(NO10)2
_symmetry_space_group_name_H-M   'P 1'
_cell_length_a   16.51866555
_cell_length_b   17.84928671
_cell_length_c   30.57468850
_cell_angle_alpha   90.24270326
_cell_angle_beta   90.09584707
_cell_angle_gamma   89.98575595
_symmetry_Int_Tables_number   1
_chemical_formula_structural   Zn2H21C46S(NO10)2
_chemical_formula_sum   'Zn4 H42 C92 S2 N4 O40'
_cell_volume   9014.74300552
_cell_formula_units_Z   2
loop_
 _symmetry_equiv_pos_site_id
 _symmetry_equiv_pos_as_xyz
  1  'x, y, z'
loop_
 _atom_site_type_symbol
 _atom_site_label
 _atom_site_symmetry_multiplicity
 _atom_site_fract_x
 _atom_site_fract_y
 _atom_site_fract_z
 _atom_site_occupancy
 _atom_site_pbe_bader_charge
 _atom_site_pbe_bader_spin_density
 _atom_site_pbe_cm5_charge
 _atom_site_pbe_ddec_charge
 _atom_site_pbe_ddec_spin_density
 _atom_site_pbe_ddec_sum_bond_order
 _atom_site_pbe_magmom
Zn  Zn0  1  0.58495930  0.50188692  0.50213042  1  1.283018  0  0.668333  0.814853  0  2.430242  0
Zn  Zn1  1  0.41571239  0.49973986  0.50194522  1  1.268768  0  0.67689  0.818747  0  2.438615  0
Zn  Zn2  1  0.41502456  0.50414237  0.91753995  1  1.281748  0  0.668586  0.815246  0  2.429436  0
Zn  Zn3  1  0.58428312  0.50202031  0.91765871  1  1.270056  0  0.67709  0.819581  0  2.439796  0
H  H4  1  0.28513926  0.57194050  0.55431135  1  0.161176  0  0.140429  0.117541  0  0.955241  0
H  H5  1  0.13340997  0.57508484  0.55450686  1  0.115079  0  0.130378  0.143695  0  0.959354  0
H  H6  1  0.28897193  0.42003540  0.45121399  1  0.150841  0  0.140701  0.121424  0  0.968888  0
H  H7  1  0.71332902  0.58731008  0.54925741  1  0.177253  0  0.13863  0.119899  0  0.973273  0
H  H8  1  0.71494746  0.41470645  0.45801643  1  0.123592  0  0.140899  0.123427  0  0.947827  0
H  H9  1  0.86704301  0.41268096  0.45632792  1  0.121016  0  0.130133  0.144145  0  0.959522  0
H  H10  1  0.62793100  0.74221827  0.50417751  1  0.11474  0  0.113566  0.11917  0  0.984138  0
H  H11  1  0.62346661  0.88182854  0.50169579  1  0.06639  0  0.113607  0.120895  0  0.979538  0
H  H12  1  0.36820394  0.73541952  0.49669358  1  0.147085  0  0.115606  0.126992  0  0.997792  0
H  H13  1  0.63421422  0.26368894  0.49774798  1  0.118767  0  0.114  0.123912  0  1.003669  0
H  H14  1  0.37438376  0.26256102  0.50499970  1  0.114369  0  0.117729  0.124724  0  0.97701  0
H  H15  1  0.37537062  0.12283998  0.50160365  1  0.096745  0  0.115105  0.121812  0  0.976639  0
H  H16  1  0.37217088  0.50716556  0.05791650  1  0.112808  0  0.111566  0.115624  0  0.988268  0
H  H17  1  0.37534972  0.50542463  0.13958105  1  0.088557  0  0.113018  0.119584  0  0.980507  0
H  H18  1  0.63192908  0.49491708  0.05549213  1  0.154757  0  0.116835  0.128407  0  0.99711  0
H  H19  1  0.36795987  0.49219147  0.36406396  1  0.141308  0  0.116853  0.130789  0  0.993101  0
H  H20  1  0.62767407  0.50482935  0.36174693  1  0.105851  0  0.111746  0.116129  0  0.98823  0
H  H21  1  0.62450359  0.50442845  0.28007646  1  0.095438  0  0.113124  0.120149  0  0.980283  0
H  H22  1  0.71477250  0.57384464  0.86546044  1  0.146742  0  0.140504  0.117718  0  0.95481  0
H  H23  1  0.86650497  0.57684402  0.86518453  1  0.11023  0  0.130422  0.143307  0  0.959655  0
H  H24  1  0.71105226  0.42285929  0.96827422  1  0.1677  0  0.140779  0.121858  0  0.968357  0
H  H25  1  0.28671558  0.58929452  0.87048746  1  0.167534  0  0.1383  0.119118  0  0.973515  0
H  H26  1  0.28492415  0.41755408  0.96144500  1  0.143295  0  0.140987  0.119146  0  0.953171  0
H  H27  1  0.13283878  0.41560122  0.96303573  1  0.115154  0  0.130442  0.144159  0  0.959317  0
H  H28  1  0.37215638  0.74440708  0.91461121  1  0.109661  0  0.113603  0.11911  0  0.984294  0
H  H29  1  0.37655630  0.88409616  0.91655149  1  0.093795  0  0.113694  0.120832  0  0.979846  0
H  H30  1  0.63188049  0.73775587  0.92203098  1  0.151564  0  0.115501  0.127589  0  0.998767  0
H  H31  1  0.36612225  0.26615799  0.92152158  1  0.133606  0  0.114097  0.123777  0  1.003254  0
H  H32  1  0.62591287  0.26464880  0.91409592  1  0.148095  0  0.117744  0.124907  0  0.977677  0
H  H33  1  0.62477442  0.12491296  0.91686640  1  0.093403  0  0.11516  0.121626  0  0.97666  0
H  H34  1  0.03197538  0.45062431  0.43851064  1  0.592227  0  0.30725  0.335225  0  0.966089  0
H  H35  1  0.97338968  0.60100925  0.53440083  1  0.606133  0  0.303205  0.331701  0  0.979228  0
H  H36  1  0.37980435  0.97669441  0.48444610  1  0.615282  0  0.295832  0.329051  0  0.992487  0
H  H37  1  0.61639054  0.02239448  0.48616197  1  0.609402  0  0.293012  0.325825  0  1.000934  0
H  H38  1  0.61818189  0.47717450  0.19619260  1  0.593851  0  0.294777  0.328016  0  0.994867  0
H  H39  1  0.38169364  0.47646630  0.22322786  1  0.601415  0  0.294698  0.327677  0  0.995798  0
H  H40  1  0.96802605  0.45377199  0.98099149  1  0.597945  0  0.307711  0.335657  0  0.964562  0
H  H41  1  0.02665149  0.60318718  0.88533898  1  0.600563  0  0.303432  0.331824  0  0.979181  0
H  H42  1  0.62019513  0.97921549  0.93364185  1  0.586627  0  0.295728  0.328788  0  0.992393  0
H  H43  1  0.38363944  0.02494134  0.93218731  1  0.594732  0  0.293477  0.326058  0  0.999365  0
H  H44  1  0.33142026  0.58121061  0.68734796  1  0.589299  0  0.332282  0.369046  0  0.883525  0
H  H45  1  0.66828651  0.58139940  0.73255519  1  0.600362  0  0.332083  0.368822  0  0.882618  0
C  C46  1  0.50037559  0.64621375  0.50091270  1  1.614802  0  0.216826  0.592186  0  4.172803  0
C  C47  1  0.49813418  0.50116116  0.58683401  1  1.651097  0  0.209403  0.599988  0  4.223423  0
C  C48  1  0.50413902  0.35564016  0.50253358  1  1.549114  0  0.217795  0.59202  0  4.169703  0
C  C49  1  0.49952687  0.49741271  0.41694711  1  1.602628  0  0.216611  0.592515  0  4.173724  0
C  C50  1  0.49965143  0.64848961  0.91835603  1  1.560249  0  0.216831  0.591361  0  4.174784  0
C  C51  1  0.50165850  0.50224163  0.83283057  1  1.634904  0  0.208617  0.599424  0  4.224032  0
C  C52  1  0.49622531  0.35788581  0.91696309  1  1.589338  0  0.218256  0.592737  0  4.169986  0
C  C53  1  0.50038696  0.50044987  0.00266159  1  1.535582  0  0.21617  0.592214  0  4.172296  0
C  C54  1  0.24971121  0.53933274  0.53092482  1  0.547364  0  0.083331  0.133861  0  3.87371  0
C  C55  1  0.16585604  0.54064773  0.53085514  1  0.001314  0  -0.052809  -0.143676  0  3.865201  0
C  C56  1  0.12334938  0.49663819  0.50007581  1  0.114938  0  0.026525  0.144289  0  4.083382  0
C  C57  1  0.16800431  0.45091329  0.47075532  1  0.043791  0  0.006351  -0.131569  0  3.90022  0
C  C58  1  0.25237901  0.45386090  0.47344606  1  0.516921  0  0.087217  0.115299  0  3.851002  0
C  C59  1  0.03764592  0.49917470  0.50015760  1  -0.155758  0  -0.005951  -0.077531  0  4.060004  0
C  C60  1  0.96375848  0.50297543  0.50189759  1  -0.343318  0  -0.011744  -0.091765  0  4.067806  0
C  C61  1  0.87806835  0.50407943  0.50326908  1  0.131959  0  0.02731  0.149582  0  4.082382  0
C  C62  1  0.83387188  0.55397038  0.53041852  1  0.040523  0  0.003412  -0.136063  0  3.899986  0
C  C63  1  0.74941050  0.54984794  0.52885362  1  0.534453  0  0.083397  0.112364  0  3.855815  0
C  C64  1  0.75102217  0.45344616  0.47767137  1  0.596408  0  0.078024  0.117034  0  3.890308  0
C  C65  1  0.83488182  0.45274350  0.47690133  1  -0.050322  0  -0.056731  -0.151201  0  3.878219  0
C  C66  1  0.49836503  0.73020340  0.50021201  1  -0.041386  0  -0.006271  -0.018903  0  3.944386  0
C  C67  1  0.57035119  0.77173511  0.50188112  1  0.030854  0  -0.068978  -0.070541  0  3.962773  0
C  C68  1  0.56765983  0.84929570  0.50050209  1  -0.069987  0  -0.074922  -0.116707  0  3.932296  0
C  C69  1  0.49279656  0.88751179  0.49779069  1  0.127699  0  0.005405  0.112175  0  4.099784  0
C  C70  1  0.41953789  0.84560223  0.49672561  1  -0.016204  0  -0.008899  -0.100362  0  3.926115  0
C  C71  1  0.42422548  0.76750701  0.49778116  1  -0.016341  0  -0.063227  -0.078455  0  3.915984  0
C  C72  1  0.49507475  0.96675533  0.49682283  1  -0.07401  0  -0.024965  -0.10636  0  4.106314  0
C  C73  1  0.50189619  0.03522435  0.49668931  1  -0.441872  0  -0.023567  -0.102035  0  4.105115  0
C  C74  1  0.50583740  0.11441565  0.49771192  1  0.177504  0  0.005588  0.11156  0  4.098148  0
C  C75  1  0.58016648  0.15474097  0.49659694  1  -0.016314  0  -0.009422  -0.10125  0  3.927243  0
C  C76  1  0.57737947  0.23286640  0.49844028  1  0.016029  0  -0.063104  -0.079362  0  3.923413  0
C  C77  1  0.50423905  0.27168309  0.50126178  1  0.022003  0  -0.005256  -0.018246  0  3.943365  0
C  C78  1  0.43117803  0.23178776  0.50254998  1  0.037565  0  -0.064064  -0.063316  0  3.946359  0
C  C79  1  0.43195900  0.15418126  0.50066147  1  -0.109783  0  -0.072971  -0.114816  0  3.926294  0
C  C80  1  0.43069033  0.49459412  0.66330508  1  0.036784  0  -0.024216  -0.112931  0  4.01669  0
C  C81  1  0.56898181  0.49499452  0.75636480  1  0.025534  0  -0.023101  -0.111918  0  4.016528  0
C  C82  1  0.49652085  0.49504745  0.63511091  1  -0.147526  0  -0.008223  -0.102143  0  3.904503  0
C  C83  1  0.50316093  0.49572332  0.78455009  1  -0.166315  0  -0.008815  -0.10342  0  3.908318  0
C  C84  1  0.54228344  0.49445832  0.71208637  1  -0.19876  0  -0.027099  -0.056586  0  4.096333  0
C  C85  1  0.45739573  0.49444177  0.70758966  1  -0.14714  0  -0.026543  -0.054299  0  4.092719  0
C  C86  1  0.50173611  0.50014775  0.05169998  1  0.012923  0  -0.006005  -0.017749  0  3.94288  0
C  C87  1  0.42942101  0.50367066  0.07555106  1  -0.113138  0  -0.06992  -0.071267  0  3.967132  0
C  C88  1  0.43140336  0.50280100  0.12086198  1  0.017757  0  -0.075587  -0.117049  0  3.935514  0
C  C89  1  0.50597323  0.49894245  0.14355876  1  0.201811  0  0.005168  0.112191  0  4.099866  0
C  C90  1  0.57958484  0.49652014  0.11947927  1  -0.004406  0  -0.00776  -0.099195  0  3.92562  0
C  C91  1  0.57556817  0.49689577  0.07385970  1  -0.011748  0  -0.060862  -0.076509  0  3.914968  0
C  C92  1  0.50316075  0.49820571  0.18981308  1  -0.459425  0  -0.024512  -0.104064  0  4.108538  0
C  C93  1  0.49667162  0.49787301  0.22978045  1  -0.063222  0  -0.024585  -0.104637  0  4.108618  0
C  C94  1  0.49389209  0.49781922  0.27603809  1  0.067305  0  0.004459  0.111662  0  4.098876  0
C  C95  1  0.42029285  0.49488497  0.30009295  1  -0.025909  0  -0.007728  -0.099231  0  3.923367  0
C  C96  1  0.42431377  0.49451102  0.34571286  1  0.008977  0  -0.060742  -0.078453  0  3.911285  0
C  C97  1  0.49813422  0.49753162  0.36790468  1  -0.067661  0  -0.006787  -0.018052  0  3.943463  0
C  C98  1  0.57043887  0.50152448  0.34408387  1  0.052102  0  -0.069818  -0.071567  0  3.967586  0
C  C99  1  0.56845885  0.50137560  0.29876979  1  -0.03098  0  -0.076093  -0.118114  0  3.93612  0
C  C100  1  0.75023093  0.54140328  0.88875957  1  0.553749  0  0.08355  0.13373  0  3.87439  0
C  C101  1  0.83408461  0.54265424  0.88878388  1  0.009956  0  -0.053248  -0.142681  0  3.866297  0
C  C102  1  0.87662613  0.49892055  0.91946970  1  0.118138  0  0.027031  0.142473  0  4.085228  0
C  C103  1  0.83202496  0.45352672  0.94874952  1  -0.040275  0  0.00639  -0.128753  0  3.89805  0
C  C104  1  0.74763766  0.45646399  0.94609583  1  0.60165  0  0.086697  0.11392  0  3.850223  0
C  C105  1  0.96232984  0.50145263  0.91934543  1  -0.387131  0  -0.006043  -0.077753  0  4.06034  0
C  C106  1  0.03619495  0.50538897  0.91756462  1  -0.002273  0  -0.01184  -0.091584  0  4.067052  0
C  C107  1  0.12189015  0.50653943  0.91624282  1  0.015765  0  0.026972  0.148422  0  4.081494  0
C  C108  1  0.16614262  0.55618670  0.88921982  1  0.031643  0  0.003006  -0.13454  0  3.898332  0
C  C109  1  0.25060658  0.55203590  0.89081180  1  0.543044  0  0.084424  0.113377  0  3.85535  0
C  C110  1  0.24889243  0.45611732  0.94182615  1  0.424428  0  0.078453  0.119604  0  3.891106  0
C  C111  1  0.16504359  0.45545241  0.94254670  1  0.115975  0  -0.05734  -0.14984  0  3.876328  0
C  C112  1  0.50169130  0.73247960  0.91861005  1  -0.008829  0  -0.007145  -0.018057  0  3.944807  0
C  C113  1  0.42970930  0.77399397  0.91677334  1  -0.039282  0  -0.06876  -0.070329  0  3.963101  0
C  C114  1  0.43238269  0.85157933  0.91785697  1  -0.001821  0  -0.075082  -0.116921  0  3.932283  0
C  C115  1  0.50725365  0.88980956  0.92043426  1  0.03989  0  0.005169  0.111727  0  4.100397  0
C  C116  1  0.58052592  0.84791334  0.92161142  1  0.023181  0  -0.009096  -0.09933  0  3.927294  0
C  C117  1  0.57583684  0.76979701  0.92084146  1  -0.018586  0  -0.062447  -0.080024  0  3.918923  0
C  C118  1  0.50493587  0.96907236  0.92129748  1  0.106665  0  -0.024981  -0.106677  0  4.108731  0
C  C119  1  0.49815095  0.03753625  0.92151516  1  -0.512183  0  -0.023848  -0.102081  0  4.105791  0
C  C120  1  0.49428481  0.11672303  0.92076796  1  0.050134  0  0.005679  0.112115  0  4.097786  0
C  C121  1  0.42001587  0.15715127  0.92213456  1  -0.037972  0  -0.00924  -0.102218  0  3.927497  0
C  C122  1  0.42290410  0.23525985  0.92062448  1  -0.007568  0  -0.063772  -0.07954  0  3.922101  0
C  C123  1  0.49608407  0.27394949  0.91792330  1  0.075597  0  -0.005695  -0.017614  0  3.941233  0
C  C124  1  0.56910223  0.23394901  0.91643041  1  -0.132  0  -0.063674  -0.064085  0  3.945672  0
C  C125  1  0.56822063  0.15634788  0.91796071  1  0.015143  0  -0.072927  -0.114334  0  3.926074  0
C  C126  1  0.13397355  0.39698397  0.43741935  1  1.565828  0  0.236852  0.574415  0  4.128367  0
C  C127  1  0.86819046  0.61117772  0.56180991  1  1.562777  0  0.233188  0.572359  0  4.134244  0
C  C128  1  0.33518301  0.87786086  0.49501240  1  1.543753  0  0.225068  0.569129  0  4.125186  0
C  C129  1  0.66373936  0.12103711  0.49351287  1  1.535361  0  0.224331  0.570057  0  4.127031  0
C  C130  1  0.66371816  0.49451177  0.13872094  1  1.548452  0  0.225905  0.570041  0  4.12379  0
C  C131  1  0.33616204  0.49316711  0.28084310  1  1.542471  0  0.225688  0.56994  0  4.123758  0
C  C132  1  0.86615835  0.39995500  0.98199440  1  1.5651  0  0.23588  0.572723  0  4.129888  0
C  C133  1  0.13184526  0.61321073  0.85797564  1  1.566538  0  0.233715  0.570739  0  4.135544  0
C  C134  1  0.66486797  0.88022313  0.92317896  1  1.540336  0  0.225924  0.56978  0  4.125868  0
C  C135  1  0.33641490  0.12360029  0.92521673  1  1.551345  0  0.22497  0.569728  0  4.124874  0
C  C136  1  0.34341946  0.49373580  0.64997453  1  1.54416  0  0.232001  0.597451  0  4.11285  0
C  C137  1  0.65625115  0.49420850  0.76970668  1  1.553065  0  0.231705  0.597433  0  4.113306  0
S  S138  1  0.58925266  0.49326473  0.66175852  1  0.264612  0  0.098309  0.14504  0  2.790212  0
S  S139  1  0.41041904  0.49373387  0.75792297  1  0.28463  0  0.098303  0.144833  0  2.78958  0
N  N140  1  0.29186134  0.49735261  0.50220333  1  -1.228204  0  -0.305423  -0.18001  0  3.494254  0
N  N141  1  0.70930985  0.50176439  0.50302517  1  -1.235994  0  -0.307034  -0.181341  0  3.500079  0
N  N142  1  0.70812881  0.49969809  0.91741714  1  -1.235245  0  -0.305079  -0.180441  0  3.496294  0
N  N143  1  0.29066410  0.50415900  0.91657036  1  -1.235629  0  -0.307607  -0.182022  0  3.500502  0
O  O144  1  0.56824868  0.61530038  0.50931786  1  -1.169473  0  -0.317987  -0.549507  0  2.316673  0
O  O145  1  0.43413320  0.61255513  0.49290053  1  -1.162462  0  -0.313688  -0.539094  0  2.320829  0
O  O146  1  0.43270570  0.51942138  0.56789091  1  -1.157902  0  -0.308712  -0.530626  0  2.336017  0
O  O147  1  0.56640921  0.48842987  0.56884916  1  -1.157903  0  -0.317929  -0.541936  0  2.304235  0
O  O148  1  0.43717483  0.38760651  0.51121594  1  -1.159782  0  -0.311954  -0.538108  0  2.313602  0
O  O149  1  0.57108468  0.38831454  0.49463590  1  -1.167393  0  -0.315429  -0.546311  0  2.329424  0
O  O150  1  0.56697126  0.51187328  0.43539899  1  -1.164445  0  -0.318535  -0.551616  0  2.310007  0
O  O151  1  0.43300465  0.48305794  0.43612230  1  -1.164021  0  -0.312867  -0.542002  0  2.326984  0
O  O152  1  0.43174876  0.61741451  0.91012285  1  -1.16424  0  -0.318131  -0.549265  0  2.318377  0
O  O153  1  0.56588024  0.61501609  0.92654224  1  -1.158549  0  -0.313528  -0.539203  0  2.321423  0
O  O154  1  0.56712237  0.52068853  0.85175571  1  -1.155382  0  -0.308289  -0.530064  0  2.334964  0
O  O155  1  0.43346270  0.48962996  0.85084040  1  -1.155899  0  -0.317915  -0.541565  0  2.306149  0
O  O156  1  0.56322038  0.38971979  0.90838926  1  -1.158836  0  -0.311741  -0.537684  0  2.313621  0
O  O157  1  0.42928298  0.39065329  0.92495241  1  -1.161602  0  -0.315931  -0.547064  0  2.329081  0
O  O158  1  0.43292922  0.51481135  0.98426594  1  -1.16788  0  -0.318935  -0.55174  0  2.307705  0
O  O159  1  0.56699169  0.48635274  0.98342495  1  -1.169197  0  -0.312593  -0.541492  0  2.328104  0
O  O160  1  0.05673252  0.40761235  0.42355710  1  -1.091031  0  -0.333034  -0.45285  0  2.224233  0
O  O161  1  0.17441226  0.34563547  0.42308345  1  -1.085535  0  -0.263306  -0.423418  0  2.030284  0
O  O162  1  0.94716546  0.63024462  0.55775386  1  -1.116654  0  -0.332242  -0.449919  0  2.230241  0
O  O163  1  0.82608816  0.64029054  0.58970365  1  -1.098013  0  -0.270089  -0.433453  0  2.034649  0
O  O164  1  0.32656058  0.95223885  0.48716822  1  -1.141552  0  -0.344393  -0.46544  0  2.233889  0
O  O165  1  0.27534798  0.83896854  0.50017633  1  -1.117181  0  -0.291944  -0.457052  0  2.03673  0
O  O166  1  0.67037511  0.04594946  0.48723511  1  -1.132933  0  -0.346437  -0.468009  0  2.23672  0
O  O167  1  0.72466847  0.15933888  0.49608674  1  -1.114527  0  -0.292672  -0.459052  0  2.0413  0
O  O168  1  0.67173767  0.48185284  0.18229327  1  -1.122631  0  -0.34718  -0.469618  0  2.233374  0
O  O169  1  0.72377003  0.50338522  0.11626003  1  -1.11073  0  -0.288133  -0.452601  0  2.038663  0
O  O170  1  0.32813507  0.48096152  0.23716840  1  -1.123661  0  -0.346703  -0.469212  0  2.233693  0
O  O171  1  0.27612498  0.50185923  0.30338581  1  -1.111609  0  -0.287835  -0.452359  0  2.039952  0
O  O172  1  0.94338585  0.41085371  0.99587068  1  -1.102905  0  -0.333333  -0.452782  0  2.223568  0
O  O173  1  0.82584575  0.34866768  0.99623120  1  -1.087796  0  -0.262385  -0.422871  0  2.030748  0
O  O174  1  0.05285607  0.63230817  0.86207586  1  -1.109627  0  -0.332762  -0.449396  0  2.230267  0
O  O175  1  0.17396321  0.64215454  0.83018023  1  -1.095155  0  -0.270155  -0.432991  0  2.035289  0
O  O176  1  0.67346792  0.95474542  0.93092366  1  -1.113011  0  -0.344872  -0.465469  0  2.233353  0
O  O177  1  0.72469740  0.84121696  0.91801966  1  -1.116153  0  -0.292081  -0.457467  0  2.038693  0
O  O178  1  0.32968190  0.04856572  0.93128943  1  -1.127262  0  -0.346786  -0.467962  0  2.235453  0
O  O179  1  0.27553522  0.16199809  0.92286488  1  -1.118057  0  -0.293288  -0.458711  0  2.039572  0
O  O180  1  0.29726881  0.54832265  0.66950958  1  -1.078066  0  -0.34203  -0.481551  0  2.177059  0
O  O181  1  0.31207751  0.44879717  0.62545084  1  -1.085903  0  -0.273197  -0.434517  0  2.055093  0
O  O182  1  0.70241850  0.54864437  0.75033219  1  -1.092418  0  -0.341652  -0.481003  0  2.176055  0
O  O183  1  0.68756898  0.44942172  0.79411595  1  -1.089706  0  -0.273222  -0.434581  0  2.055174  0
