# generated using pymatgen
data_Ag2H22C11N5O3
_symmetry_space_group_name_H-M   'P 1'
_cell_length_a   7.17032406
_cell_length_b   10.89031158
_cell_length_c   10.49503772
_cell_angle_alpha   100.10880526
_cell_angle_beta   97.33238220
_cell_angle_gamma   98.77746923
_symmetry_Int_Tables_number   1
_chemical_formula_structural   Ag2H22C11N5O3
_chemical_formula_sum   'Ag4 H44 C22 N10 O6'
_cell_volume   787.25031222
_cell_formula_units_Z   2
loop_
 _symmetry_equiv_pos_site_id
 _symmetry_equiv_pos_as_xyz
  1  'x, y, z'
loop_
 _atom_site_type_symbol
 _atom_site_label
 _atom_site_symmetry_multiplicity
 _atom_site_fract_x
 _atom_site_fract_y
 _atom_site_fract_z
 _atom_site_occupancy
 _atom_site_hle17_bader_spin_density
 _atom_site_hle17_ddec_charge
 _atom_site_hle17_ddec_spin_density
 _atom_site_hle17_ddec_sum_bond_order
 _atom_site_hle17_magmom
 _atom_site_hse06_10hf_bader_spin_density
 _atom_site_hse06_10hf_ddec_charge
 _atom_site_hse06_10hf_ddec_spin_density
 _atom_site_hse06_10hf_ddec_sum_bond_order
 _atom_site_hse06_10hf_magmom
 _atom_site_hse06_bader_spin_density
 _atom_site_hse06_ddec_charge
 _atom_site_hse06_ddec_spin_density
 _atom_site_hse06_ddec_sum_bond_order
 _atom_site_hse06_magmom
 _atom_site_pbe_bader_spin_density
 _atom_site_pbe_cm5_charge
 _atom_site_pbe_ddec_charge
 _atom_site_pbe_ddec_spin_density
 _atom_site_pbe_ddec_sum_bond_order
 _atom_site_pbe_magmom
Ag  Ag0  1  0.11206985  0.75471868  0.57343792  1  0  0.469145  0  1.384943  0  0  0.327921  0  1.811517  0  0  0.360409  0  1.76449  0  0  0.429844  0.304271  0  1.845108  0
Ag  Ag1  1  0.88793124  0.24528920  0.42656772  1  0  0.469153  0  1.384882  0  0  0.327968  0  1.811404  0  0  0.360454  0  1.764376  0  0  0.429882  0.304322  0  1.844994  0
Ag  Ag2  1  0.99998773  0.99999735  0.99998902  1  0  0.534852  0  1.367452  0  0  0.38632  0  1.784836  0  0  0.420753  0  1.741126  0  0  0.45441  0.361695  0  1.815614  0
Ag  Ag3  1  0.49998765  0.99999612  0.49999206  1  0  0.499166  0  1.530628  0  0  0.360714  0  1.981941  0  0  0.393776  0  1.933944  0  0  0.473231  0.337698  0  2.015636  0
H  H4  1  0.41391333  0.45315106  0.57680567  1  0  0.045613  0  0.980088  0  0  0.06266  0  1.049284  0  0  0.06313  0  1.049103  0  0  0.093429  0.062284  0  1.049578  0
H  H5  1  0.58606810  0.54683954  0.42319673  1  0  0.045728  0  0.979958  0  0  0.062777  0  1.049152  0  0  0.063249  0  1.048968  0  0  0.093411  0.062401  0  1.049442  0
H  H6  1  0.22802444  0.49065573  0.66196621  1  0  0.052165  0  0.949659  0  0  0.07566  0  1.008349  0  0  0.074878  0  1.009759  0  0  0.100561  0.076177  0  1.007418  0
H  H7  1  0.77196174  0.50934251  0.33803426  1  0  0.052238  0  0.949645  0  0  0.075721  0  1.008331  0  0  0.074937  0  1.009745  0  0  0.100576  0.07624  0  1.007397  0
H  H8  1  0.54670539  0.62211630  0.76449982  1  0  0.048543  0  0.934772  0  0  0.071163  0  0.991644  0  0  0.070527  0  0.992638  0  0  0.099626  0.071607  0  0.990917  0
H  H9  1  0.45327597  0.37787429  0.23550448  1  0  0.04849  0  0.934824  0  0  0.071057  0  0.991685  0  0  0.070486  0  0.992595  0  0  0.099589  0.071497  0  0.99097  0
H  H10  1  0.56427818  0.68192710  0.61939389  1  0  0.0675  0  0.923308  0  0  0.090392  0  0.978346  0  0  0.090357  0  0.979054  0  0  0.107802  0.090362  0  0.978038  0
H  H11  1  0.43571866  0.31806278  0.38060613  1  0  0.067574  0  0.923399  0  0  0.090359  0  0.978486  0  0  0.09032  0  0.979207  0  0  0.107789  0.090336  0  0.978177  0
H  H12  1  0.80870721  0.98880077  0.41123598  1  0  0.014734  0  1.004058  0  0  0.025795  0  1.097374  0  0  0.027686  0  1.092202  0  0  0.073452  0.023921  0  1.10194  0
H  H13  1  0.19129348  0.01120707  0.58878200  1  0  0.014792  0  1.003957  0  0  0.025833  0  1.097274  0  0  0.027721  0  1.092111  0  0  0.073424  0.023958  0  1.101841  0
H  H14  1  0.00687965  0.92223053  0.36416827  1  0  0.066145  0  0.930967  0  0  0.085383  0  0.986233  0  0  0.084864  0  0.988619  0  0  0.101731  0.085673  0  0.984698  0
H  H15  1  0.99311473  0.07778481  0.63583995  1  0  0.06622  0  0.930824  0  0  0.085396  0  0.986162  0  0  0.084876  0  0.988549  0  0  0.101743  0.085688  0  0.984626  0
H  H16  1  0.12058733  0.47807341  0.43696313  1  0  0.262242  0  0.945049  0  0  0.256505  0  1.006057  0  0  0.261888  0  1.001425  0  0  0.276258  0.251896  0  1.010678  0
H  H17  1  0.87940150  0.52192959  0.56303561  1  0  0.262301  0  0.944962  0  0  0.256543  0  1.005985  0  0  0.261928  0  1.00135  0  0  0.276279  0.251933  0  1.010605  0
H  H18  1  0.30501054  0.58523069  0.42315092  1  0  0.280004  0  0.946323  0  0  0.271306  0  1.003047  0  0  0.276246  0  1.001019  0  0  0.27929  0.267627  0  1.004548  0
H  H19  1  0.69498117  0.41476761  0.57685392  1  0  0.280011  0  0.946216  0  0  0.271292  0  1.00299  0  0  0.276235  0  1.000953  0  0  0.279247  0.267613  0  1.004493  0
H  H20  1  0.45462025  0.83231442  0.74303248  1  0  0.28535  0  0.939245  0  0  0.277836  0  0.99238  0  0  0.282926  0  0.990084  0  0  0.285416  0.27413  0  0.994165  0
H  H21  1  0.54537839  0.16768212  0.25696227  1  0  0.285366  0  0.939196  0  0  0.277854  0  0.99233  0  0  0.282943  0  0.990037  0  0  0.285419  0.274149  0  0.994113  0
H  H22  1  0.29706669  0.73801566  0.80320202  1  0  0.286986  0  0.95641  0  0  0.27826  0  1.010238  0  0  0.283686  0  1.007849  0  0  0.279594  0.27452  0  1.011525  0
H  H23  1  0.70293488  0.26198185  0.19679702  1  0  0.286956  0  0.956491  0  0  0.278218  0  1.010327  0  0  0.283647  0  1.007933  0  0  0.279583  0.274479  0  1.011612  0
H  H24  1  0.76637086  0.77602807  0.43489628  1  0  0.296669  0  0.922139  0  0  0.289284  0  0.9718  0  0  0.294754  0  0.9695  0  0  0.287239  0.285349  0  0.973482  0
H  H25  1  0.23363069  0.22398738  0.56510888  1  0  0.296602  0  0.922172  0  0  0.289214  0  0.971831  0  0  0.29468  0  0.969547  0  0  0.287182  0.285278  0  0.973517  0
H  H26  1  0.80921509  0.86308285  0.58269950  1  0  0.287152  0  0.960072  0  0  0.27579  0  1.01971  0  0  0.282459  0  1.015425  0  0  0.275378  0.271062  0  1.022741  0
H  H27  1  0.19078686  0.13692315  0.41730874  1  0  0.287201  0  0.959898  0  0  0.275828  0  1.019583  0  0  0.282502  0  1.015286  0  0  0.275379  0.271101  0  1.022615  0
H  H28  1  0.16374185  0.52782749  0.03478909  1  0  0.076153  0  0.95836  0  0  0.095679  0  1.01988  0  0  0.096223  0  1.021035  0  0  0.097095  0.095141  0  1.019317  0
H  H29  1  0.83628279  0.47216656  0.96521166  1  0  0.076014  0  0.958583  0  0  0.095638  0  1.020002  0  0  0.096182  0  1.021157  0  0  0.097103  0.095099  0  1.019438  0
H  H30  1  0.28563364  0.53108077  0.19294400  1  0  0.064293  0  0.950845  0  0  0.082784  0  1.013029  0  0  0.084229  0  1.012457  0  0  0.090257  0.081625  0  1.013663  0
H  H31  1  0.71439861  0.46892004  0.80704731  1  0  0.064358  0  0.95069  0  0  0.082817  0  1.012945  0  0  0.084266  0  1.012359  0  0  0.090289  0.081657  0  1.013577  0
H  H32  1  0.93386828  0.50408243  0.18844391  1  0  0.103376  0  0.968345  0  0  0.125135  0  1.029873  0  0  0.127468  0  1.02837  0  0  0.087084  0.123371  0  1.03102  0
H  H33  1  0.06616539  0.49589571  0.81154914  1  0  0.103155  0  0.968273  0  0  0.124905  0  1.029867  0  0  0.127239  0  1.028363  0  0  0.086963  0.123144  0  1.031003  0
H  H34  1  0.92672934  0.64888181  0.13393077  1  0  0.097058  0  0.963401  0  0  0.121511  0  1.02165  0  0  0.122051  0  1.02331  0  0  0.086251  0.121041  0  1.020545  0
H  H35  1  0.07329238  0.35109425  0.86606736  1  0  0.096941  0  0.963237  0  0  0.121495  0  1.021417  0  0  0.122043  0  1.023061  0  0  0.08619  0.121024  0  1.020313  0
H  H36  1  0.04600559  0.65113606  0.29349599  1  0  0.081393  0  0.983479  0  0  0.099865  0  1.060063  0  0  0.101604  0  1.058862  0  0  0.075229  0.09852  0  1.061017  0
H  H37  1  0.95400812  0.34884653  0.70649394  1  0  0.081289  0  0.983446  0  0  0.099762  0  1.06005  0  0  0.101498  0  1.058854  0  0  0.075206  0.098417  0  1.061008  0
H  H38  1  0.57310748  0.62051250  0.11967591  1  0  0.070128  0  0.935784  0  0  0.089893  0  0.996401  0  0  0.090831  0  0.996759  0  0  0.092358  0.089149  0  0.996324  0
H  H39  1  0.42691244  0.37951456  0.88032941  1  0  0.070166  0  0.935695  0  0  0.089878  0  0.996291  0  0  0.090817  0  0.996651  0  0  0.092362  0.089135  0  0.996216  0
H  H40  1  0.44089985  0.62245587  0.96584006  1  0  0.067632  0  0.944495  0  0  0.08476  0  1.009635  0  0  0.08593  0  1.009637  0  0  0.092975  0.083861  0  1.009809  0
H  H41  1  0.55911933  0.37754947  0.03415361  1  0  0.067619  0  0.944612  0  0  0.084718  0  1.009722  0  0  0.085885  0  1.009733  0  0  0.092979  0.083825  0  1.009895  0
H  H42  1  0.75327085  0.77041204  0.99865884  1  0  0.100529  0  0.963838  0  0  0.121924  0  1.029553  0  0  0.124003  0  1.028077  0  0  0.08417  0.120443  0  1.030569  0
H  H43  1  0.24672825  0.22961568  0.00134068  1  0  0.100551  0  0.963787  0  0  0.121959  0  1.0295  0  0  0.124037  0  1.028028  0  0  0.084189  0.12048  0  1.030515  0
H  H44  1  0.70774104  0.85286889  0.14964369  1  0  0.09084  0  0.956882  0  0  0.114781  0  1.018472  0  0  0.115683  0  1.0191  0  0  0.080522  0.11405  0  1.018254  0
H  H45  1  0.29225847  0.14716165  0.85036495  1  0  0.090832  0  0.956924  0  0  0.114784  0  1.018496  0  0  0.115681  0  1.019129  0  0  0.080531  0.114058  0  1.018273  0
H  H46  1  0.56846244  0.86064754  0.00010623  1  0  0.097163  0  0.954227  0  0  0.118959  0  1.014872  0  0  0.120456  0  1.015226  0  0  0.08236  0.117742  0  1.01486  0
H  H47  1  0.43152629  0.13936020  0.99988764  1  0  0.097069  0  0.954201  0  0  0.118889  0  1.014814  0  0  0.120384  0  1.015168  0  0  0.082346  0.117675  0  1.014799  0
C  C48  1  0.32883012  0.52727765  0.60126004  1  0  0.047764  0  3.689476  0  0  -0.013667  0  3.958536  0  0  -0.009889  0  3.972101  0  0  -0.084505  -0.016384  0  3.949188  0
C  C49  1  0.67115554  0.47271776  0.39873510  1  0  0.047527  0  3.689422  0  0  -0.013928  0  3.958386  0  0  -0.01016  0  3.97197  0  0  -0.084502  -0.016644  0  3.949035  0
C  C50  1  0.46237234  0.64613220  0.67991861  1  0  0.063726  0  3.640414  0  0  0.006633  0  3.899626  0  0  0.010806  0  3.913627  0  0  -0.07498  0.003762  0  3.889621  0
C  C51  1  0.53761364  0.35385942  0.32008158  1  0  0.063669  0  3.640639  0  0  0.006823  0  3.899536  0  0  0.010965  0  3.913545  0  0  -0.074938  0.003945  0  3.889542  0
C  C52  1  0.93398844  0.94924037  0.44796283  1  0  0.048907  0  3.677226  0  0  -0.00244  0  3.925279  0  0  0.000521  0  3.941242  0  0  -0.086416  -0.004427  0  3.914795  0
C  C53  1  0.06600143  0.05075601  0.55204053  1  0  0.048595  0  3.677067  0  0  -0.002672  0  3.925063  0  0  0.000286  0  3.94103  0  0  -0.086455  -0.004657  0  3.914583  0
C  C54  1  0.28101095  0.96299885  0.22392115  1  0  0.709786  0  3.9233  0  0  0.652605  0  4.205349  0  0  0.687488  0  4.207192  0  0  0.304909  0.628876  0  4.203265  0
C  C55  1  0.71897463  0.03699563  0.77606904  1  0  0.709686  0  3.923461  0  0  0.652495  0  4.205508  0  0  0.687375  0  4.207357  0  0  0.304843  0.628767  0  4.203421  0
C  C56  1  0.20967090  0.78311367  0.04863634  1  0  0.560509  0  3.809354  0  0  0.520855  0  4.083056  0  0  0.549793  0  4.086821  0  0  0.231721  0.501156  0  4.07997  0
C  C57  1  0.79030779  0.21687689  0.95136292  1  0  0.560432  0  3.809452  0  0  0.520733  0  4.083234  0  0  0.549668  0  4.086999  0  0  0.231668  0.501034  0  4.080149  0
C  C58  1  0.32673080  0.70972762  0.13080463  1  0  -0.129362  0  3.599417  0  0  -0.097944  0  3.81996  0  0  -0.107251  0  3.83596  0  0  -0.015779  -0.091758  0  3.808893  0
C  C59  1  0.67329165  0.29027491  0.86919744  1  0  -0.129267  0  3.599685  0  0  -0.097918  0  3.820227  0  0  -0.107224  0  3.83622  0  0  -0.01567  -0.091723  0  3.809174  0
C  C60  1  0.40271201  0.78063050  0.27087529  1  0  0.565829  0  3.807697  0  0  0.525152  0  4.080529  0  0  0.554342  0  4.084166  0  0  0.228528  0.505565  0  4.077182  0
C  C61  1  0.59729890  0.21937092  0.72912636  1  0  0.565637  0  3.80786  0  0  0.525012  0  4.080603  0  0  0.55422  0  4.084208  0  0  0.228497  0.505395  0  4.077312  0
C  C62  1  0.19906249  0.58327522  0.13518725  1  0  -0.083714  0  3.680406  0  0  -0.127397  0  3.93388  0  0  -0.127314  0  3.948103  0  0  -0.162275  -0.127283  0  3.924207  0
C  C63  1  0.80094959  0.41671960  0.86481522  1  0  -0.083513  0  3.680418  0  0  -0.127269  0  3.933962  0  0  -0.127186  0  3.948193  0  0  -0.162267  -0.127152  0  3.92428  0
C  C64  1  0.01647823  0.59837082  0.19144200  1  0  -0.289603  0  3.699051  0  0  -0.365687  0  3.942711  0  0  -0.368435  0  3.953022  0  0  -0.254273  -0.363372  0  3.935556  0
C  C65  1  0.98352939  0.40161072  0.80855379  1  0  -0.289273  0  3.698631  0  0  -0.365417  0  3.94224  0  0  -0.368168  0  3.952565  0  0  -0.254123  -0.363097  0  3.935077  0
C  C66  1  0.49975836  0.68043854  0.06355250  1  0  -0.08152  0  3.675489  0  0  -0.126043  0  3.93618  0  0  -0.126018  0  3.950327  0  0  -0.159176  -0.125845  0  3.926556  0
C  C67  1  0.50025720  0.31957433  0.93643550  1  0  -0.08163  0  3.675767  0  0  -0.125983  0  3.936329  0  0  -0.125964  0  3.950484  0  0  -0.159171  -0.125795  0  3.926714  0
C  C68  1  0.63926802  0.79722709  0.05265053  1  0  -0.299208  0  3.727006  0  0  -0.377712  0  3.978376  0  0  -0.380142  0  3.988235  0  0  -0.257648  -0.375744  0  3.971587  0
C  C69  1  0.36073914  0.20279978  0.94735537  1  0  -0.299189  0  3.727119  0  0  -0.377781  0  3.97851  0  0  -0.380205  0  3.988368  0  0  -0.257731  -0.375812  0  3.971719  0
N  N70  1  0.21755334  0.55593360  0.48618890  1  0  -0.641464  0  3.139362  0  0  -0.588544  0  3.386084  0  0  -0.607797  0  3.387245  0  0  -0.643681  -0.574153  0  3.385509  0
N  N71  1  0.78243993  0.44406474  0.51381135  1  0  -0.641438  0  3.139034  0  0  -0.588497  0  3.38576  0  0  -0.607746  0  3.386918  0  0  -0.643635  -0.574105  0  3.385183  0
N  N72  1  0.35832200  0.74896366  0.72134291  1  0  -0.614198  0  3.182389  0  0  -0.544525  0  3.42876  0  0  -0.566582  0  3.430964  0  0  -0.649377  -0.528263  0  3.426179  0
N  N73  1  0.64166934  0.25103750  0.27865098  1  0  -0.614118  0  3.182353  0  0  -0.544553  0  3.428791  0  0  -0.566617  0  3.431012  0  0  -0.649399  -0.528287  0  3.426208  0
N  N74  1  0.87350843  0.83582979  0.50173090  1  0  -0.619978  0  3.215427  0  0  -0.548306  0  3.470776  0  0  -0.571004  0  3.471605  0  0  -0.653841  -0.532059  0  3.470031  0
N  N75  1  0.12648843  0.16417803  0.49827429  1  0  -0.619905  0  3.215059  0  0  -0.548242  0  3.470375  0  0  -0.570947  0  3.471204  0  0  -0.653794  -0.531993  0  3.469629  0
N  N76  1  0.38135020  0.90224018  0.30824835  1  0  -0.638036  0  3.272529  0  0  -0.546686  0  3.567506  0  0  -0.582983  0  3.576478  0  0  -0.413395  -0.521891  0  3.560627  0
N  N77  1  0.61862760  0.09775227  0.69174926  1  0  -0.637939  0  3.272484  0  0  -0.54658  0  3.56739  0  0  -0.582879  0  3.576356  0  0  -0.413314  -0.521778  0  3.560524  0
N  N78  1  0.18809768  0.90237818  0.10084754  1  0  -0.634223  0  3.255825  0  0  -0.545427  0  3.551671  0  0  -0.581913  0  3.560798  0  0  -0.405914  -0.520154  0  3.544621  0
N  N79  1  0.81188558  0.09761908  0.89914864  1  0  -0.634142  0  3.255939  0  0  -0.545344  0  3.551805  0  0  -0.581829  0  3.560938  0  0  -0.405892  -0.520072  0  3.544753  0
O  O80  1  0.27340931  0.07795834  0.26250604  1  0  -0.624373  0  1.968433  0  0  -0.568159  0  2.202266  0  0  -0.590944  0  2.191007  0  0  -0.311481  -0.552244  0  2.209511  0
O  O81  1  0.72656650  0.92203693  0.73748711  1  0  -0.62424  0  1.968623  0  0  -0.568044  0  2.202463  0  0  -0.590826  0  2.191206  0  0  -0.311415  -0.552117  0  2.209675  0
O  O82  1  0.13542893  0.73129481  0.93368103  1  0  -0.57347  0  1.929978  0  0  -0.526804  0  2.153763  0  0  -0.547784  0  2.145797  0  0  -0.307548  -0.512033  0  2.158489  0
O  O83  1  0.86458193  0.26869526  0.06632331  1  0  -0.573526  0  1.929769  0  0  -0.526821  0  2.153558  0  0  -0.547803  0  2.145589  0  0  -0.307602  -0.512045  0  2.158285  0
O  O84  1  0.48807924  0.72497702  0.34917307  1  0  -0.595152  0  1.957495  0  0  -0.54262  0  2.187559  0  0  -0.564406  0  2.180269  0  0  -0.306617  -0.527245  0  2.191721  0
O  O85  1  0.51191741  0.27502603  0.65084648  1  0  -0.595048  0  1.957756  0  0  -0.542484  0  2.18773  0  0  -0.564275  0  2.18042  0  0  -0.306574  -0.527091  0  2.191896  0
