# generated using pymatgen
data_ErH8C7NO8
_symmetry_space_group_name_H-M   'P 1'
_cell_length_a   7.44300221
_cell_length_b   9.24309730
_cell_length_c   15.65765389
_cell_angle_alpha   105.43083069
_cell_angle_beta   89.99858899
_cell_angle_gamma   89.99958259
_symmetry_Int_Tables_number   1
_chemical_formula_structural   ErH8C7NO8
_chemical_formula_sum   'Er4 H32 C28 N4 O32'
_cell_volume   1038.35996936
_cell_formula_units_Z   4
loop_
 _symmetry_equiv_pos_site_id
 _symmetry_equiv_pos_as_xyz
  1  'x, y, z'
loop_
 _atom_site_type_symbol
 _atom_site_label
 _atom_site_symmetry_multiplicity
 _atom_site_fract_x
 _atom_site_fract_y
 _atom_site_fract_z
 _atom_site_occupancy
 _atom_site_hle17_bader_spin_density
 _atom_site_hle17_ddec_charge
 _atom_site_hle17_ddec_spin_density
 _atom_site_hle17_ddec_sum_bond_order
 _atom_site_hle17_magmom
 _atom_site_hse06_10hf_bader_spin_density
 _atom_site_hse06_10hf_ddec_charge
 _atom_site_hse06_10hf_ddec_spin_density
 _atom_site_hse06_10hf_ddec_sum_bond_order
 _atom_site_hse06_10hf_magmom
 _atom_site_hse06_bader_spin_density
 _atom_site_hse06_ddec_charge
 _atom_site_hse06_ddec_spin_density
 _atom_site_hse06_ddec_sum_bond_order
 _atom_site_hse06_magmom
 _atom_site_pbe_bader_spin_density
 _atom_site_pbe_cm5_charge
 _atom_site_pbe_ddec_charge
 _atom_site_pbe_ddec_spin_density
 _atom_site_pbe_ddec_sum_bond_order
 _atom_site_pbe_magmom
Er  Er0  1  0.17943455  0.99444765  0.74960828  1  0  2.235648  0  1.634433  0  0  2.071693  0  2.124168  0  0  2.209121  0  1.915174  0  0  1.512052  2.037057  0  2.153709  0
Er  Er1  1  0.67943658  0.50555319  0.75039665  1  0  2.23564  0  1.634472  0  0  2.071695  0  2.124174  0  0  2.209092  0  1.915217  0  0  1.51205  2.037066  0  2.153712  0
Er  Er2  1  0.82057632  0.00556782  0.25039966  1  0  2.235745  0  1.634379  0  0  2.071805  0  2.124016  0  0  2.209192  0  1.915118  0  0  1.512016  2.037166  0  2.153595  0
Er  Er3  1  0.32056489  0.49444224  0.24960098  1  0  2.235622  0  1.634508  0  0  2.07171  0  2.124154  0  0  2.209065  0  1.915268  0  0  1.512048  2.037068  0  2.153696  0
H  H4  1  0.88386483  0.19234261  0.80500711  1  0  0.44638  0  0.8503  0  0  0.416068  0  0.911201  0  0  0.428226  0  0.893703  0  0  0.302124  0.407657  0  0.923491  0
H  H5  1  0.38385791  0.30767084  0.69499805  1  0  0.446455  0  0.850214  0  0  0.416185  0  0.911043  0  0  0.428336  0  0.893552  0  0  0.302132  0.407784  0  0.923323  0
H  H6  1  0.11614202  0.80765501  0.19499279  1  0  0.446366  0  0.850315  0  0  0.416065  0  0.9112  0  0  0.428221  0  0.893705  0  0  0.30211  0.407651  0  0.923495  0
H  H7  1  0.61614221  0.69232558  0.30500548  1  0  0.446487  0  0.850179  0  0  0.416182  0  0.911068  0  0  0.428339  0  0.893569  0  0  0.302137  0.407763  0  0.923367  0
H  H8  1  0.91983333  0.14619176  0.89745385  1  0  0.449305  0  0.840871  0  0  0.41865  0  0.903509  0  0  0.430219  0  0.886726  0  0  0.298812  0.410815  0  0.914922  0
H  H9  1  0.41983887  0.35381446  0.60255290  1  0  0.44923  0  0.840996  0  0  0.418683  0  0.903533  0  0  0.43025  0  0.886744  0  0  0.298738  0.410848  0  0.914941  0
H  H10  1  0.08015739  0.85380360  0.10254632  1  0  0.449284  0  0.840902  0  0  0.418624  0  0.90353  0  0  0.430192  0  0.88675  0  0  0.298798  0.41079  0  0.914942  0
H  H11  1  0.58015588  0.64618638  0.39745455  1  0  0.449347  0  0.840817  0  0  0.418624  0  0.903531  0  0  0.430185  0  0.886764  0  0  0.298784  0.410787  0  0.914948  0
H  H12  1  0.50198134  0.80618445  0.69688448  1  0  0.44287  0  0.856898  0  0  0.414945  0  0.914384  0  0  0.427385  0  0.896428  0  0  0.302728  0.406408  0  0.926891  0
H  H13  1  0.00197923  0.69382771  0.80311478  1  0  0.442818  0  0.85698  0  0  0.414859  0  0.9145  0  0  0.427296  0  0.896556  0  0  0.302681  0.406323  0  0.927005  0
H  H14  1  0.49801475  0.19381646  0.30311979  1  0  0.442871  0  0.856893  0  0  0.414853  0  0.914511  0  0  0.427291  0  0.896563  0  0  0.302703  0.406316  0  0.927018  0
H  H15  1  0.99801954  0.30617456  0.19687886  1  0  0.442906  0  0.856823  0  0  0.414932  0  0.914392  0  0  0.427375  0  0.896431  0  0  0.302725  0.406399  0  0.926892  0
H  H16  1  0.47205799  0.82284527  0.79531017  1  0  0.437079  0  0.872676  0  0  0.407038  0  0.934728  0  0  0.41811  0  0.919179  0  0  0.299808  0.39931  0  0.945862  0
H  H17  1  0.97205682  0.67717116  0.70469265  1  0  0.43722  0  0.872498  0  0  0.407139  0  0.934593  0  0  0.418212  0  0.919044  0  0  0.299806  0.399409  0  0.94573  0
H  H18  1  0.52793676  0.17715792  0.20469256  1  0  0.437093  0  0.872665  0  0  0.407051  0  0.934718  0  0  0.418126  0  0.919167  0  0  0.299808  0.399322  0  0.945853  0
H  H19  1  0.02794734  0.32283222  0.29530181  1  0  0.437253  0  0.872457  0  0  0.407165  0  0.934566  0  0  0.41824  0  0.919013  0  0  0.299832  0.399438  0  0.945699  0
H  H20  1  0.43753977  0.88064774  0.57436533  1  0  0.431525  0  0.839432  0  0  0.401822  0  0.910375  0  0  0.413474  0  0.893247  0  0  0.304061  0.393916  0  0.92211  0
H  H21  1  0.93753301  0.61936373  0.92562622  1  0  0.431589  0  0.839325  0  0  0.401856  0  0.910344  0  0  0.413516  0  0.893202  0  0  0.304057  0.393949  0  0.922081  0
H  H22  1  0.56247110  0.11936226  0.42563533  1  0  0.431483  0  0.839381  0  0  0.401763  0  0.910443  0  0  0.41342  0  0.893304  0  0  0.304023  0.393858  0  0.922175  0
H  H23  1  0.06246846  0.38064516  0.07437362  1  0  0.431521  0  0.839292  0  0  0.401848  0  0.910287  0  0  0.413498  0  0.893163  0  0  0.304065  0.393944  0  0.922019  0
H  H24  1  0.28977933  0.99376046  0.56116078  1  0  0.42336  0  0.833337  0  0  0.403177  0  0.894406  0  0  0.4119  0  0.885146  0  0  0.317547  0.396994  0  0.901877  0
H  H25  1  0.78975813  0.50624941  0.93883285  1  0  0.423299  0  0.833405  0  0  0.403096  0  0.894512  0  0  0.411819  0  0.885262  0  0  0.317502  0.396914  0  0.901977  0
H  H26  1  0.71022751  0.00623717  0.43883912  1  0  0.423334  0  0.833376  0  0  0.403142  0  0.894468  0  0  0.411865  0  0.885208  0  0  0.317545  0.396957  0  0.901938  0
H  H27  1  0.21023797  0.49376076  0.06116017  1  0  0.423336  0  0.833266  0  0  0.403161  0  0.894334  0  0  0.411879  0  0.885082  0  0  0.317589  0.396974  0  0.901808  0
H  H28  1  0.54247251  0.38345418  0.01610917  1  0  0.131885  0  0.944349  0  0  0.138962  0  1.010195  0  0  0.143784  0  1.006172  0  0  0.113361  0.135479  0  1.01298  0
H  H29  1  0.04248588  0.11653227  0.48389145  1  0  0.131817  0  0.94432  0  0  0.138941  0  1.010142  0  0  0.143764  0  1.006117  0  0  0.113327  0.135481  0  1.0129  0
H  H30  1  0.45752627  0.61653081  0.98390207  1  0  0.13177  0  0.944278  0  0  0.138879  0  1.01015  0  0  0.143701  0  1.006126  0  0  0.113283  0.135429  0  1.012892  0
H  H31  1  0.95752768  0.88347445  0.51610483  1  0  0.131847  0  0.944404  0  0  0.138946  0  1.010236  0  0  0.143772  0  1.006209  0  0  0.113342  0.135498  0  1.01298  0
H  H32  1  0.27144268  0.03626778  0.10504392  1  0  0.143986  0  0.936724  0  0  0.152818  0  0.997914  0  0  0.157799  0  0.994071  0  0  0.118888  0.149427  0  1.000335  0
H  H33  1  0.77146263  0.46372596  0.39495780  1  0  0.144047  0  0.936807  0  0  0.152772  0  0.9981  0  0  0.157754  0  0.994256  0  0  0.118875  0.149383  0  1.000516  0
H  H34  1  0.72853729  0.96371283  0.89496149  1  0  0.144026  0  0.936847  0  0  0.152758  0  0.998138  0  0  0.157735  0  0.994308  0  0  0.118856  0.149364  0  1.000559  0
H  H35  1  0.22854286  0.53628745  0.60504150  1  0  0.144029  0  0.936771  0  0  0.152736  0  0.998077  0  0  0.157715  0  0.994245  0  0  0.118812  0.149342  0  1.000499  0
C  C36  1  0.14922874  0.88160992  0.93401864  1  0  0.652273  0  3.858971  0  0  0.597788  0  4.161446  0  0  0.6313  0  4.154711  0  0  0.225373  0.57536  0  4.166291  0
C  C37  1  0.64921784  0.61838933  0.56597296  1  0  0.652292  0  3.858888  0  0  0.597834  0  4.161337  0  0  0.63135  0  4.154591  0  0  0.225293  0.575409  0  4.16618  0
C  C38  1  0.85077138  0.11839016  0.06597208  1  0  0.652374  0  3.858548  0  0  0.597816  0  4.161327  0  0  0.631312  0  4.154625  0  0  0.22537  0.575392  0  4.166173  0
C  C39  1  0.35076884  0.38160734  0.43401912  1  0  0.652397  0  3.858752  0  0  0.597918  0  4.161372  0  0  0.631429  0  4.154639  0  0  0.225362  0.575493  0  4.166212  0
C  C40  1  0.25850892  0.02438635  0.96531967  1  0  0.125849  0  3.780187  0  0  0.129743  0  4.029606  0  0  0.13328  0  4.051543  0  0  0.109322  0.12761  0  4.01642  0
C  C41  1  0.75850316  0.47560971  0.53467642  1  0  0.126083  0  3.780146  0  0  0.129918  0  4.029582  0  0  0.133456  0  4.05152  0  0  0.109361  0.127786  0  4.016403  0
C  C42  1  0.74147105  0.97557987  0.03467443  1  0  0.126288  0  3.779735  0  0  0.129835  0  4.029663  0  0  0.133383  0  4.051606  0  0  0.10931  0.1277  0  4.016479  0
C  C43  1  0.24147816  0.52440258  0.46532270  1  0  0.126098  0  3.780111  0  0  0.129652  0  4.029921  0  0  0.133188  0  4.051864  0  0  0.10929  0.127519  0  4.016734  0
C  C44  1  0.39882364  0.21374928  0.91843234  1  0  0.121231  0  3.807328  0  0  0.123845  0  4.053921  0  0  0.127021  0  4.073955  0  0  0.108484  0.121844  0  4.042131  0
C  C45  1  0.89882385  0.28625497  0.58157369  1  0  0.12108  0  3.807636  0  0  0.123751  0  4.054226  0  0  0.126908  0  4.074262  0  0  0.108482  0.121751  0  4.042455  0
C  C46  1  0.60118052  0.78624028  0.08157582  1  0  0.121265  0  3.807362  0  0  0.12386  0  4.053904  0  0  0.127025  0  4.073934  0  0  0.108456  0.121854  0  4.042139  0
C  C47  1  0.10117761  0.71374938  0.41842795  1  0  0.121222  0  3.807639  0  0  0.123823  0  4.054259  0  0  0.126995  0  4.074303  0  0  0.108486  0.121815  0  4.042493  0
C  C48  1  0.43158232  0.27630349  0.84062462  1  0  0.687046  0  3.836057  0  0  0.640669  0  4.120162  0  0  0.676583  0  4.113498  0  0  0.244201  0.616525  0  4.128249  0
C  C49  1  0.93158443  0.22370832  0.65937780  1  0  0.687117  0  3.836154  0  0  0.640627  0  4.120378  0  0  0.676552  0  4.113695  0  0  0.244127  0.616485  0  4.128468  0
C  C50  1  0.56843124  0.72368283  0.15937726  1  0  0.686703  0  3.837053  0  0  0.640478  0  4.120928  0  0  0.676399  0  4.114248  0  0  0.244032  0.616332  0  4.129023  0
C  C51  1  0.06843182  0.77629608  0.34062129  1  0  0.68684  0  3.836521  0  0  0.640423  0  4.120685  0  0  0.676322  0  4.114051  0  0  0.244052  0.616279  0  4.128777  0
C  C52  1  0.46051713  0.28251039  0.00283632  1  0  -0.233106  0  3.665041  0  0  -0.268319  0  3.927266  0  0  -0.274711  0  3.941207  0  0  -0.089942  -0.263188  0  3.916634  0
C  C53  1  0.96051517  0.21748320  0.49716893  1  0  -0.232996  0  3.664989  0  0  -0.268297  0  3.927227  0  0  -0.274681  0  3.941163  0  0  -0.089917  -0.263162  0  3.91653  0
C  C54  1  0.53949509  0.71747586  0.99716874  1  0  -0.232931  0  3.664561  0  0  -0.268232  0  3.926818  0  0  -0.274621  0  3.940758  0  0  -0.089875  -0.263105  0  3.91611  0
C  C55  1  0.03949032  0.78253241  0.50283264  1  0  -0.233087  0  3.664974  0  0  -0.26837  0  3.927251  0  0  -0.274764  0  3.94119  0  0  -0.090013  -0.263245  0  3.916552  0
C  C56  1  0.40897990  0.22328802  0.07372519  1  0  0.419694  0  3.882158  0  0  0.408792  0  4.144108  0  0  0.426191  0  4.159598  0  0  0.10296  0.396768  0  4.136275  0
C  C57  1  0.90899050  0.27670857  0.42627477  1  0  0.41971  0  3.881995  0  0  0.408838  0  4.143848  0  0  0.42624  0  4.159336  0  0  0.102976  0.396817  0  4.136025  0
C  C58  1  0.59101351  0.77670403  0.92627188  1  0  0.419735  0  3.882253  0  0  0.408914  0  4.144051  0  0  0.426319  0  4.159532  0  0  0.103028  0.396894  0  4.136223  0
C  C59  1  0.09101500  0.72331604  0.57372765  1  0  0.419635  0  3.882082  0  0  0.408799  0  4.143854  0  0  0.426208  0  4.159341  0  0  0.102943  0.396782  0  4.136024  0
C  C60  1  0.30995247  0.08730173  0.05255162  1  0  -0.217459  0  3.599895  0  0  -0.253221  0  3.859557  0  0  -0.260906  0  3.875338  0  0  -0.086734  -0.247656  0  3.847654  0
C  C61  1  0.80996747  0.41269729  0.44744478  1  0  -0.217652  0  3.600366  0  0  -0.253297  0  3.859965  0  0  -0.260987  0  3.875753  0  0  -0.086731  -0.247735  0  3.848067  0
C  C62  1  0.69002481  0.91267803  0.94744152  1  0  -0.217841  0  3.600634  0  0  -0.253346  0  3.860254  0  0  -0.261046  0  3.876045  0  0  -0.086787  -0.247775  0  3.848348  0
C  C63  1  0.19002863  0.58732286  0.55255499  1  0  -0.217666  0  3.600205  0  0  -0.253121  0  3.859719  0  0  -0.260815  0  3.875517  0  0  -0.086639  -0.247557  0  3.847817  0
N  N64  1  0.29814891  0.08842025  0.89971221  1  0  -0.476926  0  3.343531  0  0  -0.431187  0  3.597203  0  0  -0.457359  0  3.62058  0  0  -0.416442  -0.42038  0  3.582659  0
N  N65  1  0.79814300  0.41158101  0.60028108  1  0  -0.476924  0  3.343572  0  0  -0.431194  0  3.597253  0  0  -0.457353  0  3.620627  0  0  -0.416408  -0.420396  0  3.582719  0
N  N66  1  0.70186330  0.91156945  0.10028958  1  0  -0.477152  0  3.343698  0  0  -0.431283  0  3.597414  0  0  -0.457451  0  3.620789  0  0  -0.416394  -0.420484  0  3.58289  0
N  N67  1  0.20185712  0.58842576  0.39971265  1  0  -0.476977  0  3.34404  0  0  -0.431117  0  3.597744  0  0  -0.45728  0  3.621128  0  0  -0.416395  -0.420313  0  3.583207  0
O  O68  1  0.10073789  0.80563467  0.98601434  1  0  -0.612905  0  1.927976  0  0  -0.556304  0  2.14131  0  0  -0.579745  0  2.130436  0  0  -0.302728  -0.539323  0  2.147532  0
O  O69  1  0.60073035  0.69436840  0.51398420  1  0  -0.612931  0  1.928003  0  0  -0.556246  0  2.141217  0  0  -0.579684  0  2.130338  0  0  -0.30264  -0.539269  0  2.14744  0
O  O70  1  0.89924611  0.19435632  0.01398000  1  0  -0.612771  0  1.928186  0  0  -0.55612  0  2.141586  0  0  -0.579536  0  2.130698  0  0  -0.302594  -0.53914  0  2.147805  0
O  O71  1  0.39925633  0.30563479  0.48601853  1  0  -0.612951  0  1.927974  0  0  -0.556282  0  2.141275  0  0  -0.579717  0  2.130372  0  0  -0.302633  -0.5393  0  2.147488  0
O  O72  1  0.11119533  0.84716210  0.85093927  1  0  -0.707172  0  2.078596  0  0  -0.642107  0  2.320165  0  0  -0.679631  0  2.307319  0  0  -0.359837  -0.623476  0  2.326546  0
O  O73  1  0.61118921  0.65283535  0.64905311  1  0  -0.707289  0  2.078472  0  0  -0.642275  0  2.320048  0  0  -0.67979  0  2.307193  0  0  -0.359845  -0.62364  0  2.326426  0
O  O74  1  0.88880480  0.15283335  0.14905708  1  0  -0.707507  0  2.078519  0  0  -0.642355  0  2.320124  0  0  -0.679874  0  2.307284  0  0  -0.359896  -0.623717  0  2.326508  0
O  O75  1  0.38879076  0.34716126  0.35094151  1  0  -0.707283  0  2.078549  0  0  -0.642191  0  2.320136  0  0  -0.6797  0  2.307292  0  0  -0.359861  -0.62356  0  2.326518  0
O  O76  1  0.34094894  0.21573967  0.77052774  1  0  -0.708227  0  2.077725  0  0  -0.646982  0  2.314597  0  0  -0.685579  0  2.299548  0  0  -0.368619  -0.628614  0  2.322303  0
O  O77  1  0.84095896  0.28428012  0.72946937  1  0  -0.708297  0  2.077998  0  0  -0.646984  0  2.314921  0  0  -0.685574  0  2.299863  0  0  -0.368666  -0.62861  0  2.322621  0
O  O78  1  0.65905924  0.78425456  0.22947288  1  0  -0.708083  0  2.078051  0  0  -0.646899  0  2.314848  0  0  -0.6855  0  2.299808  0  0  -0.368491  -0.628531  0  2.32256  0
O  O79  1  0.15904788  0.71572222  0.27052108  1  0  -0.708083  0  2.07817  0  0  -0.646817  0  2.315053  0  0  -0.685408  0  2.300022  0  0  -0.368575  -0.628446  0  2.322757  0
O  O80  1  0.54110063  0.38329781  0.84779576  1  0  -0.6929  0  2.024917  0  0  -0.639366  0  2.274818  0  0  -0.67591  0  2.258943  0  0  -0.367573  -0.622189  0  2.282425  0
O  O81  1  0.04109362  0.11670975  0.65220857  1  0  -0.692781  0  2.024663  0  0  -0.639244  0  2.274637  0  0  -0.675803  0  2.258766  0  0  -0.367471  -0.622065  0  2.282241  0
O  O82  1  0.45892905  0.61669396  0.15221468  1  0  -0.692784  0  2.025347  0  0  -0.639306  0  2.275187  0  0  -0.675843  0  2.259308  0  0  -0.367512  -0.622125  0  2.282796  0
O  O83  1  0.95892262  0.88330594  0.34778919  1  0  -0.692806  0  2.024778  0  0  -0.639282  0  2.27474  0  0  -0.675821  0  2.258879  0  0  -0.367483  -0.622104  0  2.282353  0
O  O84  1  0.45109620  0.29323695  0.15589101  1  0  -0.753356  0  2.096527  0  0  -0.688952  0  2.342357  0  0  -0.727597  0  2.329784  0  0  -0.435125  -0.671674  0  2.348352  0
O  O85  1  0.95112380  0.20673659  0.34410915  1  0  -0.753503  0  2.096367  0  0  -0.689033  0  2.342116  0  0  -0.727681  0  2.329529  0  0  -0.435211  -0.671776  0  2.348146  0
O  O86  1  0.54887302  0.70673130  0.84411301  1  0  -0.753368  0  2.09627  0  0  -0.688957  0  2.342048  0  0  -0.72761  0  2.32947  0  0  -0.435199  -0.671699  0  2.348063  0
O  O87  1  0.04888304  0.79327112  0.65589305  1  0  -0.753345  0  2.09625  0  0  -0.688892  0  2.341994  0  0  -0.727549  0  2.329421  0  0  -0.435089  -0.671632  0  2.348011  0
O  O88  1  0.93620357  0.11504080  0.83202211  1  0  -0.946093  0  1.850492  0  0  -0.896695  0  2.044637  0  0  -0.929651  0  2.001863  0  0  -0.652297  -0.882781  0  2.068471  0
O  O89  1  0.43619736  0.38498108  0.66798064  1  0  -0.946086  0  1.850506  0  0  -0.896843  0  2.044368  0  0  -0.929791  0  2.001645  0  0  -0.652242  -0.882945  0  2.068188  0
O  O90  1  0.06379656  0.88495909  0.16797753  1  0  -0.946076  0  1.850446  0  0  -0.896675  0  2.044623  0  0  -0.929624  0  2.001869  0  0  -0.652306  -0.882759  0  2.068464  0
O  O91  1  0.56379336  0.61503112  0.33202229  1  0  -0.946242  0  1.850304  0  0  -0.896773  0  2.044546  0  0  -0.929715  0  2.001789  0  0  -0.65232  -0.882855  0  2.068394  0
O  O92  1  0.44157260  0.87620891  0.74890956  1  0  -0.955061  0  1.908454  0  0  -0.907567  0  2.115581  0  0  -0.942265  0  2.07498  0  0  -0.68932  -0.892422  0  2.137932  0
O  O93  1  0.94155606  0.62381017  0.75109213  1  0  -0.955116  0  1.908386  0  0  -0.907551  0  2.115645  0  0  -0.942251  0  2.07504  0  0  -0.689256  -0.892408  0  2.138  0
O  O94  1  0.55843424  0.12379762  0.25109500  1  0  -0.955052  0  1.908333  0  0  -0.907486  0  2.115576  0  0  -0.942185  0  2.074973  0  0  -0.689287  -0.892338  0  2.137933  0
O  O95  1  0.05843869  0.37619324  0.24890105  1  0  -0.955175  0  1.908139  0  0  -0.907641  0  2.115387  0  0  -0.942322  0  2.074766  0  0  -0.689362  -0.892497  0  2.137732  0
O  O96  1  0.36520215  0.96822836  0.60578899  1  0  -0.844903  0  1.843927  0  0  -0.795336  0  2.027313  0  0  -0.821047  0  1.994857  0  0  -0.591074  -0.783504  0  2.046765  0
O  O97  1  0.86518841  0.53178843  0.89420618  1  0  -0.844878  0  1.843885  0  0  -0.795271  0  2.027268  0  0  -0.82099  0  1.994807  0  0  -0.591027  -0.783434  0  2.046716  0
O  O98  1  0.63481678  0.03178728  0.39421131  1  0  -0.844817  0  1.843939  0  0  -0.795243  0  2.027403  0  0  -0.820953  0  1.994943  0  0  -0.591032  -0.783404  0  2.046857  0
O  O99  1  0.13482515  0.46821937  0.10579219  1  0  -0.844848  0  1.843833  0  0  -0.795299  0  2.027295  0  0  -0.821005  0  1.994841  0  0  -0.591086  -0.783463  0  2.046743  0
