# generated using pymatgen
data_CuH16C24(N2O3)2
_symmetry_space_group_name_H-M   'P 1'
_cell_length_a   12.64975892
_cell_length_b   12.64969069
_cell_length_c   12.64973188
_cell_angle_alpha   95.38937568
_cell_angle_beta   95.38941683
_cell_angle_gamma   95.38971788
_symmetry_Int_Tables_number   1
_chemical_formula_structural   CuH16C24(N2O3)2
_chemical_formula_sum   'Cu3 H48 C72 N12 O18'
_cell_volume   1995.48753897
_cell_formula_units_Z   3
loop_
 _symmetry_equiv_pos_site_id
 _symmetry_equiv_pos_as_xyz
  1  'x, y, z'
loop_
 _atom_site_type_symbol
 _atom_site_label
 _atom_site_symmetry_multiplicity
 _atom_site_fract_x
 _atom_site_fract_y
 _atom_site_fract_z
 _atom_site_occupancy
 _atom_site_pbe_bader_charge
 _atom_site_pbe_bader_spin_density
 _atom_site_pbe_cm5_charge
 _atom_site_pbe_ddec_charge
 _atom_site_pbe_ddec_spin_density
 _atom_site_pbe_ddec_sum_bond_order
 _atom_site_pbe_magmom
Cu  Cu0  1  0.99999928  0.00000033  0.49999982  1  1.059703  0.560931  0.752422  0.752801  0.727106  2.267785  0.56
Cu  Cu1  1  0.99999990  0.49999946  0.00000111  1  1.059693  0.560928  0.752437  0.752811  0.727102  2.26776  0.56
Cu  Cu2  1  0.49999955  0.00000049  0.00000102  1  1.059776  0.560927  0.752446  0.752849  0.7271  2.267722  0.56
H  H3  1  0.72394847  0.64952366  0.10672241  1  0.512078  5.9e-05  0.311147  0.285256  8e-05  0.977475  0.0
H  H4  1  0.64952582  0.10672220  0.72394697  1  0.512112  5.9e-05  0.311154  0.285306  8e-05  0.977444  0.0
H  H5  1  0.10672286  0.72394645  0.64952642  1  0.512123  5.9e-05  0.311132  0.285184  8e-05  0.977599  0.0
H  H6  1  0.27605102  0.35047682  0.89327671  1  0.51207  5.9e-05  0.311132  0.285268  8e-05  0.977451  0.0
H  H7  1  0.35047366  0.89327750  0.27605286  1  0.5121  5.9e-05  0.311174  0.285321  8e-05  0.9774  0.0
H  H8  1  0.89327663  0.27605166  0.35047326  1  0.512099  5.9e-05  0.311155  0.285332  8e-05  0.977402  0.0
H  H9  1  0.79136893  0.99628598  0.74784716  1  0.10403  0.000545  0.104451  0.106863  0.000474  1.037581  0.0
H  H10  1  0.99628425  0.74784463  0.79136912  1  0.104059  0.000546  0.104451  0.106825  0.000474  1.037606  0.0
H  H11  1  0.74784482  0.79136688  0.99628638  1  0.104089  0.000545  0.104446  0.106829  0.000474  1.037635  0.0
H  H12  1  0.20863136  0.00371539  0.25215369  1  0.104116  0.000545  0.104447  0.106825  0.000474  1.037637  0.0
H  H13  1  0.00371524  0.25215427  0.20863063  1  0.104132  0.000545  0.104442  0.106828  0.000474  1.037583  0.0
H  H14  1  0.25215627  0.20863298  0.00371519  1  0.104085  0.000545  0.10443  0.106815  0.000474  1.037664  0.0
H  H15  1  0.61596465  0.89049104  0.34771475  1  0.144005  0.001086  0.109337  0.117608  0.000584  1.040755  0.001
H  H16  1  0.89049529  0.34771676  0.61596303  1  0.144051  0.001086  0.109293  0.117575  0.000584  1.040814  0.001
H  H17  1  0.34771601  0.61596440  0.89049305  1  0.144062  0.001086  0.109319  0.117618  0.000584  1.040778  0.001
H  H18  1  0.38403484  0.10950945  0.65228436  1  0.144028  0.001086  0.109333  0.11762  0.000584  1.040773  0.001
H  H19  1  0.10950500  0.65228460  0.38403703  1  0.144015  0.001086  0.109307  0.117585  0.000584  1.0408  0.001
H  H20  1  0.65228428  0.38403696  0.10950701  1  0.144034  0.001086  0.109319  0.117602  0.000584  1.040801  0.001
H  H21  1  0.76735551  0.99443657  0.46915510  1  0.11556  0.002112  0.121806  0.098297  0.000901  1.00592  0.002
H  H22  1  0.99444066  0.46915460  0.76735589  1  0.115463  0.002111  0.121808  0.09828  0.000901  1.005866  0.002
H  H23  1  0.46915448  0.76735699  0.99443831  1  0.115494  0.002112  0.121804  0.098294  0.000901  1.005899  0.002
H  H24  1  0.23264238  0.00556297  0.53084457  1  0.115517  0.002112  0.121801  0.098274  0.000901  1.005944  0.002
H  H25  1  0.00555882  0.53084510  0.23264394  1  0.115455  0.002112  0.121808  0.098271  0.000901  1.005869  0.002
H  H26  1  0.53084501  0.23264430  0.00556245  1  0.115541  0.002111  0.121805  0.098268  0.000901  1.005928  0.002
H  H27  1  0.98898150  0.81666972  0.33467670  1  0.117029  0.002109  0.119476  0.090295  0.000893  1.008904  0.001
H  H28  1  0.81667111  0.33467556  0.98898058  1  0.11697  0.002109  0.11947  0.090309  0.000893  1.008866  0.001
H  H29  1  0.33467698  0.98898360  0.81667150  1  0.117021  0.002109  0.119482  0.090251  0.000893  1.008861  0.001
H  H30  1  0.01101559  0.18332894  0.66532440  1  0.116986  0.002109  0.119478  0.090247  0.000893  1.00885  0.001
H  H31  1  0.18332837  0.66532334  0.01101838  1  0.117065  0.002109  0.119464  0.090304  0.000893  1.008863  0.001
H  H32  1  0.66532331  0.01101856  0.18332942  1  0.11703  0.002109  0.119463  0.090299  0.000893  1.008881  0.001
H  H33  1  0.84946624  0.70481013  0.21092298  1  0.14032  0.00098  0.115147  0.130605  0.000533  1.020843  0.001
H  H34  1  0.70480895  0.21091937  0.84946537  1  0.14031  0.00098  0.115197  0.130668  0.000533  1.020752  0.001
H  H35  1  0.21091975  0.84946751  0.70480934  1  0.140295  0.00098  0.115182  0.13065  0.000533  1.020775  0.001
H  H36  1  0.15053325  0.29519036  0.78907771  1  0.140313  0.00098  0.115182  0.130644  0.000533  1.020816  0.001
H  H37  1  0.29519133  0.78907882  0.15053361  1  0.140323  0.00098  0.115183  0.130635  0.000534  1.020786  0.001
H  H38  1  0.78907974  0.15053377  0.29518984  1  0.140306  0.00098  0.115179  0.130642  0.000533  1.020798  0.001
H  H39  1  0.67960867  0.55006027  0.94497262  1  0.110859  -2.7e-05  0.104685  0.121456  -2.2e-05  1.011154  0.0
H  H40  1  0.55005915  0.94497311  0.67960835  1  0.110881  -2.7e-05  0.104703  0.121488  -2.2e-05  1.011105  0.0
H  H41  1  0.94497312  0.67960750  0.55005990  1  0.110885  -2.7e-05  0.104709  0.121485  -2.2e-05  1.011109  0.0
H  H42  1  0.32039081  0.44994022  0.05502650  1  0.110853  -2.7e-05  0.104687  0.121453  -2.2e-05  1.01117  0.0
H  H43  1  0.44993954  0.05502809  0.32038996  1  0.110843  -2.7e-05  0.104689  0.121455  -2.2e-05  1.011113  0.0
H  H44  1  0.05502716  0.32039068  0.44993749  1  0.110849  -2.7e-05  0.104699  0.12145  -2.2e-05  1.011186  0.0
H  H45  1  0.44491413  0.58831675  0.16732943  1  0.129104  5e-06  0.107349  0.126655  2e-06  1.017109  0.0
H  H46  1  0.58831881  0.16732860  0.44491143  1  0.129101  5e-06  0.107349  0.126662  2e-06  1.017093  0.0
H  H47  1  0.16732897  0.44491144  0.58831674  1  0.129113  5e-06  0.107362  0.126651  2e-06  1.017136  0.0
H  H48  1  0.55508616  0.41168382  0.83266976  1  0.129105  5e-06  0.107357  0.126656  2e-06  1.017125  0.0
H  H49  1  0.41168148  0.83267117  0.55508690  1  0.129104  5e-06  0.107364  0.12668  2e-06  1.017081  0.0
H  H50  1  0.83267370  0.55508699  0.41168090  1  0.129125  5e-06  0.107359  0.126682  2e-06  1.01711  0.0
C  C51  1  0.95570893  0.90590732  0.66760200  1  1.569125  -0.001869  0.195551  0.561279  -0.002537  4.215332  -0.004
C  C52  1  0.90590760  0.66759946  0.95570909  1  1.569099  -0.001869  0.19561  0.561272  -0.002537  4.215251  -0.004
C  C53  1  0.66760273  0.95570939  0.90590879  1  1.569053  -0.00187  0.195551  0.561104  -0.002537  4.215503  -0.004
C  C54  1  0.04429135  0.09409087  0.33239776  1  1.569046  -0.00187  0.195503  0.561037  -0.002537  4.215554  -0.004
C  C55  1  0.09409508  0.33239977  0.04429257  1  1.568946  -0.00187  0.195472  0.561193  -0.002537  4.215366  -0.004
C  C56  1  0.33239675  0.04429031  0.09409025  1  1.569077  -0.00187  0.195536  0.561088  -0.002537  4.215505  -0.004
C  C57  1  0.90075786  0.87631340  0.76112054  1  -0.067922  0.008054  -0.021748  -0.039087  0.005562  4.00723  0.006
C  C58  1  0.87631382  0.76111972  0.90075864  1  -0.067656  0.008053  -0.021818  -0.039131  0.005561  4.007212  0.006
C  C59  1  0.76112041  0.90075941  0.87631498  1  -0.067629  0.008052  -0.021753  -0.038994  0.005561  4.007119  0.006
C  C60  1  0.09924083  0.12368383  0.23887899  1  -0.067934  0.008053  -0.021743  -0.039023  0.005561  4.00714  0.006
C  C61  1  0.12368807  0.23888022  0.09924223  1  -0.067735  0.008053  -0.021724  -0.039073  0.005561  4.00729  0.006
C  C62  1  0.23887908  0.09924188  0.12368579  1  -0.067613  0.008053  -0.021763  -0.039016  0.005561  4.007118  0.006
C  C63  1  0.81569545  0.93108967  0.79157603  1  0.00108  -4.6e-05  -0.070392  -0.083094  -0.000431  3.911366  0.0
C  C64  1  0.93108870  0.79157431  0.81569533  1  0.000766  -4.5e-05  -0.070367  -0.083008  -0.000431  3.911502  0.0
C  C65  1  0.79157546  0.81569348  0.93109091  1  0.001084  -4.6e-05  -0.070337  -0.083032  -0.000431  3.911391  0.0
C  C66  1  0.18430484  0.06891011  0.20842467  1  0.000972  -4.6e-05  -0.070356  -0.083009  -0.000431  3.911445  0.0
C  C67  1  0.06891238  0.20842555  0.18430545  1  0.000742  -4.5e-05  -0.070402  -0.083062  -0.000431  3.911328  0.0
C  C68  1  0.20842643  0.18430884  0.06891017  1  0.001116  -4.5e-05  -0.070357  -0.083037  -0.000431  3.911464  0.0
C  C69  1  0.69806223  0.87274064  0.34296085  1  -0.005895  0.005682  -0.07338  -0.137814  0.003911  3.928559  0.004
C  C70  1  0.87274478  0.34295987  0.69806220  1  -0.005912  0.005682  -0.073381  -0.137794  0.003911  3.928688  0.004
C  C71  1  0.34296032  0.69806411  0.87274532  1  -0.005881  0.005681  -0.073372  -0.137779  0.003911  3.928655  0.004
C  C72  1  0.30193646  0.12725818  0.65703883  1  -0.00583  0.005682  -0.073393  -0.137847  0.003911  3.928597  0.004
C  C73  1  0.12725550  0.65703911  0.30193763  1  -0.005888  0.005682  -0.07341  -0.137901  0.003911  3.928697  0.004
C  C74  1  0.65704078  0.30193734  0.12725640  1  -0.005884  0.005682  -0.0734  -0.137823  0.003911  3.928694  0.004
C  C75  1  0.78112833  0.92985623  0.41035202  1  0.450005  -0.001322  0.052437  0.098084  -0.001823  3.913215  -0.001
C  C76  1  0.92986002  0.41035284  0.78112844  1  0.450018  -0.001322  0.052438  0.098141  -0.001823  3.913179  -0.001
C  C77  1  0.41035356  0.78112927  0.92985716  1  0.450011  -0.001322  0.052441  0.098069  -0.001823  3.913232  -0.001
C  C78  1  0.21887036  0.07014259  0.58964765  1  0.450013  -0.001322  0.052453  0.098135  -0.001823  3.913206  -0.001
C  C79  1  0.07014106  0.58964623  0.21887227  1  0.450002  -0.001322  0.052417  0.098141  -0.001823  3.913192  -0.001
C  C80  1  0.58964593  0.21887201  0.07014360  1  0.449987  -0.001322  0.052473  0.098177  -0.001823  3.913215  -0.001
C  C81  1  0.90512017  0.82974216  0.33512372  1  0.462473  -0.00128  0.051989  0.100944  -0.00163  3.92419  -0.001
C  C82  1  0.82974383  0.33512098  0.90511987  1  0.462623  -0.00128  0.052001  0.101017  -0.00163  3.924232  -0.001
C  C83  1  0.33512194  0.90512186  0.82974388  1  0.462411  -0.00128  0.052044  0.101098  -0.00163  3.924162  -0.001
C  C84  1  0.09487851  0.17025587  0.66487667  1  0.462501  -0.00128  0.052007  0.101064  -0.00163  3.924021  -0.001
C  C85  1  0.17025566  0.66487633  0.09487974  1  0.462442  -0.00128  0.051985  0.100911  -0.00163  3.924174  -0.001
C  C86  1  0.66487756  0.09488023  0.17025775  1  0.462571  -0.00128  0.052022  0.100997  -0.00163  3.924203  -0.001
C  C87  1  0.82614028  0.76832003  0.26555256  1  -0.0255  0.005824  -0.07266  -0.142205  0.003927  3.909696  0.005
C  C88  1  0.76832221  0.26555146  0.82614003  1  -0.02549  0.005824  -0.072689  -0.142272  0.003927  3.909857  0.005
C  C89  1  0.26555293  0.82614299  0.76832217  1  -0.025482  0.005823  -0.072727  -0.142315  0.003927  3.909978  0.005
C  C90  1  0.17385840  0.23167879  0.73444791  1  -0.02549  0.005824  -0.072687  -0.142291  0.003928  3.909795  0.005
C  C91  1  0.23167887  0.73444601  0.17386053  1  -0.025689  0.005824  -0.072665  -0.142197  0.003928  3.90969  0.005
C  C92  1  0.73444817  0.17385925  0.23167962  1  -0.02552  0.005824  -0.07267  -0.14222  0.003927  3.909852  0.005
C  C93  1  0.71986289  0.79032084  0.26870053  1  -0.037643  -0.003755  0.011778  0.024486  -0.004165  3.937125  -0.002
C  C94  1  0.79032231  0.26870169  0.71986421  1  -0.037353  -0.003755  0.011763  0.024373  -0.004165  3.937307  -0.002
C  C95  1  0.26870220  0.71986548  0.79032121  1  -0.037329  -0.003755  0.01179  0.024418  -0.004165  3.937338  -0.002
C  C96  1  0.28013580  0.20967878  0.73130000  1  -0.037363  -0.003755  0.011774  0.024472  -0.004165  3.937192  -0.002
C  C97  1  0.20967798  0.73129809  0.28013649  1  -0.037119  -0.003755  0.011805  0.024497  -0.004165  3.937167  -0.002
C  C98  1  0.73129809  0.28013589  0.20967964  1  -0.037358  -0.003755  0.011753  0.02435  -0.004165  3.93728  -0.002
C  C99  1  0.62509898  0.72963197  0.20119018  1  1.431928  0.000216  0.240286  0.465302  0.000116  4.112626  0.0
C  C100  1  0.72963276  0.20118914  0.62510318  1  1.431589  0.000216  0.24037  0.465464  0.000116  4.112527  0.0
C  C101  1  0.20119006  0.62510444  0.72963153  1  1.431542  0.000216  0.240294  0.46542  0.000116  4.112619  0.0
C  C102  1  0.37489971  0.27036685  0.79881028  1  1.431628  0.000216  0.240327  0.465415  0.000116  4.112569  0.0
C  C103  1  0.27036434  0.79881032  0.37489878  1  1.431602  0.000216  0.240313  0.465342  0.000116  4.112653  0.0
C  C104  1  0.79881182  0.37489628  0.27036624  1  1.431571  0.000216  0.240382  0.465502  0.000116  4.112482  0.0
C  C105  1  0.57091902  0.57854422  0.06340724  1  0.373536  -7.3e-05  0.093208  0.231442  -9.4e-05  4.029455  0.0
C  C106  1  0.57854423  0.06340753  0.57091803  1  0.373362  -7.3e-05  0.093284  0.231574  -9.4e-05  4.02932  0.0
C  C107  1  0.06340603  0.57091723  0.57854238  1  0.37353  -7.3e-05  0.093203  0.231402  -9.4e-05  4.029436  0.0
C  C108  1  0.42907967  0.42145778  0.93659273  1  0.373558  -7.3e-05  0.093252  0.23148  -9.4e-05  4.029471  0.0
C  C109  1  0.42145286  0.93659352  0.42908170  1  0.373374  -7.3e-05  0.093296  0.231546  -9.4e-05  4.029403  0.0
C  C110  1  0.93659345  0.42908246  0.42145271  1  0.373357  -7.3e-05  0.093286  0.231581  -9.4e-05  4.029419  0.0
C  C111  1  0.60042418  0.52791789  0.96855067  1  -0.12822  -0.000112  -0.095893  -0.172891  -0.000148  3.985697  0.0
C  C112  1  0.52791595  0.96855222  0.60042367  1  -0.128168  -0.000112  -0.095965  -0.172994  -0.000148  3.985835  0.0
C  C113  1  0.96855222  0.60042365  0.52791719  1  -0.128109  -0.000112  -0.095958  -0.172928  -0.000148  3.985807  0.0
C  C114  1  0.39957451  0.47208332  0.03144844  1  -0.12824  -0.000112  -0.095938  -0.172922  -0.000148  3.985725  0.0
C  C115  1  0.47208194  0.03144811  0.39957528  1  -0.128116  -0.000112  -0.095935  -0.172913  -0.000148  3.985773  0.0
C  C116  1  0.03144806  0.39957533  0.47208106  1  -0.12814  -0.000112  -0.095912  -0.172879  -0.000148  3.985819  0.0
C  C117  1  0.46905947  0.54981583  0.09435501  1  0.003452  5.7e-05  -0.095836  -0.170219  3.9e-05  3.984062  0.0
C  C118  1  0.54981534  0.09435414  0.46905680  1  0.003528  5.7e-05  -0.095835  -0.170245  3.9e-05  3.984024  0.0
C  C119  1  0.09435330  0.46905564  0.54981435  1  0.00333  5.7e-05  -0.095831  -0.170163  3.9e-05  3.984108  0.0
C  C120  1  0.53094002  0.45018466  0.90564489  1  0.00342  5.7e-05  -0.095863  -0.170231  3.9e-05  3.984151  0.0
C  C121  1  0.45018336  0.90564707  0.53094309  1  0.003528  5.7e-05  -0.095842  -0.170246  3.9e-05  3.984105  0.0
C  C122  1  0.90564617  0.53094247  0.45018217  1  0.003497  5.7e-05  -0.095841  -0.170278  3.9e-05  3.984082  0.0
N  N123  1  0.88310639  0.90858919  0.40617745  1  -1.218327  0.089823  -0.343733  -0.221365  0.060146  3.613515  0.078
N  N124  1  0.90859248  0.40617394  0.88310736  1  -1.218442  0.08982  -0.343755  -0.221461  0.060145  3.61356  0.078
N  N125  1  0.40617646  0.88310788  0.90858985  1  -1.218402  0.08982  -0.343825  -0.22147  0.060145  3.613437  0.078
N  N126  1  0.11689230  0.09140884  0.59382373  1  -1.218437  0.089823  -0.343795  -0.221461  0.060147  3.613456  0.079
N  N127  1  0.09140860  0.59382354  0.11689399  1  -1.218372  0.089825  -0.34373  -0.221365  0.060148  3.613492  0.079
N  N128  1  0.59382383  0.11689269  0.09141093  1  -1.218487  0.089821  -0.343779  -0.221461  0.060146  3.613508  0.078
N  N129  1  0.64693990  0.65288221  0.12532350  1  -1.277171  -0.000246  -0.390427  -0.366636  -0.000291  3.572139  0.0
N  N130  1  0.65288513  0.12532431  0.64693765  1  -1.277189  -0.000246  -0.390464  -0.366749  -0.000291  3.572228  0.0
N  N131  1  0.12532407  0.64693586  0.65288387  1  -1.277192  -0.000246  -0.390386  -0.366567  -0.000291  3.572332  0.0
N  N132  1  0.35305959  0.34711828  0.87467640  1  -1.277195  -0.000246  -0.390427  -0.366682  -0.000291  3.572063  0.0
N  N133  1  0.34711356  0.87467769  0.35306074  1  -1.277185  -0.000246  -0.390489  -0.366729  -0.000291  3.572199  0.0
N  N134  1  0.87467621  0.35306233  0.34711431  1  -1.277212  -0.000246  -0.390441  -0.366787  -0.000291  3.572268  0.0
O  O135  1  0.92061229  0.98576491  0.62311458  1  -1.11196  0.111736  -0.331674  -0.539325  0.071697  2.344405  0.101
O  O136  1  0.98576396  0.62311262  0.92060771  1  -1.11191  0.111735  -0.331614  -0.539247  0.071696  2.344437  0.101
O  O137  1  0.62311554  0.92060966  0.98576733  1  -1.111933  0.111742  -0.331598  -0.539179  0.071701  2.344399  0.101
O  O138  1  0.07938879  0.01423337  0.37688527  1  -1.111939  0.111734  -0.331589  -0.539187  0.071696  2.344456  0.101
O  O139  1  0.01423953  0.37688749  0.07939411  1  -1.111753  0.11174  -0.331625  -0.53925  0.0717  2.344404  0.101
O  O140  1  0.37688476  0.07939330  0.01423446  1  -1.111939  0.111738  -0.331627  -0.539228  0.071698  2.344422  0.101
O  O141  1  0.02920176  0.85508238  0.63431051  1  -1.188527  0.0001  -0.324413  -0.585021  -0.001081  2.186515  0.001
O  O142  1  0.85508668  0.63431095  0.02920589  1  -1.188551  0.0001  -0.324472  -0.585053  -0.001081  2.186486  0.001
O  O143  1  0.63431290  0.02920692  0.85508819  1  -1.18851  0.0001  -0.32448  -0.585022  -0.001081  2.186487  0.001
O  O144  1  0.97079532  0.14491231  0.36568864  1  -1.1885  0.0001  -0.324441  -0.584952  -0.001081  2.186509  0.001
O  O145  1  0.14491922  0.36569497  0.97080143  1  -1.188547  0.0001  -0.32437  -0.584986  -0.001081  2.186523  0.001
O  O146  1  0.36568659  0.97079357  0.14491171  1  -1.188495  0.0001  -0.324441  -0.584973  -0.001081  2.186514  0.001
O  O147  1  0.53345701  0.74968390  0.21757741  1  -1.133284  -0.000122  -0.294693  -0.477325  -0.000195  2.10449  0.0
O  O148  1  0.74968614  0.21757800  0.53345465  1  -1.133251  -0.000122  -0.294783  -0.47745  -0.000195  2.104305  0.0
O  O149  1  0.21758068  0.53345535  0.74968487  1  -1.133174  -0.000122  -0.294741  -0.477445  -0.000195  2.10432  0.0
O  O150  1  0.46654248  0.25031421  0.78242465  1  -1.133261  -0.000122  -0.294722  -0.477391  -0.000195  2.104495  0.0
O  O151  1  0.25031256  0.78242479  0.46654460  1  -1.133288  -0.000122  -0.294738  -0.477379  -0.000195  2.104436  0.0
O  O152  1  0.78242519  0.46654578  0.25031173  1  -1.133247  -0.000122  -0.294801  -0.47747  -0.000195  2.104282  0.0
