# generated using pymatgen
data_ZnH3C3(N2O)2
_symmetry_space_group_name_H-M   'P 1'
_cell_length_a   12.92348279
_cell_length_b   13.91010465
_cell_length_c   16.91502841
_cell_angle_alpha   90.00000777
_cell_angle_beta   89.99942888
_cell_angle_gamma   90.00005182
_symmetry_Int_Tables_number   1
_chemical_formula_structural   ZnH3C3(N2O)2
_chemical_formula_sum   'Zn16 H48 C48 N64 O32'
_cell_volume   3040.76388081
_cell_formula_units_Z   16
loop_
 _symmetry_equiv_pos_site_id
 _symmetry_equiv_pos_as_xyz
  1  'x, y, z'
loop_
 _atom_site_type_symbol
 _atom_site_label
 _atom_site_symmetry_multiplicity
 _atom_site_fract_x
 _atom_site_fract_y
 _atom_site_fract_z
 _atom_site_occupancy
 _atom_site_pbe_bader_charge
 _atom_site_pbe_bader_spin_density
 _atom_site_pbe_cm5_charge
 _atom_site_pbe_ddec_charge
 _atom_site_pbe_ddec_spin_density
 _atom_site_pbe_ddec_sum_bond_order
 _atom_site_pbe_magmom
Zn  Zn0  1  0.43008005  0.01932858  0.09523616  1  1.255163  0  0.717241  0.722628  0  2.443588  0
Zn  Zn1  1  0.56991780  0.48067029  0.59523776  1  1.255131  0  0.717303  0.722687  0  2.443509  0
Zn  Zn2  1  0.93008149  0.98067098  0.40476260  1  1.255225  0  0.717265  0.722613  0  2.443552  0
Zn  Zn3  1  0.06992056  0.51932977  0.90476443  1  1.255022  0  0.717273  0.722693  0  2.443556  0
Zn  Zn4  1  0.56991912  0.98067087  0.90476373  1  1.255036  0  0.71725  0.722698  0  2.443534  0
Zn  Zn5  1  0.43008137  0.51932988  0.40476330  1  1.255093  0  0.717293  0.722667  0  2.44355  0
Zn  Zn6  1  0.06991846  0.01933063  0.59523669  1  1.255077  0  0.71728  0.722631  0  2.443554  0
Zn  Zn7  1  0.93008094  0.48067112  0.09523546  1  1.255014  0  0.717241  0.722642  0  2.44361  0
Zn  Zn8  1  0.47705054  0.09247114  0.42921473  1  1.258406  0  0.71511  0.720985  0  2.43027  0
Zn  Zn9  1  0.52295070  0.40752850  0.92921077  1  1.258323  0  0.715064  0.720988  0  2.430373  0
Zn  Zn10  1  0.97704852  0.90752846  0.07078959  1  1.258319  0  0.715085  0.721028  0  2.430337  0
Zn  Zn11  1  0.02295013  0.59247080  0.57078586  1  1.258422  0  0.715121  0.721018  0  2.43024  0
Zn  Zn12  1  0.52294941  0.90752902  0.57078575  1  1.258461  0  0.715114  0.720975  0  2.430289  0
Zn  Zn13  1  0.47704925  0.59247095  0.07079029  1  1.258385  0  0.715068  0.720976  0  2.430334  0
Zn  Zn14  1  0.02294988  0.09247099  0.92920971  1  1.258398  0  0.715084  0.72103  0  2.430355  0
Zn  Zn15  1  0.97705059  0.40752937  0.42921402  1  1.258462  0  0.71513  0.721016  0  2.430261  0
H  H16  1  0.26144089  0.14501348  0.99889713  1  0.180335  0  0.139234  0.107163  0  0.984425  0
H  H17  1  0.73855867  0.35498618  0.49889852  1  0.180352  0  0.139239  0.107182  0  0.984455  0
H  H18  1  0.76144050  0.85498602  0.50110183  1  0.180354  0  0.139235  0.107172  0  0.984409  0
H  H19  1  0.23856061  0.64501466  0.00110288  1  0.180331  0  0.139216  0.107171  0  0.98443  0
H  H20  1  0.73856061  0.85498525  0.00110217  1  0.180323  0  0.139212  0.10717  0  0.98447  0
H  H21  1  0.26144050  0.64501399  0.50110136  1  0.180351  0  0.139235  0.10718  0  0.984444  0
H  H22  1  0.23855945  0.14501415  0.49889864  1  0.180353  0  0.139224  0.107149  0  0.984462  0
H  H23  1  0.76143933  0.35498407  0.99889701  1  0.180043  0  0.139222  0.107152  0  0.984415  0
H  H24  1  0.44856733  0.80021992  0.15328037  1  0.179957  0  0.133027  0.109214  0  1.028275  0
H  H25  1  0.55142948  0.69977935  0.65327913  1  0.179972  0  0.133057  0.109216  0  1.028311  0
H  H26  1  0.94856876  0.19978038  0.34672061  1  0.179962  0  0.133048  0.109259  0  1.028254  0
H  H27  1  0.05143355  0.30022069  0.84671965  1  0.17992  0  0.133023  0.109203  0  1.028287  0
H  H28  1  0.55143030  0.19977881  0.84672010  1  0.179944  0  0.13304  0.109238  0  1.028335  0
H  H29  1  0.44857047  0.30022082  0.34672075  1  0.179984  0  0.13306  0.109284  0  1.028264  0
H  H30  1  0.05143041  0.80022051  0.65327868  1  0.179986  0  0.133054  0.109308  0  1.028268  0
H  H31  1  0.94856794  0.69977947  0.15327964  1  0.179942  0  0.133041  0.109243  0  1.028256  0
H  H32  1  0.15432077  0.84305844  0.16057856  1  0.480107  0  0.304832  0.318393  0  0.959841  0
H  H33  1  0.84567827  0.65694155  0.66057980  1  0.480099  0  0.304819  0.318391  0  0.959865  0
H  H34  1  0.65432226  0.15694089  0.33942112  1  0.480112  0  0.304836  0.318407  0  0.95985  0
H  H35  1  0.34567860  0.34305874  0.83942206  1  0.480115  0  0.304838  0.318397  0  0.959843  0
H  H36  1  0.84567763  0.15694101  0.83942192  1  0.480134  0  0.304827  0.318376  0  0.959912  0
H  H37  1  0.15432168  0.34305862  0.33942068  1  0.480109  0  0.304814  0.318354  0  0.959926  0
H  H38  1  0.34567769  0.84305856  0.66057935  1  0.480112  0  0.304829  0.318401  0  0.959861  0
H  H39  1  0.65432212  0.65694071  0.16057841  1  0.480135  0  0.304826  0.318392  0  0.959882  0
H  H40  1  0.27828028  0.88351469  0.18014530  1  0.535441  0  0.297777  0.322408  0  0.996059  0
H  H41  1  0.72171618  0.61648530  0.68014689  1  0.535373  0  0.297778  0.322414  0  0.996058  0
H  H42  1  0.77828353  0.11648546  0.31985284  1  0.535377  0  0.29778  0.322423  0  0.996043  0
H  H43  1  0.22171913  0.38351489  0.81985473  1  0.535439  0  0.297772  0.322404  0  0.996062  0
H  H44  1  0.72171889  0.11648476  0.81985517  1  0.535438  0  0.297776  0.322405  0  0.996044  0
H  H45  1  0.27828377  0.38351415  0.31985417  1  0.535381  0  0.297786  0.322429  0  0.996045  0
H  H46  1  0.22171642  0.88351471  0.68014645  1  0.535382  0  0.297783  0.322423  0  0.99605  0
H  H47  1  0.77828159  0.61648456  0.18014456  1  0.535433  0  0.2978  0.322455  0  0.996075  0
H  H48  1  0.55929602  0.77178314  0.85907598  1  0.501886  0  0.301654  0.319587  0  0.974632  0
H  H49  1  0.44070507  0.72821760  0.35907491  1  0.50184  0  0.301651  0.319605  0  0.974588  0
H  H50  1  0.05929497  0.22821835  0.64092511  1  0.501854  0  0.301667  0.319627  0  0.974563  0
H  H51  1  0.94070461  0.27178341  0.14092318  1  0.501934  0  0.301655  0.319595  0  0.974608  0
H  H52  1  0.44070392  0.22821631  0.14092390  1  0.501902  0  0.301638  0.31957  0  0.97466  0
H  H53  1  0.55929411  0.27178185  0.64092616  1  0.501828  0  0.301661  0.319582  0  0.974613  0
H  H54  1  0.94070575  0.77178182  0.35907419  1  0.501833  0  0.301665  0.319598  0  0.974598  0
H  H55  1  0.05929534  0.72821676  0.85907611  1  0.501886  0  0.301643  0.319574  0  0.97465  0
H  H56  1  0.56773843  0.66182280  0.90651955  1  0.511995  0  0.295856  0.320305  0  0.986028  0
H  H57  1  0.43225972  0.83817723  0.40651915  1  0.511954  0  0.295858  0.320327  0  0.985989  0
H  H58  1  0.06773965  0.33817870  0.59348088  1  0.511938  0  0.295841  0.320276  0  0.986041  0
H  H59  1  0.93226132  0.16182233  0.09348019  1  0.511986  0  0.295864  0.320323  0  0.985977  0
H  H60  1  0.43226152  0.33817737  0.09348151  1  0.511974  0  0.295853  0.32031  0  0.986026  0
H  H61  1  0.56773945  0.16182150  0.59348192  1  0.511939  0  0.295846  0.320286  0  0.986019  0
H  H62  1  0.93226030  0.66182147  0.40651841  1  0.511938  0  0.295838  0.320286  0  0.986028  0
H  H63  1  0.06773785  0.83817784  0.90651851  1  0.511983  0  0.295842  0.320284  0  0.986035  0
C  C64  1  0.42273453  0.98392163  0.28194772  1  1.606696  0  0.197327  0.468643  0  4.272323  0
C  C65  1  0.57725905  0.51607407  0.78193444  1  1.606526  0  0.197218  0.468765  0  4.272188  0
C  C66  1  0.92273979  0.01607361  0.21806647  1  1.606491  0  0.197207  0.468805  0  4.272177  0
C  C67  1  0.07726575  0.48392168  0.71805173  1  1.606698  0  0.19728  0.46855  0  4.272286  0
C  C68  1  0.57726464  0.01607998  0.71805394  1  1.60657  0  0.197408  0.468866  0  4.272225  0
C  C69  1  0.42274090  0.48392538  0.21806663  1  1.606504  0  0.197214  0.468727  0  4.272316  0
C  C70  1  0.07726016  0.98392655  0.78193401  1  1.606527  0  0.197199  0.468781  0  4.272157  0
C  C71  1  0.92273574  0.51607992  0.28194638  1  1.606567  0  0.197345  0.468722  0  4.272208  0
C  C72  1  0.46881935  0.08276236  0.25790556  1  1.559547  0  0.214991  0.48307  0  4.175908  0
C  C73  1  0.53117561  0.41723223  0.75789386  1  1.559781  0  0.214936  0.483035  0  4.175949  0
C  C74  1  0.96882285  0.91723220  0.24210591  1  1.55978  0  0.214896  0.482909  0  4.176044  0
C  C75  1  0.03118286  0.58276348  0.74209503  1  1.559552  0  0.215032  0.48319  0  4.175912  0
C  C76  1  0.53117827  0.91723709  0.74209433  1  1.559577  0  0.214927  0.482967  0  4.176036  0
C  C77  1  0.46882511  0.58276722  0.24210721  1  1.559778  0  0.21492  0.483062  0  4.17592  0
C  C78  1  0.03117555  0.08276796  0.75789279  1  1.559781  0  0.214977  0.483079  0  4.175959  0
C  C79  1  0.96882173  0.41723740  0.25790544  1  1.559574  0  0.214927  0.483017  0  4.175919  0
C  C80  1  0.20329723  0.95233153  0.09212150  1  1.496268  0  0.326913  0.536182  0  4.087952  0
C  C81  1  0.79670038  0.54766844  0.59212251  1  1.496495  0  0.326948  0.53624  0  4.087903  0
C  C82  1  0.70329849  0.04766855  0.40787781  1  1.496623  0  0.326939  0.536185  0  4.087982  0
C  C83  1  0.29670225  0.45233109  0.90787913  1  1.496401  0  0.326969  0.536303  0  4.087869  0
C  C84  1  0.79670194  0.04766863  0.90787957  1  1.496426  0  0.326914  0.536219  0  4.088001  0
C  C85  1  0.20329880  0.45233173  0.40787855  1  1.496522  0  0.32695  0.536198  0  4.087923  0
C  C86  1  0.29670068  0.95233161  0.59212208  1  1.496583  0  0.326934  0.536209  0  4.087953  0
C  C87  1  0.70329847  0.54766908  0.09212016  1  1.496396  0  0.326964  0.536297  0  4.087885  0
C  C88  1  0.22625855  0.08133737  0.02445136  1  0.985262  0  0.147832  0.160601  0  3.998256  0
C  C89  1  0.77374022  0.41866221  0.52445377  1  0.985263  0  0.147883  0.160653  0  3.998358  0
C  C90  1  0.72625978  0.91866274  0.47554659  1  0.985265  0  0.147877  0.160652  0  3.998333  0
C  C91  1  0.27374212  0.58133802  0.97554864  1  0.985264  0  0.147826  0.160564  0  3.998341  0
C  C92  1  0.77374140  0.91866136  0.97554911  1  0.985406  0  0.147877  0.160643  0  3.998269  0
C  C93  1  0.22625895  0.58133796  0.47554670  1  0.985272  0  0.147876  0.160618  0  3.998379  0
C  C94  1  0.27374094  0.08133815  0.52445389  1  0.985275  0  0.14789  0.160652  0  3.998353  0
C  C95  1  0.72625783  0.41866071  0.02445125  1  0.985517  0  0.147791  0.160605  0  3.998247  0
C  C96  1  0.52976066  0.78017344  0.97551811  1  1.462538  0  0.323131  0.532286  0  4.104246  0
C  C97  1  0.47023891  0.71982588  0.47551858  1  1.462621  0  0.323149  0.532355  0  4.104409  0
C  C98  1  0.02976111  0.21982586  0.52448143  1  1.462629  0  0.323127  0.53225  0  4.104498  0
C  C99  1  0.97023689  0.28017228  0.02448105  1  1.462584  0  0.323177  0.53234  0  4.10443  0
C  C100  1  0.47023619  0.21982673  0.02448118  1  1.462546  0  0.323133  0.532283  0  4.104417  0
C  C101  1  0.52976103  0.28017357  0.52448248  1  1.462632  0  0.323188  0.532337  0  4.104255  0
C  C102  1  0.97023961  0.78017430  0.47551786  1  1.462623  0  0.32312  0.532278  0  4.104307  0
C  C103  1  0.02976306  0.71982717  0.97551883  1  1.46256  0  0.323141  0.532335  0  4.104371  0
C  C104  1  0.47477041  0.80914078  0.09294280  1  0.996219  0  0.137115  0.15935  0  4.007916  0
C  C105  1  0.52522873  0.69086064  0.59294235  1  0.996165  0  0.13712  0.159375  0  4.008086  0
C  C106  1  0.97477183  0.19085954  0.40705739  1  0.996181  0  0.137119  0.15928  0  4.00794  0
C  C107  1  0.02523047  0.30914082  0.90705663  1  0.99623  0  0.13709  0.159306  0  4.007947  0
C  C108  1  0.52522876  0.19085867  0.90705708  1  0.996155  0  0.137079  0.159273  0  4.008044  0
C  C109  1  0.47477354  0.30914025  0.40705812  1  0.996203  0  0.137132  0.159318  0  4.007975  0
C  C110  1  0.02522735  0.80914063  0.59294190  1  0.996202  0  0.137068  0.1592  0  4.008073  0
C  C111  1  0.97477025  0.69085935  0.09294266  1  0.99616  0  0.137082  0.159288  0  4.007879  0
N  N112  1  0.27564967  0.02092664  0.07509607  1  -1.24489  0  -0.368059  -0.422688  0  3.462445  0
N  N113  1  0.72434844  0.47907367  0.57509828  1  -1.245041  0  -0.368161  -0.422824  0  3.462544  0
N  N114  1  0.77565085  0.97907279  0.42490091  1  -1.24515  0  -0.368154  -0.422794  0  3.462559  0
N  N115  1  0.22435093  0.52092724  0.92490333  1  -1.245013  0  -0.368123  -0.422802  0  3.462491  0
N  N116  1  0.72435027  0.97907209  0.92490381  1  -1.245174  0  -0.368111  -0.422829  0  3.462517  0
N  N117  1  0.27565073  0.52092722  0.42490160  1  -1.245101  0  -0.368138  -0.422778  0  3.462586  0
N  N118  1  0.22434910  0.02092737  0.57509898  1  -1.245172  0  -0.368156  -0.422807  0  3.462572  0
N  N119  1  0.77564979  0.47907221  0.07509656  1  -1.245002  0  -0.368133  -0.422844  0  3.462465  0
N  N120  1  0.13015373  0.05361288  0.01027676  1  -0.821127  0  -0.26577  -0.195245  0  3.563594  0
N  N121  1  0.86984523  0.44638670  0.51027962  1  -0.821188  0  -0.265759  -0.195201  0  3.563648  0
N  N122  1  0.63015480  0.94638643  0.48972015  1  -0.821187  0  -0.265755  -0.195196  0  3.563605  0
N  N123  1  0.36984691  0.55361289  0.98972265  1  -0.821164  0  -0.26573  -0.195132  0  3.563584  0
N  N124  1  0.86984777  0.94638657  0.98972135  1  -0.821245  0  -0.265775  -0.195224  0  3.563585  0
N  N125  1  0.13015472  0.55361419  0.48972026  1  -0.821172  0  -0.265761  -0.195188  0  3.563591  0
N  N126  1  0.36984515  0.05361374  0.51027973  1  -0.821157  0  -0.26575  -0.195169  0  3.56362  0
N  N127  1  0.63015304  0.44638584  0.01027783  1  -0.821143  0  -0.265728  -0.195191  0  3.563595  0
N  N128  1  0.11465420  0.97025803  0.05327768  1  -0.802085  0  -0.283414  -0.318355  0  3.434165  0
N  N129  1  0.88534391  0.52974194  0.55327920  1  -0.802044  0  -0.283413  -0.318386  0  3.434113  0
N  N130  1  0.61465572  0.02974126  0.44672112  1  -0.802088  0  -0.283401  -0.318328  0  3.434128  0
N  N131  1  0.38534607  0.47025767  0.94672236  1  -0.80207  0  -0.28343  -0.318434  0  3.434191  0
N  N132  1  0.88534574  0.02974286  0.94672279  1  -0.801986  0  -0.283413  -0.318416  0  3.434229  0
N  N133  1  0.11465527  0.47025895  0.44672127  1  -0.802051  0  -0.283406  -0.318341  0  3.434082  0
N  N134  1  0.38534423  0.97025890  0.55327877  1  -0.802023  0  -0.283386  -0.31832  0  3.4341  0
N  N135  1  0.61465388  0.52974178  0.05327753  1  -0.802048  0  -0.283413  -0.318388  0  3.434183  0
N  N136  1  0.21963845  0.87528971  0.13975777  1  -1.29749  0  -0.590609  -0.667744  0  3.255585  0
N  N137  1  0.78036085  0.62471027  0.63976010  1  -1.297461  0  -0.590543  -0.667718  0  3.25566  0
N  N138  1  0.71963886  0.12470967  0.36024023  1  -1.297461  0  -0.590547  -0.667716  0  3.255645  0
N  N139  1  0.28036173  0.37528996  0.86024226  1  -1.297493  0  -0.590596  -0.667742  0  3.255596  0
N  N140  1  0.78036072  0.12470974  0.86024270  1  -1.297494  0  -0.590591  -0.667678  0  3.255646  0
N  N141  1  0.21963909  0.37528917  0.36024097  1  -1.297446  0  -0.590556  -0.667693  0  3.255665  0
N  N142  1  0.28036108  0.87528977  0.63975966  1  -1.297464  0  -0.590554  -0.667729  0  3.255645  0
N  N143  1  0.71963977  0.62470949  0.13975762  1  -1.297494  0  -0.590608  -0.667774  0  3.255672  0
N  N144  1  0.52272850  0.87673058  0.98269283  1  -0.779346  0  -0.282706  -0.333339  0  3.392529  0
N  N145  1  0.47727020  0.62327017  0.48269265  1  -0.779379  0  -0.282711  -0.33333  0  3.392649  0
N  N146  1  0.02272895  0.12327015  0.51730736  1  -0.779387  0  -0.282715  -0.333261  0  3.392553  0
N  N147  1  0.97727069  0.37672943  0.01730694  1  -0.779289  0  -0.282732  -0.333373  0  3.392672  0
N  N148  1  0.47726990  0.12326958  0.01730824  1  -0.779511  0  -0.282704  -0.333319  0  3.392604  0
N  N149  1  0.52272819  0.37672999  0.51730842  1  -0.779413  0  -0.282712  -0.33332  0  3.392491  0
N  N150  1  0.97727177  0.87673002  0.48269075  1  -0.779556  0  -0.282666  -0.33322  0  3.392456  0
N  N151  1  0.02272926  0.62327002  0.98269176  1  -0.779354  0  -0.282732  -0.33339  0  3.392626  0
N  N152  1  0.48726499  0.89402008  0.05888843  1  -0.84895  0  -0.279701  -0.215815  0  3.594637  0
N  N153  1  0.51273305  0.60598132  0.55888747  1  -0.848799  0  -0.279719  -0.21586  0  3.594631  0
N  N154  1  0.98726665  0.10598024  0.44111285  1  -0.848829  0  -0.279678  -0.215799  0  3.594535  0
N  N155  1  0.01273521  0.39402012  0.94111161  1  -0.848933  0  -0.279684  -0.215784  0  3.594609  0
N  N156  1  0.51273341  0.10597937  0.94111264  1  -0.848842  0  -0.279674  -0.215782  0  3.594632  0
N  N157  1  0.48726767  0.39401956  0.44111300  1  -0.848831  0  -0.279703  -0.215831  0  3.594497  0
N  N158  1  0.01273252  0.89401992  0.55888644  1  -0.848806  0  -0.279703  -0.215853  0  3.59465  0
N  N159  1  0.98726551  0.60597933  0.05888710  1  -0.848831  0  -0.279644  -0.215736  0  3.594592  0
N  N160  1  0.49961694  0.73581855  0.04380179  1  -1.224127  0  -0.370068  -0.431047  0  3.451984  0
N  N161  1  0.50037974  0.76418214  0.54380035  1  -1.224302  0  -0.370048  -0.431047  0  3.452147  0
N  N162  1  0.99961856  0.26418179  0.45619999  1  -1.224262  0  -0.370043  -0.431002  0  3.452158  0
N  N163  1  0.00038310  0.23581786  0.95619705  1  -1.224162  0  -0.370075  -0.43105  0  3.452039  0
N  N164  1  0.50038146  0.26418090  0.95619810  1  -1.224124  0  -0.370065  -0.431029  0  3.452057  0
N  N165  1  0.49962020  0.23581803  0.45620012  1  -1.224285  0  -0.370082  -0.431089  0  3.452102  0
N  N166  1  0.00037984  0.73581838  0.54379930  1  -1.224271  0  -0.370025  -0.431025  0  3.452119  0
N  N167  1  0.99961685  0.76418159  0.04380166  1  -1.224144  0  -0.37007  -0.431063  0  3.452073  0
N  N168  1  0.56744904  0.73508824  0.91083820  1  -1.303518  0  -0.590027  -0.670053  0  3.298663  0
N  N169  1  0.43254982  0.76491251  0.41083779  1  -1.303426  0  -0.590042  -0.670152  0  3.298555  0
N  N170  1  0.06744947  0.26491325  0.58916164  1  -1.303427  0  -0.590037  -0.670103  0  3.298579  0
N  N171  1  0.93255078  0.23508849  0.08916155  1  -1.303608  0  -0.590018  -0.670066  0  3.298655  0
N  N172  1  0.43255090  0.26491121  0.08916227  1  -1.303538  0  -0.590007  -0.670043  0  3.298741  0
N  N173  1  0.56744935  0.23508694  0.58916328  1  -1.303432  0  -0.590076  -0.670074  0  3.29855  0
N  N174  1  0.93255048  0.73508692  0.41083706  1  -1.303424  0  -0.59004  -0.670079  0  3.298533  0
N  N175  1  0.06744917  0.76491239  0.91083716  1  -1.303546  0  -0.590022  -0.670054  0  3.298678  0
O  O176  1  0.39640141  0.92917220  0.22603895  1  -1.18826  0  -0.309209  -0.528277  0  2.262401  0
O  O177  1  0.60359058  0.57080982  0.72603316  1  -1.188527  0  -0.308926  -0.528089  0  2.263048  0
O  O178  1  0.89641063  0.07081079  0.27396716  1  -1.188534  0  -0.308934  -0.528135  0  2.263039  0
O  O179  1  0.10359959  0.42917229  0.77396108  1  -1.188253  0  -0.309214  -0.528248  0  2.262425  0
O  O180  1  0.60359699  0.07082940  0.77396270  1  -1.188187  0  -0.309212  -0.528349  0  2.262435  0
O  O181  1  0.39641091  0.42918891  0.27396731  1  -1.18853  0  -0.308918  -0.528105  0  2.263143  0
O  O182  1  0.10358931  0.92919009  0.72603332  1  -1.188533  0  -0.308916  -0.528117  0  2.263016  0
O  O183  1  0.89640268  0.57082931  0.22603762  1  -1.188174  0  -0.30921  -0.528293  0  2.262417  0
O  O184  1  0.47989270  0.10206703  0.18506792  1  -1.161677  0  -0.302831  -0.484259  0  2.413669  0
O  O185  1  0.52009469  0.39792467  0.68506813  1  -1.162088  0  -0.302796  -0.484212  0  2.414106  0
O  O186  1  0.97990606  0.89792467  0.31493164  1  -1.162088  0  -0.302776  -0.484163  0  2.414111  0
O  O187  1  0.02010953  0.60206744  0.81493149  1  -1.16168  0  -0.302862  -0.484326  0  2.413867  0
O  O188  1  0.52010647  0.89793242  0.81493196  1  -1.161696  0  -0.302812  -0.484259  0  2.413719  0
O  O189  1  0.47990525  0.60207406  0.31493353  1  -1.162117  0  -0.302717  -0.484144  0  2.414218  0
O  O190  1  0.02009543  0.10207406  0.68506706  1  -1.16212  0  -0.302727  -0.48415  0  2.414238  0
O  O191  1  0.97989351  0.39793273  0.18506780  1  -1.161694  0  -0.302795  -0.484228  0  2.413651  0
O  O192  1  0.41703821  0.96848896  0.35571055  1  -1.157371  0  -0.309728  -0.518774  0  2.286028  0
O  O193  1  0.58296370  0.53150243  0.85571082  1  -1.156819  0  -0.309807  -0.518945  0  2.285316  0
O  O194  1  0.91703361  0.03150196  0.14429008  1  -1.156783  0  -0.309798  -0.51893  0  2.285301  0
O  O195  1  0.08296283  0.46848901  0.64428949  1  -1.157382  0  -0.309667  -0.518691  0  2.285912  0
O  O196  1  0.58296174  0.03151192  0.64429111  1  -1.1573  0  -0.309782  -0.518882  0  2.286069  0
O  O197  1  0.41703625  0.46849702  0.14429024  1  -1.156785  0  -0.309794  -0.518912  0  2.285344  0
O  O198  1  0.08296324  0.96849749  0.85571039  1  -1.156806  0  -0.309826  -0.518976  0  2.285317  0
O  O199  1  0.91703866  0.53151259  0.35570921  1  -1.157314  0  -0.309723  -0.518801  0  2.286017  0
O  O200  1  0.49390823  0.14037588  0.31248179  1  -1.180874  0  -0.300027  -0.495331  0  2.384562  0
O  O201  1  0.50608369  0.35961296  0.81248032  1  -1.180831  0  -0.300031  -0.495439  0  2.38419  0
O  O202  1  0.99391703  0.85961438  0.18751944  1  -1.180819  0  -0.300011  -0.495364  0  2.384201  0
O  O203  1  0.00609326  0.64037698  0.68751822  1  -1.180881  0  -0.300056  -0.495407  0  2.384429  0
O  O204  1  0.50608939  0.85962356  0.68751869  1  -1.180913  0  -0.299981  -0.495286  0  2.384681  0
O  O205  1  0.49392167  0.64038649  0.18752252  1  -1.180804  0  -0.300097  -0.49549  0  2.384054  0
O  O206  1  0.00607982  0.14038650  0.81247808  1  -1.180816  0  -0.300101  -0.495474  0  2.384062  0
O  O207  1  0.99391133  0.35962391  0.31248107  1  -1.180902  0  -0.29999  -0.49533  0  2.384643  0
