# generated using pymatgen
data_Hg3H12C22(S3N5)2
_symmetry_space_group_name_H-M   'P 1'
_cell_length_a   10.66794765
_cell_length_b   11.77931657
_cell_length_c   13.60400000
_cell_angle_alpha   105.33724367
_cell_angle_beta   110.16603809
_cell_angle_gamma   95.62943694
_symmetry_Int_Tables_number   1
_chemical_formula_structural   Hg3H12C22(S3N5)2
_chemical_formula_sum   'Hg6 H24 C44 S12 N20'
_cell_volume   1513.34263568
_cell_formula_units_Z   2
loop_
 _symmetry_equiv_pos_site_id
 _symmetry_equiv_pos_as_xyz
  1  'x, y, z'
loop_
 _atom_site_type_symbol
 _atom_site_label
 _atom_site_symmetry_multiplicity
 _atom_site_fract_x
 _atom_site_fract_y
 _atom_site_fract_z
 _atom_site_occupancy
 _atom_site_hle17_bader_spin_density
 _atom_site_hle17_ddec_charge
 _atom_site_hle17_ddec_spin_density
 _atom_site_hle17_ddec_sum_bond_order
 _atom_site_hle17_magmom
 _atom_site_hse06_10hf_bader_spin_density
 _atom_site_hse06_10hf_ddec_charge
 _atom_site_hse06_10hf_ddec_spin_density
 _atom_site_hse06_10hf_ddec_sum_bond_order
 _atom_site_hse06_10hf_magmom
 _atom_site_hse06_bader_spin_density
 _atom_site_hse06_ddec_charge
 _atom_site_hse06_ddec_spin_density
 _atom_site_hse06_ddec_sum_bond_order
 _atom_site_hse06_magmom
 _atom_site_pbe_bader_charge
 _atom_site_pbe_bader_spin_density
 _atom_site_pbe_cm5_charge
 _atom_site_pbe_ddec_charge
 _atom_site_pbe_ddec_spin_density
 _atom_site_pbe_ddec_sum_bond_order
 _atom_site_pbe_magmom
Hg  Hg0  1  0.72882702  0.12331572  0.08363308  1  0  0.673428  0  2.072363  0  0  0.533846  0  2.550279  0  0  0.575298  0  2.524078  0  0.743233  0  0.537878  0.506832  0  2.567154  0
Hg  Hg1  1  0.27117256  0.87668322  0.91636634  1  0  0.673463  0  2.072356  0  0  0.533885  0  2.550265  0  0  0.575339  0  2.524064  0  0.743226  0  0.53789  0.506872  0  2.56714  0
Hg  Hg2  1  0.69942464  0.59298451  0.02893380  1  0  0.655331  0  2.12481  0  0  0.517542  0  2.605787  0  0  0.560051  0  2.578301  0  0.742176  0  0.532617  0.489691  0  2.623205  0
Hg  Hg3  1  0.30057515  0.40701532  0.97106589  1  0  0.655323  0  2.124802  0  0  0.51753  0  2.605779  0  0  0.560039  0  2.578296  0  0.742174  0  0.532614  0.489679  0  2.623199  0
Hg  Hg4  1  0.50079881  0.25578640  0.51729839  1  0  0.669183  0  2.058226  0  0  0.524355  0  2.53786  0  0  0.56954  0  2.507538  0  0.755426  0  0.538499  0.495763  0  2.556592  0
Hg  Hg5  1  0.49920220  0.74421433  0.48270183  1  0  0.66914  0  2.058274  0  0  0.524306  0  2.537908  0  0  0.569491  0  2.507588  0  0.755398  0  0.538482  0.495713  0  2.556639  0
H  H6  1  0.03715101  0.09141196  0.12250997  1  0  0.092701  0  0.961654  0  0  0.096592  0  1.033412  0  0  0.098945  0  1.031329  0  0.149402  0  0.112257  0.094817  0  1.03497  0
H  H7  1  0.96284878  0.90858788  0.87748972  1  0  0.092677  0  0.961674  0  0  0.096568  0  1.033446  0  0  0.098921  0  1.031362  0  0.149406  0  0.112247  0.094792  0  1.035005  0
H  H8  1  0.28339974  0.14018264  0.25775896  1  0  0.09302  0  0.946474  0  0  0.096493  0  1.017018  0  0  0.099167  0  1.014857  0  0.14279  0  0.111993  0.093959  0  1.019575  0
H  H9  1  0.71660005  0.85981719  0.74224146  1  0  0.09302  0  0.946453  0  0  0.096492  0  1.017004  0  0  0.099167  0  1.014844  0  0.142779  0  0.111999  0.093959  0  1.019561  0
H  H10  1  0.28586836  0.37132805  0.59149920  1  0  0.100993  0  0.986389  0  0  0.107528  0  1.057653  0  0  0.109609  0  1.057328  0  0.101664  0  0.094033  0.105928  0  1.058134  0
H  H11  1  0.71413044  0.62867179  0.40850022  1  0  0.100979  0  0.986408  0  0  0.10751  0  1.057683  0  0  0.109591  0  1.057358  0  0.101635  0  0.094017  0.105911  0  1.058164  0
H  H12  1  0.10619903  0.43835286  0.65614171  1  0  0.092885  0  0.95655  0  0  0.102679  0  1.018214  0  0  0.104447  0  1.018713  0  0.097767  0  0.098475  0.101281  0  1.018075  0
H  H13  1  0.89380198  0.56164787  0.34385925  1  0  0.092907  0  0.956564  0  0  0.102691  0  1.018244  0  0  0.104458  0  1.018743  0  0.09777  0  0.098481  0.101294  0  1.018102  0
H  H14  1  0.86194686  0.38475714  0.52397325  1  0  0.08767  0  0.968693  0  0  0.093699  0  1.035968  0  0  0.095724  0  1.036495  0  0.108004  0  0.095771  0.092167  0  1.035704  0
H  H15  1  0.13805414  0.61524360  0.47602697  1  0  0.087663  0  0.968686  0  0  0.093691  0  1.035965  0  0  0.095716  0  1.03649  0  0.107998  0  0.095765  0.092158  0  1.035701  0
H  H16  1  0.79811134  0.26842152  0.32806795  1  0  0.099237  0  1.010647  0  0  0.103207  0  1.087623  0  0  0.106153  0  1.085621  0  0.124173  0  0.089722  0.10225  0  1.086723  0
H  H17  1  0.20188845  0.73157831  0.67193247  1  0  0.099228  0  1.010642  0  0  0.103201  0  1.08762  0  0  0.106144  0  1.085625  0  0.12417  0  0.089726  0.102244  0  1.086719  0
H  H18  1  0.99583075  0.48432035  0.11088336  1  0  0.088924  0  0.944162  0  0  0.095592  0  1.009784  0  0  0.097645  0  1.008707  0  0.124532  0  0.115111  0.093984  0  1.010954  0
H  H19  1  0.00416905  0.51567949  0.88911632  1  0  0.088908  0  0.944177  0  0  0.095572  0  1.009807  0  0  0.097624  0  1.008731  0  0.124536  0  0.115108  0.093964  0  1.010977  0
H  H20  1  0.23538767  0.53550445  0.25854128  1  0  0.090653  0  0.955779  0  0  0.09593  0  1.025005  0  0  0.098637  0  1.022733  0  0.115519  0  0.109204  0.093951  0  1.027067  0
H  H21  1  0.76461213  0.46449538  0.74145914  1  0  0.090648  0  0.955793  0  0  0.095925  0  1.025018  0  0  0.098632  0  1.022747  0  0.115518  0  0.109201  0.093946  0  1.02708  0
H  H22  1  0.28774995  0.92161278  0.48343708  1  0  0.104558  0  0.970667  0  0  0.112849  0  1.037169  0  0  0.114747  0  1.036975  0  0.094868  0  0.099805  0.1115  0  1.037409  0
H  H23  1  0.71225084  0.07838706  0.51656288  1  0  0.104551  0  0.970661  0  0  0.112844  0  1.037162  0  0  0.114743  0  1.036968  0  0.094871  0  0.099817  0.111495  0  1.037402  0
H  H24  1  0.13604889  0.06816356  0.48870095  1  0  0.086661  0  0.967575  0  0  0.093863  0  1.035037  0  0  0.096251  0  1.035182  0  0.089087  0  0.096382  0.092114  0  1.035173  0
H  H25  1  0.86395190  0.93183628  0.51129901  1  0  0.086658  0  0.96758  0  0  0.09386  0  1.035038  0  0  0.096248  0  1.035182  0  0.088849  0  0.096378  0.09211  0  1.035174  0
H  H26  1  0.89770652  0.01622689  0.34702966  1  0  0.093432  0  0.948752  0  0  0.103426  0  1.00997  0  0  0.105603  0  1.010078  0  0.075627  0  0.101122  0.1019  0  1.009996  0
H  H27  1  0.10229170  0.98377475  0.65297075  1  0  0.093447  0  0.948747  0  0  0.103428  0  1.009978  0  0  0.105604  0  1.010085  0  0.07562  0  0.101134  0.101903  0  1.010005  0
H  H28  1  0.81090959  0.81956053  0.19859666  1  0  0.102697  0  0.988798  0  0  0.11209  0  1.055894  0  0  0.113889  0  1.055637  0  0.116551  0  0.09522  0.110683  0  1.056248  0
H  H29  1  0.18909042  0.18044020  0.80140329  1  0  0.102698  0  0.988796  0  0  0.112092  0  1.055889  0  0  0.113892  0  1.055633  0  0.116548  0  0.095227  0.110684  0  1.056244  0
C  C30  1  0.77306095  0.29888497  0.95018463  1  0  0.279048  0  3.924787  0  0  0.260234  0  4.22882  0  0  0.280665  0  4.244366  0  0.629825  0  0.153464  0.246607  0  4.218168  0
C  C31  1  0.22693884  0.70111486  0.04981653  1  0  0.279079  0  3.924761  0  0  0.260269  0  4.228787  0  0  0.280698  0  4.24434  0  0.629872  0  0.153482  0.24664  0  4.21814  0
C  C32  1  0.65836166  0.42670886  0.16570900  1  0  0.26578  0  3.902503  0  0  0.247677  0  4.209285  0  0  0.265799  0  4.225653  0  0.63927  0  0.148518  0.23588  0  4.197711  0
C  C33  1  0.34163756  0.57329278  0.83429168  1  0  0.265839  0  3.902505  0  0  0.247738  0  4.209286  0  0  0.265858  0  4.225654  0  0.639154  0  0.148561  0.235941  0  4.197711  0
C  C34  1  0.57727744  0.90019177  0.11734783  1  0  0.227598  0  3.962254  0  0  0.217222  0  4.266591  0  0  0.233752  0  4.284066  0  0.630275  0  0.12834  0.206316  0  4.25441  0
C  C35  1  0.42272392  0.09980626  0.88265187  1  0  0.227551  0  3.962342  0  0  0.21717  0  4.266683  0  0  0.233701  0  4.284155  0  0.630401  0  0.128278  0.206263  0  4.254501  0
C  C36  1  0.79043950  0.82170479  0.96951464  1  0  0.255383  0  3.945364  0  0  0.240627  0  4.253209  0  0  0.258845  0  4.26937  0  0.624555  0  0.14257  0.228718  0  4.241846  0
C  C37  1  0.20956087  0.17829324  0.03048405  1  0  0.255434  0  3.945327  0  0  0.240677  0  4.253181  0  0  0.258897  0  4.26934  0  0.62459  0  0.142595  0.228769  0  4.241816  0
C  C38  1  0.51207380  0.06351316  0.64026030  1  0  0.250027  0  3.936396  0  0  0.236397  0  4.242117  0  0  0.254346  0  4.257994  0  0.642586  0  0.137051  0.224329  0  4.23104  0
C  C39  1  0.48792599  0.93648668  0.35973939  1  0  0.249987  0  3.936468  0  0  0.236353  0  4.242196  0  0  0.254302  0  4.258074  0  0.642562  0  0.137034  0.224285  0  4.231118  0
C  C40  1  0.51118781  0.42882431  0.37398976  1  0  0.268298  0  3.934444  0  0  0.249404  0  4.242418  0  0  0.268663  0  4.258421  0  0.629063  0  0.145082  0.236327  0  4.23143  0
C  C41  1  0.48881298  0.57117552  0.62601019  1  0  0.268308  0  3.9343  0  0  0.249415  0  4.242274  0  0  0.268672  0  4.258277  0  0.629078  0  0.14507  0.236338  0  4.231285  0
C  C42  1  0.00418779  0.25080113  0.34724013  1  0  0.159394  0  3.764184  0  0  0.163564  0  3.994024  0  0  0.166687  0  4.017151  0  0.469064  0  0.112112  0.16102  0  3.979231  0
C  C43  1  0.99581300  0.74919870  0.65276057  1  0  0.159408  0  3.764199  0  0  0.16357  0  3.994061  0  0  0.166694  0  4.017187  0  0.469065  0  0.112093  0.161025  0  3.979268  0
C  C44  1  0.06671719  0.14647950  0.20837921  1  0  0.092319  0  3.676702  0  0  0.062246  0  3.932675  0  0  0.067283  0  3.948314  0  0.53481  0  0.057469  0.05881  0  3.922248  0
C  C45  1  0.93328260  0.85352034  0.79162047  1  0  0.092328  0  3.676712  0  0  0.062227  0  3.932719  0  0  0.067265  0  3.948359  0  0.534766  0  0.057451  0.058791  0  3.922292  0
C  C46  1  0.20448861  0.17421626  0.28387963  1  0  0.093094  0  3.677509  0  0  0.065568  0  3.933602  0  0  0.06992  0  3.949234  0  0.548086  0  0.05903  0.06293  0  3.922723  0
C  C47  1  0.79551040  0.82578447  0.71612005  1  0  0.093128  0  3.677453  0  0  0.065609  0  3.933549  0  0  0.06996  0  3.949181  0  0.548136  0  0.05903  0.062971  0  3.92267  0
C  C48  1  0.14420141  0.28007182  0.42320109  1  0  0.159895  0  3.772705  0  0  0.162524  0  4.005318  0  0  0.165428  0  4.028429  0  0.449594  0  0.112692  0.160394  0  3.989887  0
C  C49  1  0.85579939  0.71992801  0.57679960  1  0  0.159848  0  3.772795  0  0  0.162472  0  4.005426  0  0  0.165375  0  4.028538  0  0.449507  0  0.11266  0.160342  0  3.989994  0
C  C50  1  0.17916380  0.34835421  0.53501257  1  0  -0.138627  0  3.718382  0  0  -0.158304  0  3.967308  0  0  -0.162755  0  3.989584  0  -0.072876  0  -0.089842  -0.15514  0  3.952265  0
C  C51  1  0.82083457  0.65164383  0.46498779  1  0  -0.138588  0  3.718434  0  0  -0.158258  0  3.967349  0  0  -0.162709  0  3.989626  0  -0.072655  0  -0.089824  -0.155096  0  3.952308  0
C  C52  1  0.07865496  0.38489757  0.57022099  1  0  -0.039385  0  3.738204  0  0  -0.053678  0  3.986735  0  0  -0.05539  0  4.010015  0  -0.038105  0  -0.082149  -0.052557  0  3.970978  0
C  C53  1  0.92134548  0.61510497  0.42977948  1  0  -0.039492  0  3.738256  0  0  -0.053781  0  3.98679  0  0  -0.055493  0  4.010069  0  -0.038031  0  -0.082185  -0.052661  0  3.971033  0
C  C54  1  0.94066386  0.35515517  0.49556454  1  0  -0.042929  0  3.750874  0  0  -0.056341  0  3.998493  0  0  -0.058422  0  4.021927  0  -0.100104  0  -0.084299  -0.054676  0  3.982462  0
C  C55  1  0.05933714  0.64484556  0.50443568  1  0  -0.042918  0  3.750946  0  0  -0.056323  0  3.998555  0  0  -0.058403  0  4.021988  0  -0.100255  0  -0.084293  -0.054658  0  3.982524  0
C  C56  1  0.90365853  0.28946715  0.38604942  1  0  -0.139541  0  3.72858  0  0  -0.159789  0  3.976956  0  0  -0.164258  0  3.998535  0  0.001629  0  -0.090817  -0.156929  0  3.961309  0
C  C57  1  0.09634148  0.71053359  0.61394979  1  0  -0.139476  0  3.728597  0  0  -0.159725  0  3.976969  0  0  -0.164193  0  3.998545  0  0.001622  0  -0.090789  -0.156864  0  3.961321  0
C  C58  1  0.99960608  0.75770913  0.25623198  1  0  0.156539  0  3.775913  0  0  0.157837  0  4.011029  0  0  0.160806  0  4.034895  0  0.463614  0  0.110863  0.155976  0  3.994575  0
C  C59  1  0.00039372  0.24229070  0.74376771  1  0  0.156499  0  3.775912  0  0  0.157794  0  4.011041  0  0  0.160763  0  4.034907  0  0.463612  0  0.110847  0.155933  0  3.994585  0
C  C60  1  0.03450563  0.57132585  0.17613572  1  0  0.093493  0  3.670077  0  0  0.064504  0  3.92572  0  0  0.069555  0  3.941447  0  0.542587  0  0.056539  0.061008  0  3.915129  0
C  C61  1  0.96549516  0.42867398  0.82386423  1  0  0.093453  0  3.670058  0  0  0.064458  0  3.925712  0  0  0.069506  0  3.94144  0  0.542592  0  0.056509  0.06096  0  3.915124  0
C  C62  1  0.16858601  0.60010594  0.25844195  1  0  0.091498  0  3.683199  0  0  0.065222  0  3.940755  0  0  0.068969  0  3.95579  0  0.57526  0  0.056716  0.062961  0  3.930615  0
C  C63  1  0.83141378  0.39989389  0.74155847  1  0  0.09152  0  3.683134  0  0  0.06525  0  3.940691  0  0  0.068996  0  3.955726  0  0.575277  0  0.056716  0.062988  0  3.930551  0
C  C64  1  0.13595499  0.78672957  0.33863772  1  0  0.16025  0  3.778856  0  0  0.163807  0  4.013254  0  0  0.166228  0  4.036456  0  0.42572  0  0.111816  0.16211  0  3.997505  0
C  C65  1  0.86404481  0.21327026  0.66136197  1  0  0.160253  0  3.778843  0  0  0.163812  0  4.013245  0  0  0.166234  0  4.036446  0  0.425693  0  0.111828  0.162115  0  3.997496  0
C  C66  1  0.18374484  0.90025659  0.42208481  1  0  -0.121003  0  3.699314  0  0  -0.139582  0  3.943775  0  0  -0.143734  0  3.966573  0  0.007407  0  -0.082578  -0.13694  0  3.928643  0
C  C67  1  0.81625495  0.09974325  0.57791561  1  0  -0.120988  0  3.699308  0  0  -0.139578  0  3.943787  0  0  -0.143732  0  3.966587  0  0.0074  0  -0.082622  -0.136938  0  3.928656  0
C  C68  1  0.09882369  0.98105976  0.42401286  1  0  -0.046794  0  3.74403  0  0  -0.061787  0  3.994231  0  0  -0.063976  0  4.017161  0  -0.035787  0  -0.082666  -0.060146  0  3.978792  0
C  C69  1  0.90117510  0.01894007  0.57598656  1  0  -0.046833  0  3.744025  0  0  -0.061822  0  3.994232  0  0  -0.064012  0  4.017161  0  -0.035534  0  -0.082669  -0.060182  0  3.978794  0
C  C70  1  0.96390337  0.95173866  0.34345563  1  0  -0.042305  0  3.736316  0  0  -0.05643  0  3.985208  0  0  -0.058057  0  4.00785  0  -0.03202  0  -0.082733  -0.055255  0  3.969999  0
C  C71  1  0.03609664  0.04826208  0.65654432  1  0  -0.042291  0  3.736281  0  0  -0.056406  0  3.985169  0  0  -0.058032  0  4.007811  0  -0.031977  0  -0.082741  -0.055235  0  3.969965  0
C  C72  1  0.91477768  0.84225891  0.26058536  1  0  -0.132257  0  3.71158  0  0  -0.152406  0  3.957869  0  0  -0.157456  0  3.98158  0  -0.05385  0  -0.089719  -0.149021  0  3.942005  0
C  C73  1  0.08522233  0.15774182  0.73941533  1  0  -0.132258  0  3.711615  0  0  -0.1524  0  3.957884  0  0  -0.15745  0  3.981594  0  -0.053859  0  -0.089716  -0.149015  0  3.942021  0
S  S74  1  0.80125625  0.16177379  0.93938677  1  0  -0.168226  0  2.244427  0  0  -0.130679  0  2.577615  0  0  -0.1483  0  2.573781  0  0.176497  0  -0.074228  -0.118896  0  2.580055  0
S  S75  1  0.19874476  0.83822695  0.06061419  1  0  -0.168267  0  2.244359  0  0  -0.130723  0  2.577539  0  0  -0.14834  0  2.573707  0  0.17651  0  -0.074244  -0.118937  0  2.579976  0
S  S76  1  0.59801049  0.54963659  0.15709348  1  0  -0.17064  0  2.361697  0  0  -0.130062  0  2.730828  0  0  -0.148492  0  2.725435  0  0.164291  0  -0.064596  -0.118223  0  2.73449  0
S  S77  1  0.40198752  0.45036414  0.84290519  1  0  -0.170657  0  2.361743  0  0  -0.130091  0  2.730894  0  0  -0.148516  0  2.725493  0  0.164195  0  -0.064603  -0.118251  0  2.734555  0
S  S78  1  0.58274629  0.04632396  0.16663168  1  0  -0.192419  0  2.32725  0  0  -0.157453  0  2.683134  0  0  -0.174896  0  2.679444  0  0.123525  0  -0.085359  -0.147009  0  2.686384  0
S  S79  1  0.41725386  0.95367317  0.83336675  1  0  -0.19238  0  2.327265  0  0  -0.157419  0  2.683157  0  0  -0.174863  0  2.67947  0  0.12348  0  -0.085337  -0.146973  0  2.686406  0
S  S80  1  0.73639698  0.67869194  0.89201931  1  0  -0.191693  0  2.322566  0  0  -0.163258  0  2.680275  0  0  -0.181381  0  2.676432  0  0.159115  0  -0.082194  -0.152399  0  2.683138  0
S  S81  1  0.26360360  0.32130699  0.10797965  1  0  -0.191682  0  2.322534  0  0  -0.163251  0  2.680255  0  0  -0.181377  0  2.676416  0  0.159167  0  -0.082185  -0.152393  0  2.683116  0
S  S82  1  0.44967775  0.18717455  0.65799918  1  0  -0.171306  0  2.278729  0  0  -0.137528  0  2.629679  0  0  -0.154469  0  2.625103  0  0.132245  0  -0.080194  -0.126527  0  2.632848  0
S  S83  1  0.55032126  0.81282619  0.34200050  1  0  -0.171266  0  2.278792  0  0  -0.137479  0  2.62972  0  0  -0.154417  0  2.625143  0  0.132286  0  -0.080167  -0.126478  0  2.632887  0
S  S84  1  0.56650601  0.30279361  0.37255549  1  0  -0.170882  0  2.33097  0  0  -0.133712  0  2.694125  0  0  -0.150282  0  2.688073  0  0.156274  0  -0.067054  -0.122283  0  2.696361  0
S  S85  1  0.43349478  0.69720622  0.62744373  1  0  -0.170876  0  2.331  0  0  -0.133705  0  2.694152  0  0  -0.150279  0  2.688107  0  0.1563  0  -0.067055  -0.122277  0  2.696389  0
N  N86  1  0.75741979  0.39740396  0.95431174  1  0  -0.459005  0  2.822339  0  0  -0.411605  0  3.089919  0  0  -0.432023  0  3.10039  0  -1.21248  0  -0.346429  -0.398295  0  3.082771  0
N  N87  1  0.24257900  0.60259588  0.04568841  1  0  -0.459011  0  2.822352  0  0  -0.411614  0  3.089925  0  0  -0.432032  0  3.100401  0  -1.212538  0  -0.346444  -0.398303  0  3.08278  0
N  N88  1  0.70292022  0.34088710  0.17500875  1  0  -0.442221  0  2.768738  0  0  -0.400575  0  3.030549  0  0  -0.418092  0  3.041428  0  -1.201407  0  -0.339686  -0.388578  0  3.022054  0
N  N89  1  0.29707900  0.65911453  0.82499193  1  0  -0.442273  0  2.76871  0  0  -0.400632  0  3.030521  0  0  -0.418144  0  3.041401  0  -1.20119  0  -0.339728  -0.388635  0  3.022029  0
N  N90  1  0.56773387  0.79530302  0.08434557  1  0  -0.445569  0  2.69922  0  0  -0.414308  0  2.947807  0  0  -0.430619  0  2.960974  0  -1.180591  0  -0.342213  -0.402864  0  2.938146  0
N  N91  1  0.43226749  0.20469502  0.91565486  1  0  -0.445563  0  2.699285  0  0  -0.41429  0  2.947857  0  0  -0.430602  0  2.961024  0  -1.180669  0  -0.342174  -0.402844  0  2.938195  0
N  N92  1  0.83139461  0.92507132  0.01974045  1  0  -0.456666  0  2.724865  0  0  -0.418581  0  2.979201  0  0  -0.435272  0  2.989647  0  -1.220155  0  -0.34364  -0.407057  0  2.971304  0
N  N93  1  0.16860476  0.07492671  0.98025798  1  0  -0.456728  0  2.724893  0  0  -0.418638  0  2.979222  0  0  -0.43533  0  2.989666  0  -1.220223  0  -0.343664  -0.407115  0  2.971325  0
N  N94  1  0.55585306  0.97487543  0.63085448  1  0  -0.464837  0  2.729232  0  0  -0.431627  0  2.987805  0  0  -0.448518  0  2.999373  0  -1.209234  0  -0.346584  -0.420529  0  2.980518  0
N  N95  1  0.44414674  0.02512440  0.36914521  1  0  -0.464815  0  2.729234  0  0  -0.431596  0  2.98781  0  0  -0.44849  0  2.999376  0  -1.209223  0  -0.346574  -0.4205  0  2.980523  0
N  N96  1  0.47012577  0.51739706  0.36879544  1  0  -0.465561  0  2.756475  0  0  -0.422902  0  3.017355  0  0  -0.441159  0  3.026722  0  -1.21942  0  -0.349626  -0.411439  0  3.011858  0
N  N97  1  0.52987481  0.48260188  0.63120425  1  0  -0.465578  0  2.756329  0  0  -0.42292  0  3.017218  0  0  -0.441175  0  3.026585  0  -1.219455  0  -0.349613  -0.411459  0  3.011723  0
N  N98  1  0.96936116  0.18428943  0.23921607  1  0  -0.289442  0  3.185841  0  0  -0.227835  0  3.444377  0  0  -0.243529  0  3.46359  0  -1.174113  0  -0.288469  -0.217338  0  3.431996  0
N  N99  1  0.03063863  0.81571041  0.76078435  1  0  -0.289425  0  3.18591  0  0  -0.227799  0  3.444448  0  0  -0.243492  0  3.463661  0  -1.174126  0  -0.288429  -0.2173  0  3.432066  0
N  N100  1  0.24212811  0.24020765  0.38821079  1  0  -0.290993  0  3.173101  0  0  -0.233037  0  3.430489  0  0  -0.248095  0  3.450285  0  -1.18582  0  -0.28806  -0.223209  0  3.416137  0
N  N101  1  0.75787190  0.75979308  0.61178990  1  0  -0.290986  0  3.17316  0  0  -0.233023  0  3.430539  0  0  -0.248081  0  3.450336  0  -1.185816  0  -0.288017  -0.223194  0  3.416186  0
N  N102  1  0.95217236  0.64826450  0.17524291  1  0  -0.297535  0  3.178887  0  0  -0.239216  0  3.440802  0  0  -0.254907  0  3.460408  0  -1.202761  0  -0.288742  -0.227871  0  3.426598  0
N  N103  1  0.04782865  0.35173624  0.82475805  1  0  -0.297464  0  3.178775  0  0  -0.239133  0  3.440675  0  0  -0.254823  0  3.460282  0  -1.202774  0  -0.2887  -0.227788  0  3.426471  0
N  N104  1  0.21814633  0.70506491  0.33760106  1  0  -0.304144  0  3.142726  0  0  -0.255817  0  3.405296  0  0  -0.268557  0  3.423069  0  -1.167412  0  -0.28848  -0.247009  0  3.392644  0
N  N105  1  0.78185325  0.29493402  0.66239836  1  0  -0.30414  0  3.142653  0  0  -0.255814  0  3.405223  0  0  -0.268554  0  3.422994  0  -1.167413  0  -0.288464  -0.247005  0  3.392569  0
