# generated using pymatgen
data_FeH5C8O5
_symmetry_space_group_name_H-M   'P 1'
_cell_length_a   6.94451693
_cell_length_b   6.06997923
_cell_length_c   10.21759703
_cell_angle_alpha   107.17025028
_cell_angle_beta   100.12789164
_cell_angle_gamma   90.12858522
_symmetry_Int_Tables_number   1
_chemical_formula_structural   FeH5C8O5
_chemical_formula_sum   'Fe2 H10 C16 O10'
_cell_volume   404.42312598
_cell_formula_units_Z   2
loop_
 _symmetry_equiv_pos_site_id
 _symmetry_equiv_pos_as_xyz
  1  'x, y, z'
loop_
 _atom_site_type_symbol
 _atom_site_label
 _atom_site_symmetry_multiplicity
 _atom_site_fract_x
 _atom_site_fract_y
 _atom_site_fract_z
 _atom_site_occupancy
 _atom_site_pbe_bader_charge
 _atom_site_pbe_bader_spin_density
 _atom_site_pbe_cm5_charge
 _atom_site_pbe_ddec_charge
 _atom_site_pbe_ddec_spin_density
 _atom_site_pbe_ddec_sum_bond_order
 _atom_site_pbe_magmom
Fe  Fe0  1  0.99985761  0.00019512  0.99983099  1  1.746966  4.069203  0.883637  1.404181  4.553428  2.597196  4.038
Fe  Fe1  1  0.49989142  0.99979982  0.99979778  1  1.747962  4.068599  0.883943  1.404703  4.552758  2.596579  4.038
H  H2  1  0.64904331  0.36201153  0.44120670  1  0.115625  0.000546  0.105372  0.11007  0.000158  1.020292  0.0
H  H3  1  0.18090070  0.49268979  0.30902788  1  0.102254  0.000611  0.109076  0.118257  5.2e-05  0.994996  0.0
H  H4  1  0.25185936  0.32235889  0.00324088  1  0.608571  0.008456  0.320652  0.43112  0.00404  0.852069  0.009
H  H5  1  0.85047688  0.91945320  0.55812207  1  0.08551  0.000564  0.105592  0.109962  0.000157  1.01945  0.0
H  H6  1  0.32055057  0.18510209  0.69077393  1  0.102033  0.000608  0.109504  0.119029  5.2e-05  0.995193  0.0
H  H7  1  0.35107680  0.63772650  0.55841788  1  0.116779  0.000548  0.105559  0.109961  0.000159  1.020009  0.0
H  H8  1  0.81917602  0.50695102  0.69066303  1  0.104374  0.000615  0.109572  0.119418  5.6e-05  0.994293  0.0
H  H9  1  0.74999839  0.68033705  0.00209600  1  0.615346  0.008332  0.321084  0.431252  0.004046  0.851659  0.009
H  H10  1  0.14941261  0.08022396  0.44150879  1  0.085139  0.000559  0.105573  0.109696  0.000157  1.020091  0.0
H  H11  1  0.67937406  0.81463606  0.30893545  1  0.100343  0.000604  0.109114  0.118297  4.9e-05  0.996251  0.0
C  C12  1  0.90494491  0.41925453  0.36077632  1  -0.117551  0.01622  -0.010237  -0.036715  0.007572  3.949383  0.012
C  C13  1  0.80274096  0.42193442  0.46804770  1  -0.065863  0.004485  -0.077974  -0.089797  0.002049  3.969835  0.003
C  C14  1  0.80853288  0.31729620  0.21208961  1  1.562186  0.013122  0.233747  0.614567  0.009256  4.116479  0.01
C  C15  1  0.10262840  0.49838779  0.39332132  1  0.055304  0.004094  -0.076301  -0.084946  0.001866  3.945401  0.003
C  C16  1  0.59535283  0.05825402  0.63882476  1  -0.024779  0.016172  -0.010439  -0.037284  0.00766  3.951046  0.012
C  C17  1  0.69692922  0.95300902  0.53149109  1  -0.047745  0.004496  -0.077929  -0.089136  0.002066  3.968698  0.003
C  C18  1  0.69187003  0.10489174  0.78750606  1  1.535951  0.013239  0.234452  0.614419  0.009304  4.113122  0.01
C  C19  1  0.39812586  0.10576242  0.60640230  1  0.012486  0.004267  -0.076618  -0.085316  0.001917  3.946982  0.003
C  C20  1  0.09508407  0.58059467  0.63889057  1  -0.095282  0.016126  -0.009953  -0.036569  0.007591  3.949437  0.012
C  C21  1  0.19739919  0.57769660  0.53163037  1  -0.06258  0.004488  -0.078212  -0.089846  0.002064  3.969185  0.003
C  C22  1  0.19130884  0.68329168  0.78753391  1  1.540223  0.013245  0.234652  0.61662  0.009272  4.112831  0.01
C  C23  1  0.89747908  0.50126052  0.60637741  1  0.058854  0.004106  -0.076386  -0.085608  0.001876  3.94669  0.003
C  C24  1  0.40446154  0.94132317  0.36082953  1  -0.086358  0.01626  -0.009968  -0.037212  0.007668  3.951107  0.012
C  C25  1  0.30294102  0.04670466  0.46818756  1  -0.050291  0.00448  -0.078074  -0.088895  0.002047  3.968688  0.003
C  C26  1  0.30778302  0.89436850  0.21214011  1  1.53339  0.013249  0.233851  0.614511  0.009254  4.113857  0.01
C  C27  1  0.60171783  0.89397912  0.39326673  1  0.065971  0.004161  -0.076707  -0.085136  0.001898  3.947936  0.003
O  O28  1  0.91568345  0.29655366  0.11910426  1  -1.133888  0.142927  -0.313471  -0.572869  0.066466  2.316499  0.113
O  O29  1  0.62816114  0.25082719  0.18492362  1  -1.133287  0.129885  -0.291667  -0.540014  0.061069  2.269428  0.107
O  O30  1  0.58503697  0.17724286  0.88055926  1  -1.129883  0.143919  -0.31325  -0.571178  0.066886  2.313689  0.113
O  O31  1  0.87203678  0.06553585  0.81460634  1  -1.134789  0.130422  -0.291358  -0.538172  0.061423  2.268746  0.107
O  O32  1  0.08413109  0.70448616  0.88049190  1  -1.130903  0.143758  -0.313036  -0.572047  0.066853  2.316755  0.113
O  O33  1  0.37163176  0.74998178  0.81468143  1  -1.132361  0.130737  -0.291605  -0.539487  0.061458  2.269515  0.107
O  O34  1  0.41474517  0.82211278  0.11912912  1  -1.129537  0.143091  -0.313733  -0.573168  0.066542  2.312824  0.113
O  O35  1  0.12754120  0.93341080  0.18501270  1  -1.134275  0.12971  -0.29177  -0.539198  0.06113  2.268002  0.107
O  O36  1  0.25044755  0.16054512  0.00041360  1  -1.13944  0.296963  -0.563202  -0.876863  0.144874  2.074958  0.231
O  O37  1  0.74967075  0.83981300  0.00014581  1  -1.146457  0.297132  -0.56349  -0.876607  0.144831  2.074479  0.231
