# generated using pymatgen
data_Cd5H36C54N18(ClO3)4
_symmetry_space_group_name_H-M   'P 1'
_cell_length_a   12.93189897
_cell_length_b   17.22098102
_cell_length_c   22.20738408
_cell_angle_alpha   71.04124213
_cell_angle_beta   76.59948139
_cell_angle_gamma   72.20072035
_symmetry_Int_Tables_number   1
_chemical_formula_structural   Cd5H36C54N18(ClO3)4
_chemical_formula_sum   'Cd10 H72 C108 N36 Cl8 O24'
_cell_volume   4404.97884431
_cell_formula_units_Z   2
loop_
 _symmetry_equiv_pos_site_id
 _symmetry_equiv_pos_as_xyz
  1  'x, y, z'
loop_
 _atom_site_type_symbol
 _atom_site_label
 _atom_site_symmetry_multiplicity
 _atom_site_fract_x
 _atom_site_fract_y
 _atom_site_fract_z
 _atom_site_occupancy
 _atom_site_pbe_bader_charge
 _atom_site_pbe_bader_spin_density
 _atom_site_pbe_cm5_charge
 _atom_site_pbe_ddec_charge
 _atom_site_pbe_ddec_spin_density
 _atom_site_pbe_ddec_sum_bond_order
 _atom_site_pbe_magmom
Cd  Cd0  1  0.18845876  0.54248629  0.01522280  1  1.216451  0  0.706113  0.86427  0  2.201734  0
Cd  Cd1  1  0.18314897  0.73323421  0.08850568  1  1.236456  0  0.70048  0.798082  0  2.398658  0
Cd  Cd2  1  0.17967441  0.77355476  0.24984777  1  1.227676  0  0.6991  0.777392  0  2.491107  0
Cd  Cd3  1  0.17984351  0.79867955  0.41339453  1  1.238707  0  0.694024  0.811445  0  2.424135  0
Cd  Cd4  1  0.16371960  0.00247011  0.48411251  1  1.252597  0  0.688574  0.964221  0  2.22384  0
Cd  Cd5  1  0.81152647  0.45752082  0.98477768  1  1.216461  0  0.706152  0.864323  0  2.201551  0
Cd  Cd6  1  0.81685295  0.26676512  0.91149270  1  1.236252  0  0.700478  0.798179  0  2.398609  0
Cd  Cd7  1  0.82032373  0.22644899  0.75014639  1  1.227466  0  0.699146  0.777462  0  2.491184  0
Cd  Cd8  1  0.82014384  0.20131554  0.58661056  1  1.238509  0  0.693998  0.811414  0  2.424284  0
Cd  Cd9  1  0.83627651  0.99752737  0.51588625  1  1.252555  0  0.688555  0.964217  0  2.223769  0
H  H10  1  0.10169039  0.53732616  0.62137715  1  0.122111  0  0.13757  0.105641  0  0.980092  0
H  H11  1  0.20611685  0.76367164  0.57177595  1  0.275995  0  0.143364  0.142201  0  1.032805  0
H  H12  1  0.09619332  0.76402550  0.68004560  1  0.131645  0  0.115408  0.130969  0  0.993247  0
H  H13  1  0.10332764  0.74041889  0.79635181  1  0.128988  0  0.100848  0.100899  0  1.037771  0
H  H14  1  0.24861301  0.47530520  0.81681462  1  0.122999  0  0.101477  0.104703  0  1.025538  0
H  H15  1  0.24151053  0.49726283  0.70065977  1  0.092768  0  0.1044  0.109715  0  0.999481  0
H  H16  1  0.89791265  0.56794273  0.05714553  1  0.256513  0  0.149021  0.143021  0  1.021425  0
H  H17  1  0.89282554  0.77684151  0.12050078  1  0.173003  0  0.14003  0.119418  0  0.994724  0
H  H18  1  0.72550156  0.72175742  0.19523507  1  0.061631  0  0.102417  0.1057  0  1.005255  0
H  H19  1  0.51878280  0.76160438  0.21065510  1  0.125976  0  0.110401  0.12112  0  0.993978  0
H  H20  1  0.52468337  0.71603202  0.03111926  1  0.123934  0  0.113461  0.124349  0  0.983738  0
H  H21  1  0.73155523  0.67771269  0.01396686  1  0.113821  0  0.11083  0.123096  0  1.013059  0
H  H22  1  0.20821628  0.50320752  0.16727720  1  0.255657  0  0.143669  0.135064  0  1.03726  0
H  H23  1  0.16641515  0.56679102  0.34269557  1  0.183869  0  0.151446  0.129639  0  0.973887  0
H  H24  1  0.26106456  0.41812570  0.37744283  1  0.063772  0  0.114834  0.12455  0  0.985116  0
H  H25  1  0.24875398  0.27023123  0.43883265  1  0.119604  0  0.112047  0.117352  0  0.993013  0
H  H26  1  0.08625230  0.26097752  0.29460577  1  0.076887  0  0.103345  0.103231  0  1.037249  0
H  H27  1  0.09204685  0.41006923  0.23375720  1  0.105128  0  0.109406  0.120675  0  1.001148  0
H  H28  1  0.17550590  0.03627322  0.33385311  1  0.265064  0  0.144134  0.138245  0  1.048411  0
H  H29  1  0.18068458  0.98488883  0.15851780  1  0.184004  0  0.156856  0.132897  0  0.953084  0
H  H30  1  0.05099186  0.13738955  0.14730429  1  0.073946  0  0.104259  0.109084  0  1.01991  0
H  H31  1  0.04793345  0.28776445  0.08644973  1  0.124326  0  0.105473  0.11931  0  1.020659  0
H  H32  1  0.30023271  0.28089342  0.18577347  1  0.112959  0  0.110739  0.117939  0  0.986568  0
H  H33  1  0.30466144  0.12943985  0.24723942  1  0.079358  0  0.118218  0.131674  0  0.970229  0
H  H34  1  0.88442215  0.79158283  0.27850276  1  0.159165  0  0.139006  0.113572  0  0.993917  0
H  H35  1  0.87960621  0.82828658  0.45932063  1  0.266499  0  0.144621  0.137722  0  1.032304  0
H  H36  1  0.70863053  0.93418209  0.42300778  1  0.168926  0  0.110939  0.136088  0  1.037683  0
H  H37  1  0.50227344  0.96467074  0.44293268  1  0.120354  0  0.113114  0.121293  0  0.981751  0
H  H38  1  0.51679117  0.75644638  0.37281325  1  0.104318  0  0.108074  0.118186  0  0.993698  0
H  H39  1  0.72289373  0.72617840  0.35079932  1  0.051522  0  0.100373  0.103164  0  1.008907  0
H  H40  1  0.08915089  0.02185584  0.89721141  1  0.201268  0  0.126986  0.113679  0  1.02281  0
H  H41  1  0.19579155  0.75476421  0.92866505  1  0.218016  0  0.137179  0.125863  0  1.045044  0
H  H42  1  0.04438304  0.01926957  0.80023273  1  0.104498  0  0.091965  0.102294  0  1.064367  0
H  H43  1  0.07159896  0.02789463  0.68326605  1  0.093027  0  0.10217  0.109184  0  1.022214  0
H  H44  1  0.31834546  0.79265982  0.71303498  1  0.123127  0  0.11097  0.116114  0  0.984186  0
H  H45  1  0.29703317  0.78411574  0.82948638  1  0.080436  0  0.114566  0.125696  0  0.985748  0
H  H46  1  0.89829698  0.46266900  0.37863288  1  0.122187  0  0.137462  0.105574  0  0.980093  0
H  H47  1  0.79388780  0.23631881  0.42822391  1  0.27593  0  0.143427  0.142209  0  1.032944  0
H  H48  1  0.90381022  0.23597887  0.31995126  1  0.131748  0  0.115396  0.130991  0  0.993307  0
H  H49  1  0.89668749  0.25958915  0.20364250  1  0.129259  0  0.100807  0.10086  0  1.037766  0
H  H50  1  0.75139675  0.52469981  0.18318752  1  0.122888  0  0.101429  0.104639  0  1.025662  0
H  H51  1  0.75849442  0.50273969  0.29934233  1  0.09263  0  0.104411  0.109719  0  0.999447  0
H  H52  1  0.10208078  0.43206872  0.94285314  1  0.256541  0  0.149044  0.142892  0  1.021449  0
H  H53  1  0.10717308  0.22317115  0.87949597  1  0.173043  0  0.140061  0.119473  0  0.994664  0
H  H54  1  0.27449067  0.27825528  0.80476119  1  0.061664  0  0.10245  0.105687  0  1.005212  0
H  H55  1  0.48120720  0.23840514  0.78933824  1  0.126053  0  0.110402  0.121151  0  0.99385  0
H  H56  1  0.47532113  0.28396663  0.96887759  1  0.123682  0  0.113475  0.12434  0  0.983835  0
H  H57  1  0.26844773  0.32229359  0.98603049  1  0.113804  0  0.110802  0.123045  0  1.013131  0
H  H58  1  0.79178717  0.49678417  0.83272025  1  0.255841  0  0.143673  0.135051  0  1.037058  0
H  H59  1  0.83359828  0.43320435  0.65729820  1  0.183615  0  0.151429  0.129556  0  0.97395  0
H  H60  1  0.73895011  0.58187347  0.62255204  1  0.063819  0  0.114821  0.124582  0  0.985078  0
H  H61  1  0.75125732  0.72976867  0.56116655  1  0.119696  0  0.111991  0.117284  0  0.993001  0
H  H62  1  0.91374745  0.73902128  0.70540026  1  0.076698  0  0.103379  0.103241  0  1.037313  0
H  H63  1  0.90795249  0.58993078  0.76624361  1  0.105046  0  0.109457  0.120784  0  1.001266  0
H  H64  1  0.82449306  0.96372560  0.66615348  1  0.265247  0  0.144169  0.138333  0  1.048267  0
H  H65  1  0.81930960  0.01511256  0.84148788  1  0.183816  0  0.156882  0.132947  0  0.952974  0
H  H66  1  0.94901645  0.86261226  0.85269393  1  0.073789  0  0.104259  0.109079  0  1.019798  0
H  H67  1  0.95207225  0.71223546  0.91354708  1  0.124298  0  0.105514  0.11938  0  1.020589  0
H  H68  1  0.69976963  0.71910969  0.81422388  1  0.112973  0  0.110751  0.117947  0  0.986593  0
H  H69  1  0.69533477  0.87056783  0.75276435  1  0.079219  0  0.118205  0.13169  0  0.970222  0
H  H70  1  0.11556840  0.20841724  0.72149655  1  0.159226  0  0.13903  0.113646  0  0.993894  0
H  H71  1  0.12038472  0.17170972  0.54068096  1  0.266354  0  0.144626  0.137675  0  1.032293  0
H  H72  1  0.29136654  0.06580719  0.57699477  1  0.168758  0  0.110967  0.136105  0  1.037745  0
H  H73  1  0.49772468  0.03532301  0.55707398  1  0.120341  0  0.113065  0.121154  0  0.981923  0
H  H74  1  0.48319716  0.24354306  0.62719678  1  0.104505  0  0.108117  0.118243  0  0.993539  0
H  H75  1  0.27709719  0.27381037  0.64920962  1  0.051323  0  0.100351  0.103089  0  1.009065  0
H  H76  1  0.91083708  0.97814491  0.10278898  1  0.201185  0  0.126954  0.113676  0  1.022958  0
H  H77  1  0.80421858  0.24523950  0.07133467  1  0.217867  0  0.137167  0.125833  0  1.045033  0
H  H78  1  0.95561607  0.98072850  0.19976501  1  0.104457  0  0.091956  0.102254  0  1.064452  0
H  H79  1  0.92840513  0.97210026  0.31673409  1  0.097451  0  0.102163  0.109177  0  1.022153  0
H  H80  1  0.68166463  0.20733881  0.28696426  1  0.123209  0  0.110934  0.116074  0  0.984327  0
H  H81  1  0.70297497  0.21588674  0.17051484  1  0.080532  0  0.114529  0.125633  0  0.985577  0
C  C82  1  0.12667539  0.59463196  0.59269081  1  0.955931  0  0.141547  0.066612  0  3.974617  0
C  C83  1  0.17918240  0.71151033  0.56776458  1  0.921832  0  0.165477  0.107622  0  3.810541  0
C  C84  1  0.16565107  0.63160273  0.68439652  1  0.269662  0  0.097789  0.173084  0  4.017662  0
C  C85  1  0.12822936  0.70084167  0.71037490  1  -0.003724  0  -0.080606  -0.1539  0  3.958889  0
C  C86  1  0.13278844  0.68763855  0.77498544  1  -0.060515  0  -0.076875  -0.06778  0  3.961349  0
C  C87  1  0.17471844  0.60650549  0.81386713  1  -0.081295  0  -0.01687  -0.029656  0  3.955281  0
C  C88  1  0.21314670  0.53787519  0.78686206  1  -0.01868  0  -0.084084  -0.079908  0  3.983038  0
C  C89  1  0.20881646  0.55007796  0.72222360  1  -0.035618  0  -0.095374  -0.180305  0  4.008798  0
C  C90  1  0.17822374  0.59422505  0.88349747  1  1.569227  0  0.192698  0.56116  0  4.222406  0
C  C91  1  0.92525387  0.61415298  0.06916557  1  0.945153  0  0.177377  0.120462  0  3.824728  0
C  C92  1  0.92155242  0.72126393  0.10249765  1  0.987125  0  0.160304  0.093581  0  3.894246  0
C  C93  1  0.73849404  0.69940685  0.10308578  1  0.351112  0  0.092122  0.160879  0  4.032983  0
C  C94  1  0.68098335  0.72240265  0.15884416  1  -0.022637  0  -0.096495  -0.18323  0  4.024288  0
C  C95  1  0.56671401  0.74431914  0.16752201  1  -0.101747  0  -0.078023  -0.073733  0  3.969144  0
C  C96  1  0.51085998  0.74283380  0.12102354  1  0.045309  0  -0.011093  -0.024197  0  3.935605  0
C  C97  1  0.56994059  0.71817418  0.06602888  1  -0.08222  0  -0.06883  -0.057704  0  3.931961  0
C  C98  1  0.68418727  0.69658646  0.05662014  1  0.034621  0  -0.082854  -0.152254  0  3.959797  0
C  C99  1  0.38703727  0.76441382  0.13160673  1  1.563169  0  0.206407  0.586416  0  4.222373  0
C  C100  1  0.19613369  0.53973992  0.20144547  1  0.925754  0  0.169541  0.106404  0  3.814013  0
C  C101  1  0.17571049  0.57128160  0.29194335  1  0.989901  0  0.166324  0.091801  0  3.883317  0
C  C102  1  0.17686158  0.42212649  0.30240437  1  0.267051  0  0.091564  0.160163  0  4.042472  0
C  C103  1  0.22063838  0.38420732  0.36011566  1  -0.009057  0  -0.090149  -0.176226  0  3.997509  0
C  C104  1  0.21445201  0.30180709  0.39406481  1  -0.028774  0  -0.073362  -0.063335  0  3.960585  0
C  C105  1  0.16671455  0.25712778  0.37012966  1  0.03738  0  -0.012882  -0.024406  0  3.945935  0
C  C106  1  0.12309893  0.29647155  0.31246736  1  -0.043556  0  -0.077886  -0.073063  0  3.982317  0
C  C107  1  0.12668945  0.37937156  0.27850611  1  -0.041264  0  -0.090851  -0.174653  0  3.991804  0
C  C108  1  0.16384028  0.16699634  0.40537008  1  1.584695  0  0.190293  0.5593  0  4.23969  0
C  C109  1  0.17829489  0.00203405  0.29967311  1  0.953111  0  0.172658  0.113044  0  3.808821  0
C  C110  1  0.17825242  0.97711238  0.20924589  1  0.98117  0  0.170135  0.094036  0  3.893603  0
C  C111  1  0.17884814  0.12515760  0.19995948  1  0.209474  0  0.098077  0.169634  0  4.016211  0
C  C112  1  0.10727806  0.16847265  0.15445780  1  -0.012577  0  -0.089997  -0.168063  0  3.98598  0
C  C113  1  0.10577961  0.25231997  0.12047217  1  0.040224  0  -0.077613  -0.070895  0  3.956269  0
C  C114  1  0.17471689  0.29307057  0.13224431  1  -0.044388  0  -0.01499  -0.034582  0  3.957088  0
C  C115  1  0.24661938  0.24844822  0.17762969  1  -0.033819  0  -0.073993  -0.066735  0  3.963241  0
C  C116  1  0.24923219  0.16435404  0.21171568  1  0.026794  0  -0.082349  -0.160785  0  3.968143  0
C  C117  1  0.17165928  0.38394934  0.09597930  1  1.550344  0  0.188265  0.550628  0  4.249422  0
C  C118  1  0.91098294  0.79394130  0.32056368  1  0.989897  0  0.15547  0.084951  0  3.91655  0
C  C119  1  0.90951179  0.81422033  0.41283089  1  0.957055  0  0.174183  0.121011  0  3.808319  0
C  C120  1  0.72559698  0.82910014  0.38570122  1  0.251388  0  0.088521  0.158098  0  4.028987  0
C  C121  1  0.66574724  0.89565075  0.41237717  1  0.011883  0  -0.085562  -0.156006  0  3.948501  0
C  C122  1  0.55168411  0.91229271  0.42324755  1  -0.101516  0  -0.072468  -0.065221  0  3.943803  0
C  C123  1  0.49836008  0.86226273  0.40896747  1  0.05986  0  -0.012148  -0.026487  0  3.947344  0
C  C124  1  0.55993912  0.79536746  0.38266389  1  0.000814  0  -0.081438  -0.076381  0  3.977697  0
C  C125  1  0.67402670  0.77884588  0.37042602  1  -0.069706  0  -0.100222  -0.186252  0  4.035334  0
C  C126  1  0.37496294  0.87947770  0.42260830  1  1.579456  0  0.209581  0.594667  0  4.21937  0
C  C127  1  0.11516504  0.95456130  0.92103169  1  0.937896  0  0.146146  0.079037  0  3.905437  0
C  C128  1  0.17124980  0.81739368  0.93652856  1  0.927941  0  0.156081  0.089661  0  3.867688  0
C  C129  1  0.16798832  0.90027347  0.82192203  1  0.282574  0  0.091236  0.166017  0  4.028087  0
C  C130  1  0.10484365  0.96976704  0.78118277  1  -0.084324  0  -0.103695  -0.192993  0  4.015339  0
C  C131  1  0.12038631  0.97486783  0.71589610  1  -0.060252  0  -0.089331  -0.081509  0  3.966032  0
C  C132  1  0.19654097  0.91077828  0.69122384  1  0.023511  0  -0.013389  -0.020913  0  3.940146  0
C  C133  1  0.25960057  0.84225960  0.73261680  1  -0.107278  0  -0.075596  -0.072962  0  3.979003  0
C  C134  1  0.24691778  0.83722073  0.79762166  1  0.050873  0  -0.088287  -0.168337  0  3.983489  0
C  C135  1  0.20899540  0.91447962  0.62115904  1  1.595886  0  0.19536  0.566353  0  4.257389  0
C  C136  1  0.87331457  0.40536253  0.40731814  1  0.956361  0  0.141774  0.066882  0  3.974672  0
C  C137  1  0.82081249  0.28848086  0.43223779  1  0.921873  0  0.165569  0.10793  0  3.810638  0
C  C138  1  0.83434771  0.36840174  0.31560502  1  0.269464  0  0.097711  0.173108  0  4.01778  0
C  C139  1  0.87177540  0.29916398  0.28962416  1  -0.003701  0  -0.080703  -0.154129  0  3.959194  0
C  C140  1  0.86722410  0.31236765  0.22501240  1  -0.060582  0  -0.076738  -0.06761  0  3.961233  0
C  C141  1  0.82528856  0.39350584  0.18613150  1  -0.081693  0  -0.016826  -0.029567  0  3.955093  0
C  C142  1  0.78685431  0.46213493  0.21313726  1  -0.01849  0  -0.084099  -0.079869  0  3.982775  0
C  C143  1  0.79118491  0.44992837  0.27777621  1  -0.035701  0  -0.095398  -0.180323  0  4.008555  0
C  C144  1  0.82177526  0.40578382  0.11650155  1  1.568997  0  0.192687  0.561063  0  4.222426  0
C  C145  1  0.07474095  0.38585657  0.93083430  1  0.945268  0  0.177456  0.120843  0  3.824316  0
C  C146  1  0.07844360  0.27874936  0.89749794  1  0.986612  0  0.16022  0.093439  0  3.894424  0
C  C147  1  0.26149839  0.30060523  0.89691196  1  0.350423  0  0.092153  0.160713  0  4.033294  0
C  C148  1  0.31901425  0.27760811  0.84115231  1  -0.022459  0  -0.096527  -0.183032  0  4.024019  0
C  C149  1  0.43328217  0.25568844  0.83247278  1  -0.102398  0  -0.078023  -0.073899  0  3.969046  0
C  C150  1  0.48914016  0.25717120  0.87897047  1  0.045404  0  -0.01118  -0.024109  0  3.935468  0
C  C151  1  0.43006093  0.28182642  0.93396878  1  -0.081818  0  -0.068797  -0.057768  0  3.93193  0
C  C152  1  0.31581090  0.30341985  0.94337651  1  0.034743  0  -0.082858  -0.152153  0  3.959872  0
C  C153  1  0.61295930  0.23559498  0.86838454  1  1.563088  0  0.206463  0.586555  0  4.221851  0
C  C154  1  0.80387474  0.46025360  0.79854902  1  0.92516  0  0.169648  0.106773  0  3.813769  0
C  C155  1  0.82430037  0.42871696  0.70805040  1  0.987527  0  0.166416  0.092191  0  3.883191  0
C  C156  1  0.82314831  0.57787276  0.69759294  1  0.235864  0  0.091572  0.16029  0  4.042728  0
C  C157  1  0.77937786  0.61578932  0.63988055  1  0.022181  0  -0.090231  -0.176402  0  3.997574  0
C  C158  1  0.78556148  0.69819089  0.60593503  1  -0.029317  0  -0.073304  -0.063225  0  3.960426  0
C  C159  1  0.83329695  0.74287149  0.62987102  1  0.038455  0  -0.012837  -0.024492  0  3.946067  0
C  C160  1  0.87690738  0.70352652  0.68753480  1  -0.043681  0  -0.077844  -0.072864  0  3.98238  0
C  C161  1  0.87331784  0.62062333  0.72149629  1  -0.041241  0  -0.090898  -0.174849  0  3.992071  0
C  C162  1  0.83616107  0.83300493  0.59463103  1  1.584633  0  0.190332  0.559346  0  4.239808  0
C  C163  1  0.82170209  0.99796857  0.70033141  1  0.953202  0  0.172658  0.11301  0  3.808766  0
C  C164  1  0.82174236  0.02288962  0.79075819  1  0.981405  0  0.170153  0.094094  0  3.893467  0
C  C165  1  0.82115242  0.87484370  0.80004354  1  0.212156  0  0.098143  0.169813  0  4.016287  0
C  C166  1  0.89272547  0.83152919  0.84553972  1  -0.01274  0  -0.08995  -0.168074  0  3.985933  0
C  C167  1  0.89422829  0.74768055  0.87952418  1  0.040375  0  -0.077653  -0.070944  0  3.956441  0
C  C168  1  0.82529439  0.70692929  0.86775175  1  -0.04456  0  -0.015087  -0.034539  0  3.957113  0
C  C169  1  0.75338216  0.75155491  0.82236822  1  -0.033552  0  -0.073994  -0.066815  0  3.9631  0
C  C170  1  0.75076879  0.83565105  0.78828630  1  0.026621  0  -0.082359  -0.16088  0  3.967995  0
C  C171  1  0.82834543  0.61605120  0.90401703  1  1.550093  0  0.188189  0.550427  0  4.249506  0
C  C172  1  0.08900939  0.20605559  0.67943621  1  0.989906  0  0.15545  0.084912  0  3.917084  0
C  C173  1  0.09047774  0.18577533  0.58716971  1  0.957005  0  0.174171  0.121269  0  3.808306  0
C  C174  1  0.27439355  0.17089489  0.61430075  1  0.251268  0  0.088633  0.158418  0  4.028901  0
C  C175  1  0.33424966  0.10434171  0.58762638  1  0.0113  0  -0.085623  -0.156121  0  3.948691  0
C  C176  1  0.44830901  0.08769918  0.57675848  1  -0.10103  0  -0.072422  -0.065131  0  3.943925  0
C  C177  1  0.50163185  0.13773044  0.59103884  1  0.059902  0  -0.012144  -0.026307  0  3.947142  0
C  C178  1  0.44005659  0.20462628  0.61733995  1  0.000859  0  -0.081403  -0.076453  0  3.977383  0
C  C179  1  0.32596003  0.22114854  0.62957572  1  -0.069324  0  -0.10027  -0.18627  0  4.035418  0
C  C180  1  0.62503235  0.12050728  0.57740462  1  1.580488  0  0.209499  0.594668  0  4.219299  0
C  C181  1  0.88482693  0.04544194  0.07896841  1  0.937983  0  0.146121  0.078858  0  3.905922  0
C  C182  1  0.82875394  0.18260757  0.06347223  1  0.92816  0  0.156147  0.089705  0  3.867538  0
C  C183  1  0.83201700  0.09972524  0.17807966  1  0.282523  0  0.091156  0.165851  0  4.028454  0
C  C184  1  0.89515466  0.03023105  0.21881553  1  -0.084413  0  -0.103629  -0.192938  0  4.015496  0
C  C185  1  0.87961438  0.02512773  0.28410433  1  -0.065247  0  -0.089246  -0.081317  0  3.965744  0
C  C186  1  0.80346132  0.08921477  0.30877927  1  0.024487  0  -0.013426  -0.020996  0  3.940283  0
C  C187  1  0.74040315  0.15773912  0.26738554  1  -0.107308  0  -0.075515  -0.072912  0  3.979025  0
C  C188  1  0.75308935  0.16277987  0.20238063  1  0.050904  0  -0.088273  -0.168184  0  3.98302  0
C  C189  1  0.79101521  0.08550699  0.37884235  1  1.594282  0  0.195188  0.56597  0  4.257373  0
N  N190  1  0.12727353  0.62766123  0.53030722  1  -0.679725  0  -0.246339  -0.223906  0  3.190616  0
N  N191  1  0.16119078  0.70123794  0.51500157  1  -0.748821  0  -0.236927  -0.16989  0  3.447594  0
N  N192  1  0.15888363  0.64464079  0.61859700  1  -1.280338  0  -0.216928  -0.018232  0  3.773179  0
N  N193  1  0.02733087  0.61783241  0.06457822  1  -0.746667  0  -0.234735  -0.178979  0  3.437513  0
N  N194  1  0.02514711  0.68528757  0.08545730  1  -0.752991  0  -0.232882  -0.195188  0  3.443377  0
N  N195  1  0.85572940  0.67859805  0.09299913  1  -1.292384  0  -0.212357  -0.013543  0  3.76816  0
N  N196  1  0.19450184  0.62059661  0.18762569  1  -0.724366  0  -0.227203  -0.171764  0  3.412618  0
N  N197  1  0.18162151  0.64008917  0.24439969  1  -0.759399  0  -0.237992  -0.1686  0  3.483058  0
N  N198  1  0.18351540  0.50637931  0.26708220  1  -1.253889  0  -0.207635  -0.003471  0  3.768958  0
N  N199  1  0.17636264  0.90675183  0.25576689  1  -0.766624  0  -0.237865  -0.164048  0  3.466831  0
N  N200  1  0.17634638  0.92199187  0.31274966  1  -0.729842  0  -0.220323  -0.180925  0  3.347252  0
N  N201  1  0.17956844  0.03915627  0.23465000  1  -1.263493  0  -0.210429  -0.014087  0  3.768065  0
N  N202  1  0.01248688  0.79671913  0.38490747  1  -0.743848  0  -0.231896  -0.17891  0  3.409948  0
N  N203  1  0.01345322  0.78414210  0.32674734  1  -0.757505  0  -0.240665  -0.19932  0  3.456124  0
N  N204  1  0.84272991  0.81239113  0.37383161  1  -1.27996  0  -0.208585  -0.005492  0  3.763624  0
N  N205  1  0.11448910  0.92081099  0.98340414  1  -0.709532  0  -0.232078  -0.198938  0  3.182233  0
N  N206  1  0.14983789  0.83421279  0.99262964  1  -0.741287  0  -0.24596  -0.178378  0  3.491336  0
N  N207  1  0.15116567  0.89200451  0.88922383  1  -1.25011  0  -0.217872  -0.01654  0  3.76228  0
N  N208  1  0.87271717  0.37232814  0.46969889  1  -0.679853  0  -0.246411  -0.223987  0  3.190588  0
N  N209  1  0.83880568  0.29875070  0.48500033  1  -0.749112  0  -0.237004  -0.169991  0  3.44763  0
N  N210  1  0.84111070  0.35535487  0.38140698  1  -1.280012  0  -0.216969  -0.018608  0  3.773546  0
N  N211  1  0.97266315  0.38217715  0.93542131  1  -0.747243  0  -0.234788  -0.179112  0  3.437442  0
N  N212  1  0.97485009  0.31472193  0.91454000  1  -0.752012  0  -0.232894  -0.195237  0  3.443499  0
N  N213  1  0.14426662  0.32141275  0.90699980  1  -1.29176  0  -0.212314  -0.013469  0  3.768396  0
N  N214  1  0.80550898  0.37939688  0.81236803  1  -0.725292  0  -0.227369  -0.172113  0  3.412568  0
N  N215  1  0.81839112  0.35990619  0.75559285  1  -0.755872  0  -0.23778  -0.168482  0  3.482804  0
N  N216  1  0.81649464  0.49361672  0.73291141  1  -1.253726  0  -0.207909  -0.00401  0  3.76917  0
N  N217  1  0.82362995  0.09325208  0.74423700  1  -0.766315  0  -0.237899  -0.16422  0  3.467234  0
N  N218  1  0.82364900  0.07801076  0.68725463  1  -0.729923  0  -0.220374  -0.180878  0  3.347546  0
N  N219  1  0.82042952  0.96084317  0.76535476  1  -1.266334  0  -0.210418  -0.014113  0  3.768059  0
N  N220  1  0.98750546  0.20328030  0.61509176  1  -0.744154  0  -0.231816  -0.178934  0  3.409881  0
N  N221  1  0.98654032  0.21585858  0.67325140  1  -0.757307  0  -0.240725  -0.199309  0  3.456397  0
N  N222  1  0.15726160  0.18760325  0.62616949  1  -1.279813  0  -0.208641  -0.005862  0  3.763935  0
N  N223  1  0.88550407  0.07919097  0.01659567  1  -0.709466  0  -0.232106  -0.198955  0  3.182283  0
N  N224  1  0.85016166  0.16578912  0.00737065  1  -0.741401  0  -0.245974  -0.178366  0  3.491159  0
N  N225  1  0.84883448  0.10799553  0.11077913  1  -1.250002  0  -0.217777  -0.016312  0  3.762329  0
Cl  Cl226  1  0.31404160  0.61816006  0.02901327  1  -0.610891  0  -0.318213  -0.486482  0  1.185544  0
Cl  Cl227  1  0.04427022  0.83244106  0.16017251  1  -0.683597  0  -0.330041  -0.542172  0  1.165716  0
Cl  Cl228  1  0.28669221  0.69271165  0.34803478  1  -0.636448  0  -0.344963  -0.502119  0  1.15422  0
Cl  Cl229  1  0.05207716  0.91076615  0.47421205  1  -0.608317  0  -0.272883  -0.502622  0  1.504129  0
Cl  Cl230  1  0.68596026  0.38183665  0.97097815  1  -0.610815  0  -0.318204  -0.486456  0  1.185562  0
Cl  Cl231  1  0.95573606  0.16755444  0.83982717  1  -0.683519  0  -0.330054  -0.542232  0  1.16559  0
Cl  Cl232  1  0.71330216  0.30729655  0.65195740  1  -0.636347  0  -0.344964  -0.502116  0  1.154172  0
Cl  Cl233  1  0.94791856  0.08923259  0.52578510  1  -0.608239  0  -0.272885  -0.502621  0  1.504038  0
O  O234  1  0.21166189  0.51763482  0.91795946  1  -1.150266  0  -0.335957  -0.551897  0  2.227587  0
O  O235  1  0.14790415  0.65782454  0.90587335  1  -1.17885  0  -0.329502  -0.569485  0  2.190635  0
O  O236  1  0.34220773  0.76124822  0.08762645  1  -1.168062  0  -0.336141  -0.543261  0  2.321595  0
O  O237  1  0.33967240  0.78337333  0.18365048  1  -1.180278  0  -0.341782  -0.561865  0  2.336299  0
O  O238  1  0.19684295  0.13645905  0.46037179  1  -1.163558  0  -0.329942  -0.552998  0  2.239476  0
O  O239  1  0.12940448  0.12573529  0.37960408  1  -1.173011  0  -0.330999  -0.567131  0  2.187338  0
O  O240  1  0.22850673  0.42198857  0.11108448  1  -1.170296  0  -0.340475  -0.574889  0  2.184954  0
O  O241  1  0.11411766  0.41908501  0.05025628  1  -1.168453  0  -0.332825  -0.55406  0  2.189721  0
O  O242  1  0.33543324  0.81752253  0.43000147  1  -1.179228  0  -0.336634  -0.554125  0  2.318724  0
O  O243  1  0.32316404  0.95448832  0.42513399  1  -1.176826  0  -0.340046  -0.57953  0  2.301002  0
O  O244  1  0.24310416  0.84719881  0.60439394  1  -1.184284  0  -0.334425  -0.566344  0  2.136303  0
O  O245  1  0.18115579  0.99014138  0.58384261  1  -1.159061  0  -0.338289  -0.571735  0  2.338498  0
O  O246  1  0.78832612  0.48237100  0.08204186  1  -1.150359  0  -0.335946  -0.5519  0  2.22765  0
O  O247  1  0.85209544  0.34218496  0.09412497  1  -1.178525  0  -0.329468  -0.569388  0  2.19057  0
O  O248  1  0.65779951  0.23874405  0.91236897  1  -1.168129  0  -0.336265  -0.543429  0  2.321331  0
O  O249  1  0.66032107  0.21665317  0.81633348  1  -1.179955  0  -0.341745  -0.561961  0  2.336178  0
O  O250  1  0.80316213  0.86353522  0.53963018  1  -1.163506  0  -0.329881  -0.552937  0  2.239641  0
O  O251  1  0.87058830  0.87426796  0.62039726  1  -1.1731  0  -0.331102  -0.567204  0  2.187321  0
O  O252  1  0.77149600  0.57801578  0.88891024  1  -1.169984  0  -0.340426  -0.574792  0  2.184989  0
O  O253  1  0.88588425  0.58091431  0.94974166  1  -1.168484  0  -0.3328  -0.554021  0  2.189667  0
O  O254  1  0.66455844  0.18246616  0.57000153  1  -1.179584  0  -0.336503  -0.554103  0  2.318728  0
O  O255  1  0.67683528  0.04549671  0.57488647  1  -1.177329  0  -0.340117  -0.579669  0  2.301188  0
O  O256  1  0.75691064  0.15277965  0.39561843  1  -1.184082  0  -0.334154  -0.565936  0  2.136495  0
O  O257  1  0.81885874  0.00983756  0.41615616  1  -1.158017  0  -0.338416  -0.571825  0  2.338142  0
