# generated using pymatgen
data_CoH9C13(NO2)2
_symmetry_space_group_name_H-M   'P 1'
_cell_length_a   7.73967363
_cell_length_b   10.90294793
_cell_length_c   15.92992478
_cell_angle_alpha   106.72767413
_cell_angle_beta   90.00066028
_cell_angle_gamma   89.99947890
_symmetry_Int_Tables_number   1
_chemical_formula_structural   CoH9C13(NO2)2
_chemical_formula_sum   'Co4 H36 C52 N8 O16'
_cell_volume   1287.36694820
_cell_formula_units_Z   4
loop_
 _symmetry_equiv_pos_site_id
 _symmetry_equiv_pos_as_xyz
  1  'x, y, z'
loop_
 _atom_site_type_symbol
 _atom_site_label
 _atom_site_symmetry_multiplicity
 _atom_site_fract_x
 _atom_site_fract_y
 _atom_site_fract_z
 _atom_site_occupancy
 _atom_site_pbe_bader_charge
 _atom_site_pbe_bader_spin_density
 _atom_site_pbe_cm5_charge
 _atom_site_pbe_ddec_charge
 _atom_site_pbe_ddec_spin_density
 _atom_site_pbe_ddec_sum_bond_order
 _atom_site_pbe_magmom
Co  Co0  1  0.50778842  0.69686093  0.81279152  1  1.196355  2.544625  0.674584  0.829324  2.808453  2.453663  2.491
Co  Co1  1  0.00779495  0.30311790  0.68721238  1  1.196379  2.544623  0.674617  0.829238  2.808473  2.453858  2.491
Co  Co2  1  0.49221395  0.30313580  0.18722090  1  1.196159  -2.544663  0.67451  0.829294  -2.808486  2.45365  -2.491
Co  Co3  1  0.99220355  0.69688084  0.31278601  1  1.196425  -2.544602  0.674599  0.829306  -2.808453  2.453653  -2.491
H  H4  1  0.34427447  0.47801515  0.78015561  1  0.485786  0.000411  0.296771  0.30376  0.000611  0.970582  0.0
H  H5  1  0.84428172  0.52194340  0.71985245  1  0.48573  0.00041  0.296778  0.303777  0.00061  0.970468  0.0
H  H6  1  0.65573824  0.52194431  0.21983744  1  0.485921  -0.00041  0.296831  0.303792  -0.00061  0.970436  0.0
H  H7  1  0.15572970  0.47806591  0.28014303  1  0.485754  -0.00041  0.296802  0.303751  -0.00061  0.970482  0.0
H  H8  1  0.48807855  0.49168091  0.85976712  1  0.487062  0.000333  0.299156  0.309124  0.00033  0.957915  0.0
H  H9  1  0.98810088  0.50835534  0.64025101  1  0.487208  0.000334  0.299072  0.309038  0.00033  0.957831  0.0
H  H10  1  0.51191865  0.50835232  0.14023627  1  0.487017  -0.000335  0.299081  0.309021  -0.000331  0.957869  0.0
H  H11  1  0.01191571  0.49165307  0.35973613  1  0.487449  -0.000334  0.29911  0.309025  -0.00033  0.957786  0.0
H  H12  1  0.87214390  0.69769926  0.06265313  1  0.129015  4.3e-05  0.106223  0.121213  0.000212  1.005959  0.0
H  H13  1  0.37211748  0.30231891  0.43737724  1  0.12952  4.4e-05  0.106194  0.121124  0.000212  1.006075  0.0
H  H14  1  0.12785589  0.30229274  0.93734956  1  0.129117  -4.2e-05  0.106174  0.121135  -0.000212  1.005851  0.0
H  H15  1  0.62787326  0.69770372  0.56263408  1  0.129257  -4.3e-05  0.106124  0.121108  -0.000213  1.006035  0.0
H  H16  1  0.39982558  0.57331025  0.01382187  1  0.088313  -3.7e-05  0.108341  0.120828  -2.5e-05  1.015225  0.0
H  H17  1  0.89982186  0.42669559  0.48616288  1  0.086667  -3.5e-05  0.108333  0.1208  -2.5e-05  1.015175  0.0
H  H18  1  0.60015096  0.42665699  0.98615515  1  0.086692  3.5e-05  0.108301  0.12077  2.5e-05  1.015201  0.0
H  H19  1  0.10015467  0.57334259  0.51381702  1  0.088498  3.7e-05  0.108313  0.120693  2.5e-05  1.015256  0.0
H  H20  1  0.07854842  0.60256074  0.80021086  1  0.135632  0.000958  0.110031  0.125034  0.000581  1.041074  0.0
H  H21  1  0.57859131  0.39742247  0.69979118  1  0.135488  0.00096  0.109955  0.125033  0.000582  1.041265  0.0
H  H22  1  0.92144750  0.39744767  0.19977690  1  0.135905  -0.000959  0.110087  0.125123  -0.000582  1.041292  0.0
H  H23  1  0.42142657  0.60257435  0.30020682  1  0.135674  -0.000959  0.109962  0.125047  -0.000582  1.041258  0.0
H  H24  1  0.24264031  0.85391710  0.76961875  1  0.09985  0.002386  0.119978  0.09184  0.000844  1.009203  0.001
H  H25  1  0.74271610  0.14599429  0.73036360  1  0.100397  0.002384  0.119898  0.091814  0.000844  1.009097  0.001
H  H26  1  0.75740599  0.14612093  0.23038435  1  0.099535  -0.002383  0.119912  0.091821  -0.000844  1.009277  -0.001
H  H27  1  0.25730695  0.85399394  0.26963017  1  0.100303  -0.002383  0.119941  0.091809  -0.000843  1.009235  -0.001
H  H28  1  0.98674566  0.96692811  0.84520049  1  0.09595  0.000882  0.114062  0.120088  0.000325  0.994815  0.0
H  H29  1  0.48680705  0.03297115  0.65479591  1  0.097259  0.000881  0.114177  0.120065  0.000325  0.995049  0.0
H  H30  1  0.01329548  0.03311466  0.15481047  1  0.095902  -0.000881  0.114094  0.120038  -0.000325  0.994974  0.0
H  H31  1  0.51322246  0.96699016  0.34520630  1  0.095433  -0.000882  0.114068  0.119984  -0.000325  0.994935  0.0
H  H32  1  0.22718678  0.96182346  0.08998974  1  0.056281  0.000634  0.113328  0.117293  0.000236  0.99483  0.0
H  H33  1  0.72713602  0.03822460  0.41000373  1  0.056204  0.000634  0.113409  0.11745  0.000236  0.994956  0.0
H  H34  1  0.77282205  0.03814451  0.91002071  1  0.056632  -0.000634  0.113354  0.117274  -0.000236  0.995109  0.0
H  H35  1  0.27283277  0.96179140  0.58999497  1  0.056403  -0.000634  0.113405  0.11742  -0.000236  0.994981  0.0
H  H36  1  0.47288661  0.84779358  0.00294214  1  0.161952  0.001871  0.122723  0.108408  0.000666  1.014315  0.001
H  H37  1  0.97284321  0.15223769  0.49704560  1  0.162004  0.001872  0.122786  0.108465  0.000666  1.014316  0.001
H  H38  1  0.52711834  0.15217446  0.99705827  1  0.162293  -0.001871  0.12287  0.108521  -0.000667  1.014259  -0.001
H  H39  1  0.02712428  0.84778506  0.50294816  1  0.16216  -0.001872  0.122721  0.108412  -0.000666  1.014327  -0.001
C  C40  1  0.95612284  0.65169013  0.92788626  1  -0.004412  -0.001317  -0.022449  -0.030266  -0.000723  4.022546  -0.002
C  C41  1  0.45612108  0.34830513  0.57212412  1  -0.004639  -0.001315  -0.022508  -0.030193  -0.000722  4.022381  -0.002
C  C42  1  0.04388082  0.34828090  0.07209780  1  -0.004202  0.001314  -0.022486  -0.030512  0.000721  4.022514  0.002
C  C43  1  0.54388001  0.65170123  0.42788332  1  -0.004782  0.001316  -0.022492  -0.030378  0.000722  4.022287  0.002
C  C44  1  0.97925786  0.66633707  0.01739003  1  -0.063123  0.014147  -0.081102  -0.116656  0.007592  3.943891  0.009
C  C45  1  0.47925286  0.33367763  0.48263273  1  -0.062969  0.01414  -0.081055  -0.116512  0.007588  3.944044  0.009
C  C46  1  0.02072642  0.33364631  0.98261219  1  -0.06271  -0.014126  -0.081098  -0.116381  -0.007581  3.944278  -0.009
C  C47  1  0.52073401  0.66634881  0.51738249  1  -0.062639  -0.014148  -0.080922  -0.116269  -0.007592  3.943575  -0.009
C  C48  1  0.13877847  0.63745923  0.04787729  1  0.015536  -0.00754  -0.023575  -0.036755  -0.003967  4.010775  -0.006
C  C49  1  0.63875780  0.36256142  0.45213718  1  0.016801  -0.007538  -0.0235  -0.036781  -0.003967  4.010605  -0.006
C  C50  1  0.86122649  0.36252325  0.95211470  1  0.008758  0.00754  -0.023684  -0.03706  0.003966  4.010856  0.006
C  C51  1  0.36121098  0.63747748  0.54787928  1  0.016411  0.007539  -0.023758  -0.037207  0.003967  4.010901  0.006
C  C52  1  0.27530314  0.59365491  0.98905574  1  0.021162  0.011409  -0.077397  -0.168812  0.005743  3.88956  0.007
C  C53  1  0.77530796  0.40635491  0.51094836  1  0.022377  0.011402  -0.077456  -0.168882  0.00574  3.889852  0.007
C  C54  1  0.72467210  0.40632564  0.01093901  1  0.028984  -0.011401  -0.077144  -0.168437  -0.00574  3.889711  -0.007
C  C55  1  0.22468925  0.59367835  0.48905128  1  0.020366  -0.011409  -0.07732  -0.168431  -0.005743  3.889611  -0.007
C  C56  1  0.25195235  0.57846465  0.89970599  1  0.331129  -0.005283  0.08694  0.273315  -0.002657  4.002906  -0.005
C  C57  1  0.75196556  0.42154056  0.60029141  1  0.331426  -0.005282  0.086883  0.273239  -0.002655  4.00278  -0.005
C  C58  1  0.74803064  0.42152559  0.10027375  1  0.33161  0.005278  0.086731  0.273097  0.002653  4.003331  0.005
C  C59  1  0.24802777  0.57846970  0.39970489  1  0.331595  0.005286  0.086894  0.273103  0.002657  4.002471  0.005
C  C60  1  0.09255624  0.60910797  0.86938289  1  -0.083968  0.014638  -0.083312  -0.181562  0.007753  3.891538  0.009
C  C61  1  0.59257562  0.39088471  0.63062490  1  -0.084686  0.014644  -0.083194  -0.181531  0.007756  3.89113  0.009
C  C62  1  0.90742417  0.39088020  0.13061904  1  -0.084853  -0.014647  -0.083283  -0.181535  -0.007758  3.890519  -0.009
C  C63  1  0.40743838  0.60911501  0.36937054  1  -0.084493  -0.014648  -0.083174  -0.181445  -0.007758  3.890824  -0.009
C  C64  1  0.78333728  0.67763438  0.89614376  1  1.492636  -0.001563  0.199067  0.548271  -0.000113  4.198579  -0.003
C  C65  1  0.28334168  0.32235418  0.60387810  1  1.494137  -0.001562  0.198848  0.54778  -0.000114  4.198855  -0.003
C  C66  1  0.21666251  0.32234431  0.10384246  1  1.49306  0.001563  0.199288  0.548499  0.000113  4.198591  0.003
C  C67  1  0.71665941  0.67763584  0.39613486  1  1.492977  0.001562  0.199189  0.548314  0.000114  4.198511  0.003
C  C68  1  0.16276116  0.64910143  0.14324749  1  1.547471  -0.001684  0.203415  0.563749  -0.002424  4.223436  -0.001
C  C69  1  0.66273192  0.35091717  0.35676357  1  1.546485  -0.001682  0.203728  0.564217  -0.002421  4.223292  -0.001
C  C70  1  0.83724768  0.35087720  0.85674562  1  1.546828  0.001685  0.203279  0.563504  0.002424  4.223356  0.001
C  C71  1  0.33724461  0.64911794  0.64324585  1  1.547364  0.001679  0.203526  0.563873  0.002421  4.223107  0.001
C  C72  1  0.23469235  0.88189335  0.84085554  1  0.476718  -0.003319  0.044168  0.090908  -0.000806  3.953714  -0.002
C  C73  1  0.73473703  0.11804872  0.65913478  1  0.476755  -0.003318  0.044155  0.090967  -0.000805  3.953299  -0.002
C  C74  1  0.76533587  0.11813023  0.15915723  1  0.476516  0.003327  0.044128  0.090758  0.000812  3.953277  0.002
C  C75  1  0.26527309  0.88193854  0.34086005  1  0.477319  0.00332  0.044105  0.091023  0.000805  3.953275  0.002
C  C76  1  0.09057148  0.94442959  0.88431668  1  -0.063746  0.007713  -0.074401  -0.151136  0.003808  3.923299  0.006
C  C77  1  0.59061189  0.05551428  0.61567758  1  -0.066029  0.007708  -0.074409  -0.151071  0.003805  3.923921  0.006
C  C78  1  0.90946319  0.05558638  0.11568641  1  -0.064026  -0.007713  -0.07434  -0.150964  -0.003809  3.92326  -0.006
C  C79  1  0.40940340  0.94446622  0.38432470  1  -0.063956  -0.007709  -0.074253  -0.15094  -0.003805  3.923478  -0.006
C  C80  1  0.07826052  0.97189543  0.97588362  1  0.040427  -0.005826  0.015642  0.103403  -0.003173  3.966352  -0.004
C  C81  1  0.57824610  0.02811751  0.52411934  1  0.003347  -0.005819  0.015546  0.103393  -0.003169  3.96673  -0.004
C  C82  1  0.92176123  0.02811856  0.02412974  1  0.003852  0.005829  0.015451  0.10339  0.003174  3.966636  0.004
C  C83  1  0.42174077  0.97188697  0.47588207  1  0.040398  0.005816  0.015494  0.103339  0.003167  3.966765  0.004
C  C84  1  0.22312646  0.94105039  0.01900040  1  0.099172  0.005446  -0.073396  -0.152279  0.002915  3.930396  0.004
C  C85  1  0.72308877  0.05897949  0.48099129  1  0.0989  0.005441  -0.0733  -0.152129  0.002912  3.93027  0.004
C  C86  1  0.77687979  0.05893198  0.98100853  1  0.099035  -0.005452  -0.073276  -0.152143  -0.002917  3.930698  -0.004
C  C87  1  0.27688648  0.94103651  0.51900803  1  0.098346  -0.005446  -0.073345  -0.152284  -0.002914  3.930281  -0.004
C  C88  1  0.36285045  0.87832090  0.97151167  1  0.354391  0.00025  0.045308  0.087786  0.000265  3.95513  0.0
C  C89  1  0.86283263  0.12169517  0.52848163  1  0.355086  0.000257  0.045072  0.087344  0.00027  3.955426  0.0
C  C90  1  0.63715709  0.12166433  0.02849971  1  0.354149  -0.000246  0.045126  0.087649  -0.000264  3.955491  0.0
C  C91  1  0.13714649  0.87831510  0.47151341  1  0.354831  -0.000257  0.045193  0.087669  -0.000269  3.955139  0.0
N  N92  1  0.38974447  0.53904449  0.83826361  1  -1.206325  0.07146  -0.600164  -0.606285  0.038532  3.434276  0.05
N  N93  1  0.88976259  0.46094262  0.66173535  1  -1.206482  0.071456  -0.600089  -0.606176  0.038534  3.434016  0.05
N  N94  1  0.61025145  0.46094568  0.16172616  1  -1.206296  -0.071464  -0.600041  -0.606085  -0.038535  3.434157  -0.05
N  N95  1  0.11024754  0.53905619  0.33825363  1  -1.206884  -0.071455  -0.600164  -0.606056  -0.038532  3.433818  -0.05
N  N96  1  0.36817539  0.84500505  0.88286600  1  -1.230805  0.071737  -0.348739  -0.277128  0.038764  3.651301  0.049
N  N97  1  0.86820452  0.15497170  0.61712323  1  -1.230675  0.071725  -0.348636  -0.277058  0.038757  3.651113  0.049
N  N98  1  0.63183474  0.15499843  0.11714149  1  -1.230547  -0.071733  -0.348623  -0.277031  -0.038762  3.651295  -0.049
N  N99  1  0.13178881  0.84502996  0.38286946  1  -1.231146  -0.071732  -0.348655  -0.277246  -0.038759  3.651089  -0.049
O  O100  1  0.76276960  0.67119683  0.81367958  1  -1.139933  0.103293  -0.322439  -0.539369  0.054129  2.276136  0.081
O  O101  1  0.26278618  0.32880615  0.68635321  1  -1.139985  0.103294  -0.322428  -0.539086  0.054125  2.275539  0.081
O  O102  1  0.23722632  0.32879425  0.18631728  1  -1.139857  -0.103307  -0.322551  -0.539585  -0.054133  2.276106  -0.081
O  O103  1  0.73722265  0.67120011  0.31366739  1  -1.14006  -0.103285  -0.322519  -0.539364  -0.054126  2.275942  -0.081
O  O104  1  0.65555458  0.70368330  0.94725399  1  -1.155755  0.058027  -0.300662  -0.533917  0.030324  2.206849  0.05
O  O105  1  0.15556709  0.29629927  0.55277410  1  -1.156948  0.058007  -0.300492  -0.533687  0.030316  2.207514  0.05
O  O106  1  0.34444262  0.29629348  0.05273058  1  -1.156461  -0.05799  -0.300742  -0.533919  -0.030307  2.206755  -0.05
O  O107  1  0.84444045  0.70367149  0.44725008  1  -1.155814  -0.05802  -0.300746  -0.534028  -0.030319  2.206893  -0.05
O  O108  1  0.03039546  0.69541676  0.19257934  1  -1.153983  -0.102795  -0.336876  -0.566611  -0.054582  2.383323  -0.079
O  O109  1  0.53036424  0.30462851  0.30743504  1  -1.15407  -0.102776  -0.337053  -0.56686  -0.054581  2.383901  -0.079
O  O110  1  0.96961338  0.30457053  0.80740986  1  -1.153309  0.102794  -0.336742  -0.566433  0.054589  2.383632  0.079
O  O111  1  0.46959938  0.69540842  0.69258793  1  -1.154308  0.102772  -0.336965  -0.566695  0.054578  2.383694  0.079
O  O112  1  0.30172099  0.61563666  0.17072288  1  -1.194447  -0.008625  -0.315178  -0.55355  -0.003824  2.177641  -0.007
O  O113  1  0.80171792  0.38435912  0.32927751  1  -1.194062  -0.008635  -0.315292  -0.553799  -0.003829  2.17716  -0.007
O  O114  1  0.69827622  0.38433817  0.82926633  1  -1.194217  0.008631  -0.315207  -0.553508  0.003827  2.177254  0.007
O  O115  1  0.19825862  0.61565394  0.67073064  1  -1.194333  0.008634  -0.315218  -0.553623  0.003829  2.176895  0.007
