# generated using pymatgen
data_MnH24C24(N3O2)2
_symmetry_space_group_name_H-M   'P 1'
_cell_length_a   4.91139176
_cell_length_b   9.26337710
_cell_length_c   11.61512386
_cell_angle_alpha   90.01373020
_cell_angle_beta   91.39186775
_cell_angle_gamma   101.17209919
_symmetry_Int_Tables_number   1
_chemical_formula_structural   MnH24C24(N3O2)2
_chemical_formula_sum   'Mn1 H24 C24 N6 O4'
_cell_volume   518.26879464
_cell_formula_units_Z   1
loop_
 _symmetry_equiv_pos_site_id
 _symmetry_equiv_pos_as_xyz
  1  'x, y, z'
loop_
 _atom_site_type_symbol
 _atom_site_label
 _atom_site_symmetry_multiplicity
 _atom_site_fract_x
 _atom_site_fract_y
 _atom_site_fract_z
 _atom_site_occupancy
 _atom_site_pbe_cm5_charge
 _atom_site_pbe_ddec_charge
 _atom_site_pbe_ddec_spin_density
 _atom_site_pbe_ddec_sum_bond_order
 _atom_site_pbe_magmom
Mn  Mn0  1  0.49605768  0.50080050  0.00053972  1  0.644719  0.772163  -1.200449  3.254269  -1.164
H  H1  1  0.56942248  0.28842618  0.49101843  1  0.117655  0.107705  9.1e-05  0.985602  0.0
H  H2  1  0.44070468  0.70919156  0.50800111  1  0.117158  0.106464  9.1e-05  0.985934  0.0
H  H3  1  0.63258874  0.16127726  0.38789752  1  0.118662  0.10199  -1e-05  1.008826  0.0
H  H4  1  0.37019465  0.83761715  0.60855779  1  0.117668  0.100646  -1.1e-05  1.012239  0.0
H  H5  1  0.22496546  0.83661015  0.25701454  1  0.093303  0.134823  0.000425  1.025237  0.0
H  H6  1  0.77064685  0.16540308  0.73901983  1  0.093278  0.134856  0.000397  1.023615  0.0
H  H7  1  0.53044757  0.94227376  0.32070535  1  0.088529  0.122567  7.3e-05  1.037519  0.0
H  H8  1  0.47091177  0.05213124  0.67730470  1  0.087994  0.120635  7.3e-05  1.04015  0.0
H  H9  1  0.30635019  0.02695174  0.23327893  1  0.090584  0.124855  0.000173  1.028136  0.0
H  H10  1  0.70288158  0.97573508  0.76701923  1  0.090364  0.124872  0.000187  1.028524  0.0
H  H11  1  0.77585165  0.71501938  0.29849906  1  0.093586  0.135519  7.9e-05  1.008338  0.0
H  H12  1  0.22900403  0.28043039  0.70316129  1  0.093071  0.134753  7.3e-05  1.010067  0.0
H  H13  1  0.73250236  0.62940092  0.43560298  1  0.088541  0.123396  1.8e-05  1.040074  0.0
H  H14  1  0.28465289  0.36793586  0.56737999  1  0.088443  0.122626  1.9e-05  1.041511  0.0
H  H15  1  0.06060053  0.66854299  0.37552199  1  0.091338  0.125458  3.7e-05  1.033738  0.0
H  H16  1  0.95264697  0.33293200  0.62412169  1  0.091003  0.125617  3.5e-05  1.031342  0.0
H  H17  1  0.06310276  0.52966332  0.20967671  1  0.136384  0.10706  0.000526  1.051161  0.0
H  H18  1  0.93522506  0.47215956  0.79490505  1  0.13645  0.107419  0.000493  1.052731  0.0
H  H19  1  0.69367774  0.28279938  0.19607082  1  0.143902  0.111168  0.000494  1.027953  0.0
H  H20  1  0.30247763  0.71836165  0.80162784  1  0.142988  0.109523  0.000459  1.027324  0.0
H  H21  1  0.68504423  0.82895543  0.12604807  1  0.104262  0.106801  6.4e-05  1.032367  0.0
H  H22  1  0.30453945  0.17151230  0.87356156  1  0.104305  0.106714  6.1e-05  1.031697  0.0
H  H23  1  0.61577581  0.08553267  0.10097469  1  0.09601  0.088125  0.000213  1.063677  0.0
H  H24  1  0.37218075  0.91463857  0.89767717  1  0.096415  0.088955  0.000215  1.060461  0.0
C  C25  1  0.22331351  0.10618334  0.46087175  1  -0.019074  -0.035227  0.000278  3.929844  0.0
C  C26  1  0.78256304  0.89314905  0.53851220  1  -0.019104  -0.035692  0.000272  3.929277  0.0
C  C27  1  0.15157301  0.96967977  0.40288563  1  -0.014868  0.058925  0.00018  3.931239  0.0
C  C28  1  0.85355681  0.02984191  0.59627955  1  -0.014029  0.060756  0.000187  3.928055  0.0
C  C29  1  0.93246748  0.86079729  0.44291821  1  -0.014462  0.05599  0.000169  3.951154  0.0
C  C30  1  0.07414438  0.13831595  0.55679264  1  -0.013942  0.056086  0.000164  3.946707  0.0
C  C31  1  0.47173751  0.21651971  0.42050163  1  -0.044156  -0.123491  0.000177  3.890704  0.0
C  C32  1  0.53382104  0.78265458  0.57837227  1  -0.042961  -0.120302  0.000174  3.887944  0.0
C  C33  1  0.31101952  0.94180287  0.29866272  1  -0.245517  -0.406529  0.000401  3.943929  0.0
C  C34  1  0.69181660  0.05785333  0.69973147  1  -0.245934  -0.406359  0.000408  3.946354  0.0
C  C35  1  0.86949043  0.71157696  0.38530072  1  -0.245242  -0.414353  0.000119  3.964257  0.0
C  C36  1  0.14083555  0.28672370  0.61572765  1  -0.244355  -0.412647  0.000111  3.963739  0.0
C  C37  1  0.20621427  0.45922224  0.23530130  1  0.139294  0.115125  0.00357  3.9696  0.002
C  C38  1  0.79252406  0.54211306  0.76762074  1  0.140152  0.117162  0.003507  3.968927  0.002
C  C39  1  0.52470219  0.33288732  0.22354163  1  0.162776  0.076065  0.00986  3.864199  0.006
C  C40  1  0.47320054  0.66838728  0.77608002  1  0.162722  0.07793  0.009822  3.863412  0.006
C  C41  1  0.03241093  0.85393530  0.01336724  1  -0.022983  -0.050457  0.019186  4.003887  0.009
C  C42  1  0.95713262  0.14653933  0.98621531  1  -0.024037  -0.051468  0.019019  4.008332  0.009
C  C43  1  0.82098078  0.90480629  0.07144563  1  -0.087723  -0.092754  0.0091  3.979339  0.004
C  C44  1  0.16828871  0.09566392  0.92803397  1  -0.086771  -0.091641  0.009019  3.981294  0.004
C  C45  1  0.78403970  0.04850995  0.05788482  1  -0.094132  -0.10846  0.009795  4.000086  0.005
C  C46  1  0.20468037  0.95181764  0.94125618  1  -0.094567  -0.108547  0.009737  3.997344  0.005
C  C47  1  0.07286990  0.70129552  0.03168800  1  0.213566  0.539577  0.037821  4.13768  0.021
C  C48  1  0.91846099  0.29959287  0.96899183  1  0.214481  0.53999  0.037935  4.138885  0.021
N  N49  1  0.40435946  0.31022077  0.32656909  1  -0.135759  0.164663  0.001823  3.737071  0.001
N  N50  1  0.59837531  0.69080036  0.67402482  1  -0.135396  0.165982  0.00181  3.734602  0.001
N  N51  1  0.20042360  0.38999943  0.33577905  1  -0.230947  -0.2781  -9.5e-05  3.116841  0.0
N  N52  1  0.80290889  0.61104632  0.66696122  1  -0.231715  -0.281616  -0.00011  3.120976  0.0
N  N53  1  0.40274415  0.42710187  0.16259607  1  -0.348489  -0.267311  0.013553  3.568051  0.011
N  N54  1  0.59246669  0.57437231  0.83847970  1  -0.348081  -0.269544  0.013366  3.567651  0.011
O  O55  1  0.86894311  0.60441370  0.06727388  1  -0.307007  -0.522776  -0.009497  2.462266  -0.008
O  O56  1  0.12400593  0.39650812  0.93493433  1  -0.306775  -0.521129  -0.010588  2.472043  -0.009
O  O57  1  0.31834710  0.67596662  0.01712782  1  -0.290343  -0.486958  0.00204  2.451403  0.006
O  O58  1  0.67315594  0.32540478  0.98309155  1  -0.291231  -0.4876  0.002864  2.451004  0.007
