# generated using pymatgen
data_CuP2H10C12(NO5)2
_symmetry_space_group_name_H-M   'P 1'
_cell_length_a   7.20740391
_cell_length_b   10.21744843
_cell_length_c   12.24558389
_cell_angle_alpha   65.44591994
_cell_angle_beta   72.88135191
_cell_angle_gamma   69.34617286
_symmetry_Int_Tables_number   1
_chemical_formula_structural   CuP2H10C12(NO5)2
_chemical_formula_sum   'Cu2 P4 H20 C24 N4 O20'
_cell_volume   755.85677369
_cell_formula_units_Z   2
loop_
 _symmetry_equiv_pos_site_id
 _symmetry_equiv_pos_as_xyz
  1  'x, y, z'
loop_
 _atom_site_type_symbol
 _atom_site_label
 _atom_site_symmetry_multiplicity
 _atom_site_fract_x
 _atom_site_fract_y
 _atom_site_fract_z
 _atom_site_occupancy
 _atom_site_hle17_ddec_charge
 _atom_site_hle17_ddec_spin_density
 _atom_site_hle17_ddec_sum_bond_order
 _atom_site_hle17_magmom
 _atom_site_hse06_10hf_ddec_charge
 _atom_site_hse06_10hf_ddec_spin_density
 _atom_site_hse06_10hf_ddec_sum_bond_order
 _atom_site_hse06_10hf_magmom
 _atom_site_hse06_ddec_charge
 _atom_site_hse06_ddec_spin_density
 _atom_site_hse06_ddec_sum_bond_order
 _atom_site_hse06_magmom
 _atom_site_pbe_cm5_charge
 _atom_site_pbe_ddec_charge
 _atom_site_pbe_ddec_spin_density
 _atom_site_pbe_ddec_sum_bond_order
 _atom_site_pbe_magmom
Cu  Cu0  1  0.49999966  0.49999986  0.00000031  1  0.91055  0.722011  1.803905  0.542  0.883951  0.795328  2.19079  0.651  0.96614  0.853052  2.125565  0.727  0.782465  0.831645  0.753811  2.237364  0.6
Cu  Cu1  1  0.00000092  0.99999950  0.49999962  1  0.909668  0.721213  1.805186  0.542  0.883106  0.794687  2.192066  0.65  0.965382  0.852774  2.12674  0.726  0.782658  0.830944  0.753867  2.238448  0.6
P  P2  1  0.78939854  0.21095873  0.98487448  1  1.436086  0.00367  4.820502  0.002  1.271741  0.005616  5.328698  0.004  1.324005  0.003924  5.290398  0.003  0.373327  1.235241  0.007088  5.354385  0.005
P  P3  1  0.98529469  0.28916828  0.51493564  1  1.437048  0.003617  4.81716  0.002  1.272993  0.005538  5.324971  0.004  1.325321  0.003884  5.286543  0.003  0.373887  1.236013  0.007108  5.351133  0.005
P  P4  1  0.21060117  0.78904073  0.01512570  1  1.436129  0.00367  4.820531  0.002  1.271786  0.005615  5.328719  0.004  1.324043  0.003924  5.290422  0.003  0.373356  1.235278  0.007088  5.354403  0.005
P  P5  1  0.01471026  0.71083343  0.48506221  1  1.43701  0.003613  4.817196  0.002  1.272925  0.005537  5.325019  0.004  1.32525  0.003885  5.286594  0.003  0.373854  1.235941  0.007108  5.351189  0.005
H  H6  1  0.20558021  0.24872461  0.84436439  1  0.121139  0.000646  0.956334  0.001  0.127873  0.000533  1.021678  0.001  0.131335  0.000372  1.019711  0.0  0.11557  0.125207  0.000672  1.023637  0.001
H  H7  1  0.29867459  0.25144468  0.65543530  1  0.121089  0.000615  0.957398  0.001  0.127782  0.000512  1.022622  0.001  0.13115  0.000361  1.020783  0.0  0.115605  0.125247  0.000672  1.02427  0.001
H  H8  1  0.79441870  0.75127598  0.15563440  1  0.121132  0.000656  0.95631  0.001  0.127853  0.000533  1.021674  0.001  0.131315  0.000372  1.019707  0.0  0.115566  0.125186  0.000672  1.02363  0.001
H  H9  1  0.70132672  0.74855590  0.34456400  1  0.121075  0.000616  0.957382  0.001  0.127767  0.000512  1.022613  0.001  0.131134  0.000361  1.020773  0.0  0.115593  0.125229  0.000672  1.024259  0.001
H  H10  1  0.10443958  0.71128306  0.79539614  1  0.130367  0.000252  0.940842  0.0  0.137012  0.00034  1.00456  0.0  0.139997  0.000219  1.003529  0.0  0.118562  0.134809  0.000448  1.005562  0.001
H  H11  1  0.61095395  0.78883430  0.70457776  1  0.131278  0.000295  0.939084  0.0  0.136965  0.000352  1.003849  0.0  0.139935  0.000226  1.002811  0.0  0.118506  0.13466  0.000448  1.005065  0.001
H  H12  1  0.89555931  0.28871640  0.20460486  1  0.130374  0.000255  0.940839  0.0  0.137035  0.00034  1.004537  0.0  0.14002  0.000218  1.003506  0.0  0.118574  0.134831  0.000448  1.005548  0.001
H  H13  1  0.38904534  0.21116739  0.29542286  1  0.131266  0.000292  0.939093  0.0  0.136938  0.000352  1.003876  0.0  0.139908  0.000226  1.002838  0.0  0.1185  0.134633  0.000448  1.005093  0.001
H  H14  1  0.74802241  0.71509498  0.89721325  1  0.102126  0.000957  0.950054  0.002  0.109834  0.000661  1.009445  0.001  0.111898  0.000462  1.008056  0.001  0.123229  0.108319  0.000837  1.010505  0.002
H  H15  1  0.36022426  0.78499096  0.60279339  1  0.102879  0.000925  0.950235  0.002  0.110168  0.000647  1.009837  0.001  0.112263  0.000454  1.008421  0.001  0.123236  0.108628  0.000839  1.010857  0.002
H  H16  1  0.25197690  0.28490449  0.10278586  1  0.10212  0.000952  0.950039  0.002  0.109824  0.000661  1.009448  0.001  0.111888  0.000462  1.008058  0.001  0.123227  0.108322  0.000837  1.010513  0.002
H  H17  1  0.63977826  0.21500738  0.39720760  1  0.102837  0.000931  0.95029  0.002  0.110145  0.000647  1.009884  0.001  0.11224  0.000454  1.008468  0.001  0.123225  0.108605  0.000839  1.010906  0.002
H  H18  1  0.00290401  0.01775812  0.09887823  1  0.445131  -4.3e-05  0.857261  0.0  0.408538  2.7e-05  0.928687  0.0  0.420564  5e-06  0.911655  0.0  0.307487  0.400093  5.5e-05  0.94065  0.0
H  H19  1  0.11949807  0.48241813  0.40104405  1  0.445212  -4.2e-05  0.85736  0.0  0.408329  2.1e-05  0.929272  0.0  0.420358  1.1e-05  0.912224  0.0  0.307116  0.39961  5.6e-05  0.941544  0.0
H  H20  1  0.99709813  0.98223912  0.90112093  1  0.44515  -4.4e-05  0.857236  0.0  0.408562  2.7e-05  0.928652  0.0  0.420589  5e-06  0.911618  0.0  0.307503  0.400115  5.5e-05  0.940617  0.0
H  H21  1  0.88050285  0.51758357  0.59895494  1  0.445204  -4e-05  0.857375  0.0  0.408348  2.1e-05  0.929246  0.0  0.420376  1.1e-05  0.912198  0.0  0.307138  0.399633  5.6e-05  0.941512  0.0
H  H22  1  0.61942106  0.39795917  0.64010308  1  0.425503  -3e-05  0.855588  0.0  0.393514  -9e-06  0.931927  0.0  0.40616  -1e-05  0.917145  0.0  0.309122  0.384614  -1.1e-05  0.941455  0.0
H  H23  1  0.65753087  0.10227685  0.85971329  1  0.426235  -3.8e-05  0.855044  0.0  0.394252  -1.5e-05  0.931337  0.0  0.406836  -1.4e-05  0.916302  0.0  0.309671  0.385341  -1.1e-05  0.940982  0.0
H  H24  1  0.38057625  0.60204030  0.35989659  1  0.425528  -3.2e-05  0.855606  0.0  0.393545  -9e-06  0.931925  0.0  0.406189  -1e-05  0.91711  0.0  0.309131  0.384644  -1.1e-05  0.941456  0.0
H  H25  1  0.34247327  0.89772375  0.14028462  1  0.426274  -3.8e-05  0.855007  0.0  0.394293  -1.5e-05  0.931294  0.0  0.406875  -1.4e-05  0.916249  0.0  0.309686  0.385382  -1.1e-05  0.940942  0.0
C  C26  1  0.90713088  0.36543071  0.91006914  1  -0.056938  -0.013195  3.702999  -0.009  -0.031509  -0.002959  3.954584  -0.002  -0.030909  -0.004481  3.974103  -0.003  0.108221  -0.031856  -0.001795  3.941783  -0.001
C  C27  1  0.18269775  0.13474323  0.58971298  1  -0.054198  -0.013441  3.697754  -0.009  -0.030051  -0.00306  3.951165  -0.002  -0.029347  -0.004574  3.970441  -0.003  0.108806  -0.030584  -0.001797  3.938842  -0.001
C  C28  1  0.09286963  0.63456652  0.08993166  1  -0.056885  -0.01316  3.703132  -0.009  -0.031462  -0.002957  3.954718  -0.002  -0.030861  -0.00448  3.974238  -0.003  0.108226  -0.031808  -0.001796  3.941905  -0.001
C  C29  1  0.81730195  0.86525623  0.41028720  1  -0.054215  -0.013408  3.697765  -0.009  -0.030009  -0.003056  3.951105  -0.002  -0.029304  -0.004576  3.97038  -0.003  0.10882  -0.030546  -0.001797  3.938792  -0.001
C  C30  1  0.10690243  0.35455058  0.85192923  1  -0.0766  0.009253  3.66194  0.01  -0.110549  0.002675  3.907309  0.003  -0.112822  0.002672  3.925439  0.003  -0.063756  -0.109111  0.002745  3.895764  0.003
C  C31  1  0.31338773  0.14560852  0.64789019  1  -0.078315  0.009352  3.661031  0.01  -0.111567  0.002699  3.906708  0.003  -0.113843  0.00269  3.924898  0.003  -0.064301  -0.110392  0.002745  3.895322  0.003
C  C32  1  0.89309929  0.64544889  0.14807037  1  -0.076613  0.009224  3.661918  0.01  -0.110552  0.002675  3.907294  0.003  -0.112826  0.002672  3.925423  0.003  -0.063808  -0.109113  0.002745  3.895738  0.003
C  C33  1  0.68661158  0.85439206  0.35210968  1  -0.078265  0.009343  3.661014  0.01  -0.111527  0.002699  3.906677  0.003  -0.113804  0.002691  3.924867  0.003  -0.064279  -0.110348  0.002745  3.895287  0.003
C  C34  1  0.18051686  0.48016133  0.80851194  1  -0.001926  -0.014983  3.696809  -0.01  0.013947  -0.004589  3.935675  -0.003  0.011862  -0.005176  3.953307  -0.003  0.014161  0.014927  -0.004171  3.924307  -0.002
C  C35  1  0.46918275  0.01997824  0.69138031  1  -0.001593  -0.015039  3.695184  -0.01  0.014058  -0.004637  3.9346  -0.003  0.01197  -0.005212  3.952235  -0.003  0.014909  0.015188  -0.004176  3.92328  -0.002
C  C36  1  0.81948405  0.51983814  0.19148848  1  -0.001951  -0.01497  3.696916  -0.01  0.013907  -0.00459  3.935747  -0.003  0.011823  -0.005174  3.95338  -0.003  0.014168  0.014887  -0.004171  3.924376  -0.002
C  C37  1  0.53081494  0.98002122  0.30862043  1  -0.001548  -0.015009  3.695314  -0.01  0.01406  -0.004637  3.934706  -0.003  0.011971  -0.005214  3.952339  -0.003  0.014937  0.01519  -0.004176  3.923385  -0.002
C  C38  1  0.05279552  0.61178433  0.82566308  1  -0.080577  0.012054  3.64847  0.013  -0.110039  0.003842  3.904615  0.005  -0.11344  0.003511  3.922382  0.004  -0.062066  -0.107938  0.00415  3.893142  0.005
C  C39  1  0.49009924  0.88833541  0.67428936  1  -0.080329  0.011993  3.645455  0.013  -0.108671  0.003854  3.901058  0.005  -0.112042  0.003526  3.918788  0.004  -0.061408  -0.106826  0.004152  3.889923  0.005
C  C40  1  0.94720217  0.38821513  0.17433767  1  -0.080603  0.012045  3.64845  0.013  -0.110059  0.003842  3.904601  0.005  -0.113461  0.003511  3.922368  0.004  -0.062063  -0.10796  0.00415  3.893149  0.005
C  C41  1  0.50990004  0.11166403  0.32571271  1  -0.080338  0.011994  3.645427  0.013  -0.108655  0.003853  3.901069  0.005  -0.112028  0.003527  3.9188  0.004  -0.061399  -0.106808  0.004152  3.889937  0.005
C  C42  1  0.85479241  0.61541332  0.88242781  1  0.146257  -0.013121  3.636492  -0.009  0.117404  -0.002356  3.897395  -0.001  0.125843  -0.004129  3.91446  -0.003  0.057567  0.111905  -0.001016  3.885962  0.0
C  C43  1  0.35250901  0.88471444  0.61750582  1  0.143972  -0.012935  3.636932  -0.008  0.116033  -0.002285  3.896617  -0.001  0.124387  -0.004089  3.913751  -0.003  0.056422  0.110417  -0.001022  3.885445  0.0
C  C44  1  0.14520569  0.38458726  0.11757180  1  0.146346  -0.013102  3.636364  -0.009  0.117453  -0.002356  3.897338  -0.001  0.125893  -0.004128  3.914401  -0.003  0.057564  0.111937  -0.001016  3.88593  0.0
C  C45  1  0.64749109  0.11528501  0.38249543  1  0.144019  -0.012953  3.636901  -0.008  0.116032  -0.002285  3.896653  -0.001  0.124388  -0.004091  3.913784  -0.003  0.056401  0.110416  -0.001022  3.885486  0.0
C  C46  1  0.39467520  0.47797222  0.74922283  1  0.661795  -3.9e-05  3.795935  0.0  0.615442  -0.000396  4.091138  0.0  0.64968  -0.000343  4.079419  0.0  0.239796  0.592108  -0.000421  4.098663  0.0
C  C47  1  0.62198146  0.02219899  0.75061788  1  0.661024  -3e-06  3.795514  0.001  0.613412  -0.000372  4.092903  0.0  0.647697  -0.000335  4.081187  0.0  0.238928  0.589919  -0.000424  4.100694  0.0
C  C48  1  0.60532691  0.52202724  0.25077784  1  0.661821  -3.7e-05  3.795961  0.0  0.615551  -0.000396  4.091036  0.0  0.649784  -0.000344  4.07932  0.0  0.239824  0.592219  -0.00042  4.098563  0.0
C  C49  1  0.37802468  0.97780047  0.24938166  1  0.660989  -3.1e-05  3.79553  0.0  0.613498  -0.000372  4.092731  0.0  0.647788  -0.000334  4.081008  0.0  0.238979  0.590005  -0.000424  4.100527  0.0
N  N50  1  0.78430311  0.49489878  0.92339271  1  -0.279641  0.08115  3.377963  0.105  -0.24102  0.050868  3.667566  0.07  -0.269521  0.041101  3.691755  0.061  -0.338036  -0.2232  0.056928  3.652634  0.075
N  N51  1  0.20261015  0.00524120  0.57645539  1  -0.279623  0.081249  3.377131  0.105  -0.240794  0.050922  3.666782  0.07  -0.269314  0.041167  3.690936  0.061  -0.337918  -0.222916  0.056946  3.652162  0.075
N  N52  1  0.21569500  0.50510180  0.07660690  1  -0.279724  0.081137  3.378066  0.105  -0.241088  0.050865  3.667684  0.07  -0.269589  0.041098  3.691871  0.061  -0.33803  -0.223268  0.056927  3.652755  0.075
N  N53  1  0.79738956  0.99475827  0.42354478  1  -0.279621  0.081227  3.37709  0.105  -0.240818  0.050921  3.666768  0.07  -0.269338  0.041169  3.690921  0.061  -0.337922  -0.222942  0.056944  3.652158  0.075
O  O54  1  0.56909873  0.28557856  0.02285768  1  -0.785786  0.067459  2.024006  0.092  -0.739332  0.044901  2.324938  0.065  -0.777546  0.034399  2.307626  0.054  -0.372008  -0.712905  0.051973  2.336708  0.072
O  O55  1  0.87765512  0.21449388  0.47698123  1  -0.786017  0.067142  2.023065  0.092  -0.739298  0.044795  2.323451  0.065  -0.777443  0.034336  2.306131  0.054  -0.372172  -0.712574  0.051965  2.335472  0.072
O  O56  1  0.43090061  0.71442204  0.97713923  1  -0.785803  0.067456  2.024014  0.092  -0.739364  0.0449  2.32498  0.065  -0.777579  0.034399  2.307671  0.054  -0.372012  -0.712935  0.051975  2.33674  0.072
O  O57  1  0.12234660  0.78550559  0.52301838  1  -0.786042  0.067133  2.023134  0.092  -0.739315  0.04479  2.32352  0.065  -0.777456  0.034334  2.3062  0.054  -0.372182  -0.712594  0.051959  2.335546  0.072
O  O58  1  0.88846820  0.11194703  0.10177434  1  -0.734968  0.001885  2.051245  0.003  -0.663135  0.001465  2.281683  0.002  -0.68755  0.000824  2.260039  0.001  -0.374839  -0.645523  0.002107  2.296309  0.003
O  O59  1  0.10210381  0.38829930  0.39803271  1  -0.735991  0.002144  2.052823  0.003  -0.66381  0.001621  2.283037  0.003  -0.688355  0.000891  2.261505  0.002  -0.374918  -0.645905  0.002124  2.297746  0.003
O  O60  1  0.11152669  0.88805020  0.89822627  1  -0.734998  0.001888  2.051292  0.003  -0.663158  0.001465  2.281715  0.002  -0.687574  0.000824  2.26007  0.001  -0.374854  -0.645548  0.002107  2.29634  0.003
O  O61  1  0.89789430  0.61170128  0.60196690  1  -0.735949  0.002139  2.052812  0.003  -0.663773  0.001621  2.283002  0.003  -0.688317  0.000891  2.261472  0.002  -0.374894  -0.645866  0.002124  2.297706  0.003
O  O62  1  0.82784072  0.12272185  0.90244538  1  -0.812554  0.005575  1.997737  0.008  -0.730213  0.00335  2.230857  0.005  -0.756881  0.002049  2.210072  0.003  -0.348693  -0.711349  0.004615  2.244837  0.006
O  O63  1  0.85307797  0.37727066  0.59746952  1  -0.813353  0.005849  1.997097  0.008  -0.731081  0.003528  2.230564  0.005  -0.757881  0.002128  2.209765  0.003  -0.348652  -0.711672  0.004598  2.244248  0.006
O  O64  1  0.17216141  0.87727650  0.09755454  1  -0.812568  0.005569  1.99776  0.008  -0.73023  0.003349  2.230885  0.005  -0.756885  0.002048  2.210092  0.003  -0.348688  -0.71137  0.004615  2.244866  0.006
O  O65  1  0.14692014  0.62273216  0.40252865  1  -0.813364  0.005847  1.997161  0.008  -0.731066  0.003528  2.230631  0.005  -0.757866  0.002127  2.209829  0.003  -0.348642  -0.711635  0.004597  2.244288  0.006
O  O66  1  0.48829087  0.54007043  0.77329373  1  -0.55594  -0.002198  1.967201  -0.001  -0.526559  -0.001441  2.207869  0.0  -0.548965  -0.001716  2.197814  -0.001  -0.278872  -0.51117  -0.001162  2.21474  0.0
O  O67  1  0.80173393  0.96006782  0.72658570  1  -0.554937  -0.002269  1.966653  -0.001  -0.525164  -0.00147  2.207987  0.0  -0.547615  -0.001739  2.197969  -0.001  -0.278747  -0.509936  -0.001147  2.215261  0.0
O  O68  1  0.51171442  0.45993235  0.22670890  1  -0.555922  -0.002205  1.967212  -0.001  -0.526572  -0.001441  2.207851  0.0  -0.548973  -0.001717  2.197794  -0.001  -0.278891  -0.51118  -0.001162  2.21471  0.0
O  O69  1  0.19826093  0.03993274  0.27341719  1  -0.554974  -0.00223  1.966499  -0.001  -0.525247  -0.001469  2.207784  0.0  -0.547704  -0.001742  2.197769  -0.001  -0.278818  -0.510011  -0.001148  2.215047  0.0
O  O70  1  0.46800768  0.40652510  0.67036124  1  -0.538537  -0.000156  2.073496  0.0  -0.48507  -9.5e-05  2.283536  0.0  -0.506802  -0.000164  2.266619  0.0  -0.320061  -0.469809  2.3e-05  2.294095  0.0
O  O71  1  0.54497053  0.09378949  0.82937606  1  -0.539401  -0.000171  2.074281  0.0  -0.484946  -8.7e-05  2.284373  0.0  -0.506728  -0.000141  2.267316  0.0  -0.320247  -0.46986  2.4e-05  2.295373  0.0
O  O72  1  0.53199120  0.59347547  0.32964051  1  -0.538605  -0.000151  2.073506  0.0  -0.485176  -9.6e-05  2.283522  0.0  -0.506907  -0.000163  2.266577  0.0  -0.320092  -0.469919  2.3e-05  2.294084  0.0
O  O73  1  0.45502795  0.90621219  0.17062538  1  -0.539423  -0.000177  2.074317  0.0  -0.484998  -8.7e-05  2.284356  0.0  -0.50678  -0.000141  2.267287  0.0  -0.320258  -0.469912  2.4e-05  2.29536  0.0
