# generated using pymatgen
data_RbH5C6(ClO3)2
_symmetry_space_group_name_H-M   'P 1'
_cell_length_a   7.39010663
_cell_length_b   9.07670815
_cell_length_c   14.91951368
_cell_angle_alpha   95.38112782
_cell_angle_beta   89.99248866
_cell_angle_gamma   89.99876435
_symmetry_Int_Tables_number   1
_chemical_formula_structural   RbH5C6(ClO3)2
_chemical_formula_sum   'Rb4 H20 C24 Cl8 O24'
_cell_volume   996.35827750
_cell_formula_units_Z   4
loop_
 _symmetry_equiv_pos_site_id
 _symmetry_equiv_pos_as_xyz
  1  'x, y, z'
loop_
 _atom_site_type_symbol
 _atom_site_label
 _atom_site_symmetry_multiplicity
 _atom_site_fract_x
 _atom_site_fract_y
 _atom_site_fract_z
 _atom_site_occupancy
 _atom_site_hle17_bader_spin_density
 _atom_site_hle17_ddec_charge
 _atom_site_hle17_ddec_spin_density
 _atom_site_hle17_ddec_sum_bond_order
 _atom_site_hle17_magmom
 _atom_site_hse06_10hf_bader_spin_density
 _atom_site_hse06_10hf_ddec_charge
 _atom_site_hse06_10hf_ddec_spin_density
 _atom_site_hse06_10hf_ddec_sum_bond_order
 _atom_site_hse06_10hf_magmom
 _atom_site_hse06_bader_spin_density
 _atom_site_hse06_ddec_charge
 _atom_site_hse06_ddec_spin_density
 _atom_site_hse06_ddec_sum_bond_order
 _atom_site_hse06_magmom
 _atom_site_pbe_bader_spin_density
 _atom_site_pbe_cm5_charge
 _atom_site_pbe_ddec_charge
 _atom_site_pbe_ddec_spin_density
 _atom_site_pbe_ddec_sum_bond_order
 _atom_site_pbe_magmom
Rb  Rb0  1  0.05988845  0.48020468  0.65840222  1  0  0.92342  0  0.453001  0  0  0.849692  0  0.666609  0  0  0.866657  0  0.643023  0  0  0.646762  0.837113  0  0.683477  0
Rb  Rb1  1  0.55991793  0.01978389  0.84158857  1  0  0.923381  0  0.453058  0  0  0.849642  0  0.666671  0  0  0.866606  0  0.643076  0  0  0.646761  0.83706  0  0.683543  0
Rb  Rb2  1  0.94010336  0.51978337  0.34159786  1  0  0.923363  0  0.453048  0  0  0.849643  0  0.666671  0  0  0.866606  0  0.643078  0  0  0.646739  0.83707  0  0.683543  0
Rb  Rb3  1  0.44010365  0.98021404  0.15840797  1  0  0.923352  0  0.453098  0  0  0.849611  0  0.666733  0  0  0.866578  0  0.643134  0  0  0.646776  0.837041  0  0.683607  0
H  H4  1  0.53468057  0.44446200  0.65846873  1  0  0.468831  0  0.821017  0  0  0.433627  0  0.886959  0  0  0.446114  0  0.869251  0  0  0.304046  0.424897  0  0.899321  0
H  H5  1  0.03470975  0.05552142  0.84151814  1  0  0.468927  0  0.820842  0  0  0.433726  0  0.886784  0  0  0.446216  0  0.869072  0  0  0.304053  0.424995  0  0.89915  0
H  H6  1  0.46530447  0.55553712  0.34153190  1  0  0.468845  0  0.820995  0  0  0.433637  0  0.886947  0  0  0.446125  0  0.869237  0  0  0.304002  0.424905  0  0.899312  0
H  H7  1  0.96531453  0.94447108  0.15848283  1  0  0.468877  0  0.820915  0  0  0.433663  0  0.886878  0  0  0.446151  0  0.869169  0  0  0.303982  0.424932  0  0.899243  0
H  H8  1  0.45396431  0.38626586  0.76167298  1  0  0.439559  0  0.859709  0  0  0.402087  0  0.932249  0  0  0.415536  0  0.912945  0  0  0.300392  0.392666  0  0.945738  0
H  H9  1  0.95396195  0.11371683  0.73832301  1  0  0.439629  0  0.859555  0  0  0.402072  0  0.932229  0  0  0.41552  0  0.912927  0  0  0.300351  0.392654  0  0.945716  0
H  H10  1  0.54603832  0.61372993  0.23832682  1  0  0.439576  0  0.859697  0  0  0.402055  0  0.932301  0  0  0.415504  0  0.912998  0  0  0.300329  0.392637  0  0.945788  0
H  H11  1  0.04603798  0.88627460  0.26167992  1  0  0.439561  0  0.859618  0  0  0.401992  0  0.93235  0  0  0.41544  0  0.913049  0  0  0.300309  0.392574  0  0.945836  0
H  H12  1  0.71956203  0.43441578  0.56020327  1  0  0.421398  0  0.884371  0  0  0.393974  0  0.942135  0  0  0.40376  0  0.927827  0  0  0.295331  0.387113  0  0.952156  0
H  H13  1  0.21955232  0.06558202  0.93978486  1  0  0.421533  0  0.884172  0  0  0.39412  0  0.941916  0  0  0.403906  0  0.927608  0  0  0.29539  0.387257  0  0.95194  0
H  H14  1  0.28042977  0.56558553  0.43979613  1  0  0.4213  0  0.884494  0  0  0.393873  0  0.942266  0  0  0.403661  0  0.927955  0  0  0.295257  0.387015  0  0.952284  0
H  H15  1  0.78047332  0.93441263  0.06021353  1  0  0.421455  0  0.884307  0  0  0.394002  0  0.942111  0  0  0.403805  0  0.927784  0  0  0.295278  0.38713  0  0.952143  0
H  H16  1  0.65589603  0.60202539  0.57315600  1  0  0.430975  0  0.869592  0  0  0.393741  0  0.943771  0  0  0.40535  0  0.926651  0  0  0.290763  0.385515  0  0.955882  0
H  H17  1  0.15591758  0.89797044  0.92683495  1  0  0.430927  0  0.869649  0  0  0.393776  0  0.943763  0  0  0.40538  0  0.92665  0  0  0.29073  0.385546  0  0.955883  0
H  H18  1  0.34408766  0.39797256  0.42684122  1  0  0.430904  0  0.869682  0  0  0.393737  0  0.943801  0  0  0.405345  0  0.926683  0  0  0.290718  0.385512  0  0.955911  0
H  H19  1  0.84410670  0.10202424  0.07316479  1  0  0.43092  0  0.869636  0  0  0.393792  0  0.943708  0  0  0.4054  0  0.926589  0  0  0.29077  0.385561  0  0.955826  0
H  H20  1  0.56741215  0.72996982  0.33509940  1  0  0.437458  0  0.867678  0  0  0.400073  0  0.940199  0  0  0.413898  0  0.920803  0  0  0.300452  0.39042  0  0.953708  0
H  H21  1  0.06739154  0.77002978  0.16490154  1  0  0.437601  0  0.867512  0  0  0.400253  0  0.939939  0  0  0.414076  0  0.920544  0  0  0.300548  0.390602  0  0.953448  0
H  H22  1  0.43256342  0.27002813  0.66489782  1  0  0.437446  0  0.867705  0  0  0.400062  0  0.940234  0  0  0.413887  0  0.920839  0  0  0.300461  0.390407  0  0.953746  0
H  H23  1  0.93264086  0.22996607  0.83510161  1  0  0.43749  0  0.86764  0  0  0.400142  0  0.940083  0  0  0.413964  0  0.92069  0  0  0.30053  0.39049  0  0.953592  0
C  C24  1  0.70686348  0.10161680  0.42343171  1  0  -0.150652  0  3.787726  0  0  -0.152293  0  4.078771  0  0  -0.169859  0  4.103844  0  0  -0.041382  -0.140797  0  4.061919  0
C  C25  1  0.20683146  0.39837336  0.07656144  1  0  -0.150803  0  3.78804  0  0  -0.152518  0  4.079004  0  0  -0.170091  0  4.104042  0  0  -0.041454  -0.141043  0  4.062142  0
C  C26  1  0.29309721  0.89838888  0.57656522  1  0  -0.150865  0  3.787924  0  0  -0.152432  0  4.078648  0  0  -0.169949  0  4.10371  0  0  -0.041357  -0.140938  0  4.061815  0
C  C27  1  0.79321311  0.60161918  0.92344154  1  0  -0.150812  0  3.787663  0  0  -0.15255  0  4.078949  0  0  -0.170121  0  4.103998  0  0  -0.041506  -0.141076  0  4.062084  0
C  C28  1  0.80410742  0.17528101  0.49586844  1  0  0.312313  0  3.826552  0  0  0.288808  0  4.100259  0  0  0.310937  0  4.104706  0  0  0.115346  0.274046  0  4.09681  0
C  C29  1  0.30412058  0.32472626  0.00412830  1  0  0.311941  0  3.827311  0  0  0.288745  0  4.100606  0  0  0.310864  0  4.105052  0  0  0.115227  0.274009  0  4.097132  0
C  C30  1  0.19585597  0.82472481  0.50413519  1  0  0.312349  0  3.826636  0  0  0.288789  0  4.100368  0  0  0.31091  0  4.104816  0  0  0.115171  0.273997  0  4.096972  0
C  C31  1  0.69590776  0.67528172  0.99587343  1  0  0.312497  0  3.826405  0  0  0.288897  0  4.10034  0  0  0.31102  0  4.104785  0  0  0.11541  0.27416  0  4.096862  0
C  C32  1  0.66372764  0.95084516  0.41702652  1  0  0.295774  0  3.81656  0  0  0.267922  0  4.100008  0  0  0.288754  0  4.107382  0  0  0.11148  0.253828  0  4.094751  0
C  C33  1  0.16370115  0.54916034  0.08296946  1  0  0.296016  0  3.816628  0  0  0.268104  0  4.100008  0  0  0.289034  0  4.107316  0  0  0.111723  0.254045  0  4.094697  0
C  C34  1  0.33623304  0.04917598  0.58296983  1  0  0.295788  0  3.817084  0  0  0.268087  0  4.100174  0  0  0.288864  0  4.107697  0  0  0.11156  0.254006  0  4.0949  0
C  C35  1  0.83633125  0.45084099  0.91703127  1  0  0.29604  0  3.816656  0  0  0.26821  0  4.100022  0  0  0.289094  0  4.107333  0  0  0.111648  0.254154  0  4.094714  0
C  C36  1  0.80731499  0.93716658  0.56977787  1  0  -0.167835  0  3.803481  0  0  -0.168994  0  4.095839  0  0  -0.187657  0  4.122306  0  0  -0.045178  -0.156728  0  4.077821  0
C  C37  1  0.30741170  0.56284571  0.93023188  1  0  -0.167616  0  3.803195  0  0  -0.168779  0  4.095481  0  0  -0.187418  0  4.122053  0  0  -0.045158  -0.156498  0  4.077451  0
C  C38  1  0.19263351  0.06284139  0.43022319  1  0  -0.167838  0  3.803658  0  0  -0.168993  0  4.095841  0  0  -0.187611  0  4.122327  0  0  -0.045216  -0.156728  0  4.077838  0
C  C39  1  0.69261258  0.43715675  0.06976958  1  0  -0.167759  0  3.803448  0  0  -0.168863  0  4.095676  0  0  -0.187503  0  4.122153  0  0  -0.045122  -0.156608  0  4.077696  0
C  C40  1  0.71449212  0.86194662  0.49589277  1  0  0.299224  0  3.843407  0  0  0.27375  0  4.123877  0  0  0.295059  0  4.130469  0  0  0.115452  0.259648  0  4.118821  0
C  C41  1  0.21453331  0.63806592  0.00411357  1  0  0.298921  0  3.843825  0  0  0.273703  0  4.123975  0  0  0.294845  0  4.130777  0  0  0.115511  0.259591  0  4.11891  0
C  C42  1  0.28546451  0.13805914  0.50410819  1  0  0.29897  0  3.843742  0  0  0.273697  0  4.123871  0  0  0.294901  0  4.130667  0  0  0.115473  0.25959  0  4.118813  0
C  C43  1  0.78549909  0.36193654  0.99588789  1  0  0.298842  0  3.843844  0  0  0.273515  0  4.124144  0  0  0.29475  0  4.130825  0  0  0.11536  0.259404  0  4.119072  0
C  C44  1  0.85589755  0.08715649  0.57490628  1  0  0.285747  0  3.850689  0  0  0.260487  0  4.129301  0  0  0.280772  0  4.137871  0  0  0.106297  0.246913  0  4.123114  0
C  C45  1  0.35596794  0.41284578  0.92509599  1  0  0.286104  0  3.850385  0  0  0.260626  0  4.129131  0  0  0.280917  0  4.137683  0  0  0.106502  0.247036  0  4.122942  0
C  C46  1  0.14405637  0.91284817  0.42509530  1  0  0.285877  0  3.850454  0  0  0.260585  0  4.129037  0  0  0.280874  0  4.1376  0  0  0.106352  0.247016  0  4.122853  0
C  C47  1  0.64405634  0.58715124  0.07490990  1  0  0.285849  0  3.850516  0  0  0.260514  0  4.129263  0  0  0.280802  0  4.13783  0  0  0.10631  0.246931  0  4.123069  0
Cl  Cl48  1  0.85556871  0.83914714  0.66045130  1  0  -0.103622  0  1.639556  0  0  -0.085049  0  1.926181  0  0  -0.086801  0  1.923726  0  0  0.001024  -0.083697  0  1.928106  0
Cl  Cl49  1  0.35576145  0.66087212  0.83956354  1  0  -0.103642  0  1.639303  0  0  -0.085059  0  1.925961  0  0  -0.086803  0  1.9235  0  0  0.000998  -0.083706  0  1.927882  0
Cl  Cl50  1  0.14438250  0.16084638  0.33954570  1  0  -0.103528  0  1.639619  0  0  -0.085003  0  1.926315  0  0  -0.086754  0  1.923852  0  0  0.001036  -0.083651  0  1.928244  0
Cl  Cl51  1  0.64426283  0.33913248  0.16043467  1  0  -0.103518  0  1.639346  0  0  -0.084953  0  1.926013  0  0  -0.086709  0  1.923553  0  0  0.001091  -0.083593  0  1.927943  0
Cl  Cl52  1  0.64153863  0.20495634  0.33776845  1  0  -0.101454  0  1.596537  0  0  -0.084577  0  1.877737  0  0  -0.0858  0  1.874003  0  0  -0.00821  -0.083516  0  1.880539  0
Cl  Cl53  1  0.14142342  0.29503354  0.16220789  1  0  -0.101242  0  1.596629  0  0  -0.084342  0  1.877797  0  0  -0.085573  0  1.874063  0  0  -0.008079  -0.083275  0  1.880603  0
Cl  Cl54  1  0.35842882  0.79505829  0.66223361  1  0  -0.101355  0  1.596596  0  0  -0.084515  0  1.877701  0  0  -0.085742  0  1.873949  0  0  -0.0082  -0.083453  0  1.880503  0
Cl  Cl55  1  0.85861439  0.70496667  0.83779212  1  0  -0.101359  0  1.596591  0  0  -0.08439  0  1.877729  0  0  -0.085612  0  1.873993  0  0  -0.008116  -0.083327  0  1.880534  0
O  O56  1  0.93912410  0.15737746  0.64020402  1  0  -0.5359  0  2.035937  0  0  -0.481429  0  2.255604  0  0  -0.503802  0  2.250742  0  0  -0.32844  -0.466019  0  2.258617  0
O  O57  1  0.43921125  0.34262642  0.85978824  1  0  -0.53598  0  2.035861  0  0  -0.481532  0  2.255567  0  0  -0.50388  0  2.250653  0  0  -0.328548  -0.466136  0  2.258624  0
O  O58  1  0.06084064  0.84261840  0.35979912  1  0  -0.535757  0  2.036036  0  0  -0.481359  0  2.255668  0  0  -0.503736  0  2.250819  0  0  -0.328331  -0.465948  0  2.258679  0
O  O59  1  0.56082386  0.65738046  0.14021344  1  0  -0.535859  0  2.03606  0  0  -0.481395  0  2.255712  0  0  -0.50375  0  2.250802  0  0  -0.328425  -0.466  0  2.258769  0
O  O60  1  0.84808210  0.31027661  0.49987763  1  0  -0.56482  0  2.049813  0  0  -0.516776  0  2.273243  0  0  -0.535319  0  2.266818  0  0  -0.345678  -0.503875  0  2.277372  0
O  O61  1  0.34808644  0.18972525  0.00010970  1  0  -0.564788  0  2.05002  0  0  -0.516831  0  2.273237  0  0  -0.535372  0  2.266809  0  0  -0.345682  -0.503932  0  2.277356  0
O  O62  1  0.15189753  0.68972481  0.50012713  1  0  -0.564823  0  2.049847  0  0  -0.516861  0  2.273317  0  0  -0.535409  0  2.2669  0  0  -0.345647  -0.503946  0  2.277463  0
O  O63  1  0.65192837  0.81027713  0.99988841  1  0  -0.564931  0  2.049918  0  0  -0.51684  0  2.273354  0  0  -0.535388  0  2.266933  0  0  -0.345698  -0.503943  0  2.27747  0
O  O64  1  0.58042691  0.88506821  0.34995398  1  0  -0.52612  0  2.062716  0  0  -0.474735  0  2.284773  0  0  -0.497194  0  2.278836  0  0  -0.3132  -0.459221  0  2.288519  0
O  O65  1  0.08035746  0.61493656  0.15004065  1  0  -0.526344  0  2.062979  0  0  -0.474996  0  2.285111  0  0  -0.497445  0  2.279079  0  0  -0.313457  -0.459503  0  2.288864  0
O  O66  1  0.41954325  0.11494408  0.65004194  1  0  -0.526109  0  2.063208  0  0  -0.474796  0  2.285256  0  0  -0.497206  0  2.279322  0  0  -0.313144  -0.459284  0  2.288993  0
O  O67  1  0.91968441  0.38506601  0.84996617  1  0  -0.526436  0  2.062944  0  0  -0.475004  0  2.284951  0  0  -0.497486  0  2.279014  0  0  -0.313399  -0.459496  0  2.288673  0
O  O68  1  0.66923227  0.72776711  0.48999674  1  0  -0.49933  0  1.999136  0  0  -0.450779  0  2.218677  0  0  -0.469893  0  2.213897  0  0  -0.288651  -0.437448  0  2.221631  0
O  O69  1  0.16926672  0.77224171  0.01000388  1  0  -0.499175  0  1.999265  0  0  -0.450775  0  2.218858  0  0  -0.469833  0  2.214161  0  0  -0.288721  -0.437442  0  2.221821  0
O  O70  1  0.33073654  0.27223176  0.50999181  1  0  -0.499278  0  1.999288  0  0  -0.450745  0  2.218763  0  0  -0.469813  0  2.214037  0  0  -0.288701  -0.437411  0  2.221722  0
O  O71  1  0.83075214  0.22775524  0.98999865  1  0  -0.499172  0  1.999302  0  0  -0.450706  0  2.218877  0  0  -0.469796  0  2.214131  0  0  -0.288634  -0.437369  0  2.221834  0
O  O72  1  0.67108492  0.51161933  0.60568594  1  0  -0.855163  0  1.895229  0  0  -0.800346  0  2.063104  0  0  -0.820065  0  2.03135  0  0  -0.617909  -0.786454  0  2.085171  0
O  O73  1  0.17110714  0.98837509  0.89430365  1  0  -0.855217  0  1.895269  0  0  -0.800492  0  2.062889  0  0  -0.820229  0  2.03117  0  0  -0.617919  -0.786587  0  2.084976  0
O  O74  1  0.32890418  0.48837976  0.39431335  1  0  -0.854984  0  1.895381  0  0  -0.800243  0  2.063089  0  0  -0.819957  0  2.031328  0  0  -0.617799  -0.786363  0  2.085179  0
O  O75  1  0.82891985  0.01161956  0.10569474  1  0  -0.855108  0  1.895353  0  0  -0.800378  0  2.063053  0  0  -0.820111  0  2.031249  0  0  -0.617831  -0.786485  0  2.085182  0
O  O76  1  0.43911244  0.38372044  0.69284279  1  0  -0.809901  0  2.048627  0  0  -0.749272  0  2.234222  0  0  -0.770547  0  2.19529  0  0  -0.598836  -0.734492  0  2.261171  0
O  O77  1  0.93914713  0.11627365  0.80715704  1  0  -0.809956  0  2.04847  0  0  -0.749285  0  2.234181  0  0  -0.770547  0  2.195252  0  0  -0.598738  -0.734512  0  2.26113  0
O  O78  1  0.56087395  0.61628093  0.30715996  1  0  -0.809941  0  2.048677  0  0  -0.749269  0  2.234321  0  0  -0.770546  0  2.195386  0  0  -0.598667  -0.734483  0  2.261267  0
O  O79  1  0.06087309  0.88372219  0.19284544  1  0  -0.80999  0  2.04852  0  0  -0.749284  0  2.234243  0  0  -0.770555  0  2.195311  0  0  -0.598664  -0.734504  0  2.261188  0
