# generated using pymatgen
data_AlH15(C8O3)3
_symmetry_space_group_name_H-M   'P 1'
_cell_length_a   3.98865185
_cell_length_b   28.63979237
_cell_length_c   28.63952680
_cell_angle_alpha   120.00036682
_cell_angle_beta   90.00048883
_cell_angle_gamma   90.00043172
_symmetry_Int_Tables_number   1
_chemical_formula_structural   AlH15(C8O3)3
_chemical_formula_sum   'Al2 H30 C48 O18'
_cell_volume   2833.28889683
_cell_formula_units_Z   2
loop_
 _symmetry_equiv_pos_site_id
 _symmetry_equiv_pos_as_xyz
  1  'x, y, z'
loop_
 _atom_site_type_symbol
 _atom_site_label
 _atom_site_symmetry_multiplicity
 _atom_site_fract_x
 _atom_site_fract_y
 _atom_site_fract_z
 _atom_site_occupancy
 _atom_site_pbe_bader_charge
 _atom_site_pbe_bader_spin_density
 _atom_site_pbe_cm5_charge
 _atom_site_pbe_ddec_charge
 _atom_site_pbe_ddec_spin_density
 _atom_site_pbe_ddec_sum_bond_order
 _atom_site_pbe_magmom
Al  Al0  1  0.99375549  0.49999878  0.49999993  1  2.506865  0  0.424747  1.595106  0  2.575876  0
Al  Al1  1  0.99374356  0.16666724  0.83332998  1  2.506656  0  0.42469  1.594953  0  2.576298  0
H  H2  1  0.19127112  0.18858538  0.70134524  1  0.090927  0  0.108649  0.112513  0  0.987742  0
H  H3  1  0.21067880  0.24238676  0.65517857  1  0.097972  0  0.103602  0.111218  0  1.006019  0
H  H4  1  0.80367589  0.36288137  0.78652080  1  0.02727  0  0.093504  0.084264  0  1.032423  0
H  H5  1  0.79961660  0.30665951  0.82995773  1  0.074249  0  0.108171  0.11358  0  0.988245  0
H  H6  1  0.80363956  0.30379078  0.54681400  1  0.027012  0  0.093555  0.084314  0  1.032335  0
H  H7  1  0.21072466  0.42429625  0.67816015  1  0.104498  0  0.103638  0.111275  0  1.006064  0
H  H8  1  0.19130470  0.47808611  0.63198398  1  0.090746  0  0.108607  0.112504  0  0.987863  0
H  H9  1  0.79955826  0.36000348  0.50337154  1  0.074266  0  0.108148  0.113491  0  0.988261  0
H  H10  1  0.19126698  0.01276126  0.81141458  1  0.076095  0  0.108651  0.11248  0  0.987743  0
H  H11  1  0.21069048  0.91279472  0.75761611  1  0.100846  0  0.103621  0.111274  0  1.006018  0
H  H12  1  0.80367704  0.92363986  0.63712252  1  0.063133  0  0.093519  0.084302  0  1.03249  0
H  H13  1  0.79959714  0.02329834  0.69334087  1  0.099675  0  0.108189  0.113556  0  0.988249  0
H  H14  1  0.80366875  0.74302558  0.69621666  1  0.062716  0  0.093556  0.084316  0  1.032317  0
H  H15  1  0.21070824  0.75386663  0.57570843  1  0.100765  0  0.103695  0.111323  0  1.005927  0
H  H16  1  0.19129630  0.65389829  0.52191681  1  0.076337  0  0.108561  0.11245  0  0.987783  0
H  H17  1  0.79957521  0.64337235  0.64000094  1  0.10009  0  0.108174  0.113515  0  0.988088  0
H  H18  1  0.19129018  0.29865603  0.98723493  1  0.079216  0  0.108637  0.112532  0  0.987734  0
H  H19  1  0.21068738  0.34481893  0.08720135  1  0.106359  0  0.103651  0.111341  0  1.005999  0
H  H20  1  0.80367574  0.21348116  0.07635682  1  0.037832  0  0.093537  0.08433  0  1.032336  0
H  H21  1  0.79962467  0.17004393  0.97669902  1  0.124771  0  0.108143  0.113535  0  0.988347  0
H  H22  1  0.80367022  0.45318987  0.25697613  1  0.03782  0  0.093494  0.084222  0  1.032351  0
H  H23  1  0.21070900  0.32184143  0.24613053  1  0.106052  0  0.103683  0.111317  0  1.006032  0
H  H24  1  0.19132073  0.36801464  0.34609789  1  0.074342  0  0.108555  0.112476  0  0.987779  0
H  H25  1  0.79959531  0.49662690  0.35662800  1  0.124132  0  0.108143  0.113437  0  0.988142  0
H  H26  1  0.44880958  0.40426771  0.76322555  1  0.58996  0  0.326736  0.351799  0  0.895764  0
H  H27  1  0.44889517  0.26240658  0.57011738  1  0.591743  0  0.326681  0.351698  0  0.895975  0
H  H28  1  0.44883733  0.85895695  0.59573388  1  0.586951  0  0.326681  0.351702  0  0.895885  0
H  H29  1  0.44890028  0.80771592  0.73759978  1  0.587376  0  0.326738  0.351701  0  0.895912  0
H  H30  1  0.44881906  0.23677493  0.14103904  1  0.595917  0  0.326714  0.351799  0  0.895804  0
H  H31  1  0.44888863  0.42988119  0.19228419  1  0.596923  0  0.326697  0.351624  0  0.896165  0
C  C32  1  0.49341750  0.46193076  0.41715858  1  1.535048  0  0.272149  0.646603  0  4.071206  0
C  C33  1  0.49341839  0.45522888  0.53806685  1  1.558564  0  0.27204  0.646394  0  4.071594  0
C  C34  1  0.49342967  0.58284054  0.54477484  1  1.591687  0  0.272128  0.64666  0  4.071456  0
C  C35  1  0.49340168  0.21143971  0.79526313  1  1.557911  0  0.271972  0.646315  0  4.07131  0
C  C36  1  0.49340295  0.08382728  0.78855800  1  1.59126  0  0.271916  0.646113  0  4.071551  0
C  C37  1  0.49340007  0.20473533  0.91616971  1  1.535122  0  0.272134  0.64666  0  4.071497  0
C  C38  1  0.49555039  0.24425795  0.76835366  1  -0.017321  0  -0.011944  -0.043991  0  3.965297  0
C  C39  1  0.32969039  0.22645443  0.71903523  1  -0.037969  0  -0.078165  -0.082287  0  3.967625  0
C  C40  1  0.34016519  0.25663960  0.69336082  1  -0.004849  0  -0.084253  -0.104439  0  3.946925  0
C  C41  1  0.50771764  0.30678645  0.71740674  1  0.009555  0  -0.013615  0.036817  0  4.032549  0
C  C42  1  0.66506353  0.32496242  0.76777940  1  -0.083534  0  -0.103281  -0.157858  0  4.034479  0
C  C43  1  0.66527148  0.29367643  0.79232557  1  0.006934  0  -0.081629  -0.078636  0  3.990219  0
C  C44  1  0.51236609  0.34158944  0.69356780  1  0.544592  0  0.058092  0.121352  0  4.026353  0
C  C45  1  0.51239412  0.32509011  0.63977435  1  0.45148  0  0.058134  0.121384  0  4.026479  0
C  C46  1  0.66502792  0.34171012  0.56555577  1  -0.083035  0  -0.103307  -0.157867  0  4.034539  0
C  C47  1  0.50769104  0.35988470  0.61592702  1  0.010492  0  -0.013606  0.036967  0  4.032874  0
C  C48  1  0.34017038  0.41003268  0.63997525  1  -0.011344  0  -0.084329  -0.104662  0  3.947074  0
C  C49  1  0.32974338  0.44021999  0.61429935  1  -0.038686  0  -0.078078  -0.08212  0  3.967152  0
C  C50  1  0.49556687  0.42241119  0.56497647  1  -0.017322  0  -0.011981  -0.0442  0  3.965246  0
C  C51  1  0.66525370  0.37299266  0.54100816  1  0.006263  0  -0.081671  -0.078595  0  3.990395  0
C  C52  1  0.49556395  0.02409825  0.75574307  1  -0.099797  0  -0.011976  -0.043975  0  3.965207  0
C  C53  1  0.32971334  0.99258364  0.77354781  1  -0.040435  0  -0.078128  -0.082229  0  3.967414  0
C  C54  1  0.34018560  0.93672284  0.74336337  1  -0.013316  0  -0.08428  -0.104496  0  3.947037  0
C  C55  1  0.50773875  0.91062434  0.69321768  1  0.002925  0  -0.013701  0.036805  0  4.032617  0
C  C56  1  0.66507798  0.94281996  0.67504105  1  -0.084448  0  -0.103199  -0.157874  0  4.034603  0
C  C57  1  0.66527101  0.99865074  0.70632399  1  0.045449  0  -0.081711  -0.078632  0  3.990292  0
C  C58  1  0.51238929  0.85197984  0.65841665  1  0.520061  0  0.05819  0.121427  0  4.026126  0
C  C59  1  0.51241130  0.81468705  0.67491628  1  0.430117  0  0.058253  0.12158  0  4.026711  0
C  C60  1  0.66506136  0.72384996  0.65829373  1  -0.084108  0  -0.103313  -0.15792  0  4.034387  0
C  C61  1  0.50773037  0.75604778  0.64012048  1  0.001209  0  -0.013679  0.036811  0  4.03269  0
C  C62  1  0.34018783  0.72994556  0.58997146  1  -0.011621  0  -0.084344  -0.104606  0  3.946725  0
C  C63  1  0.32974326  0.67408285  0.55978470  1  -0.040106  0  -0.078008  -0.082121  0  3.967275  0
C  C64  1  0.49558341  0.64256632  0.57758814  1  -0.10049  0  -0.012076  -0.044183  0  3.965481  0
C  C65  1  0.66526196  0.66801819  0.62700899  1  0.045498  0  -0.081648  -0.078584  0  3.990107  0
C  C66  1  0.49555118  0.23164470  0.97589833  1  -0.020609  0  -0.012143  -0.044295  0  3.965387  0
C  C67  1  0.32973850  0.28096580  0.00741243  1  0.074849  0  -0.078024  -0.082092  0  3.96719  0
C  C68  1  0.34020305  0.30664043  0.06327513  1  -0.094803  0  -0.08433  -0.104651  0  3.947186  0
C  C69  1  0.50774097  0.28259475  0.08937477  1  -0.089132  0  -0.013727  0.03675  0  4.032929  0
C  C70  1  0.66509002  0.23222338  0.05717818  1  -0.12937  0  -0.10318  -0.157787  0  4.034405  0
C  C71  1  0.66528575  0.20767469  0.00134599  1  0.062807  0  -0.081664  -0.078633  0  3.99037  0
C  C72  1  0.51237902  0.30643406  0.14801698  1  0.565553  0  0.058128  0.121314  0  4.026686  0
C  C73  1  0.51241673  0.36022603  0.18531024  1  0.484533  0  0.058242  0.121607  0  4.026639  0
C  C74  1  0.66505200  0.43444336  0.27615005  1  -0.129385  0  -0.103262  -0.157742  0  4.034267  0
C  C75  1  0.50772331  0.38407071  0.24395055  1  -0.08926  0  -0.013647  0.036782  0  4.032657  0
C  C76  1  0.34019061  0.36002409  0.27005246  1  -0.094864  0  -0.084416  -0.104695  0  3.946938  0
C  C77  1  0.32974835  0.38569986  0.32591468  1  0.080121  0  -0.07792  -0.082042  0  3.967365  0
C  C78  1  0.49556859  0.43502129  0.35743147  1  -0.020834  0  -0.012096  -0.044297  0  3.965476  0
C  C79  1  0.66524488  0.45899225  0.33198205  1  0.063783  0  -0.081576  -0.078444  0  3.990079  0
O  O80  1  0.72785680  0.55762014  0.55337288  1  -1.263292  0  -0.240584  -0.601564  0  2.373314  0
O  O81  1  0.72785179  0.49574857  0.44237995  1  -1.257334  0  -0.240628  -0.601566  0  2.373264  0
O  O82  1  0.72783972  0.44663048  0.50424651  1  -1.263675  0  -0.240567  -0.601415  0  2.373362  0
O  O83  1  0.25828591  0.56042698  0.51026847  1  -1.26409  0  -0.23962  -0.597141  0  2.36039  0
O  O84  1  0.25827008  0.48973415  0.55016221  1  -1.265052  0  -0.239529  -0.597003  0  2.360448  0
O  O85  1  0.25827322  0.44983561  0.43956934  1  -1.265178  0  -0.239647  -0.597108  0  2.360365  0
O  O86  1  0.72784100  0.17091751  0.89095079  1  -1.257921  0  -0.240617  -0.60152  0  2.373309  0
O  O87  1  0.72786310  0.22003865  0.82907840  1  -1.264035  0  -0.240591  -0.601417  0  2.373293  0
O  O88  1  0.72784602  0.10904385  0.77995576  1  -1.26318  0  -0.240597  -0.601362  0  2.373339  0
O  O89  1  0.25825763  0.21682877  0.89375680  1  -1.264772  0  -0.239517  -0.597134  0  2.360549  0
O  O90  1  0.25825747  0.10624157  0.82306467  1  -1.263662  0  -0.239441  -0.596889  0  2.360469  0
O  O91  1  0.25826327  0.17693235  0.78317089  1  -1.26471  0  -0.239507  -0.596995  0  2.360535  0
O  O92  1  0.55257775  0.39634304  0.72921652  1  -1.115363  0  -0.359316  -0.44387  0  2.310144  0
O  O93  1  0.55262569  0.27033241  0.60412921  1  -1.117407  0  -0.359277  -0.44384  0  2.310353  0
O  O94  1  0.55258869  0.83287074  0.60365760  1  -1.112204  0  -0.359326  -0.443876  0  2.310175  0
O  O95  1  0.55262003  0.83380071  0.72967305  1  -1.112593  0  -0.359413  -0.443927  0  2.310526  0
O  O96  1  0.55258015  0.27078544  0.16712401  1  -1.12142  0  -0.359306  -0.443876  0  2.310302  0
O  O97  1  0.55261870  0.39587040  0.16619856  1  -1.1228  0  -0.359353  -0.443832  0  2.310713  0
