# generated using pymatgen
data_BaH14(C2O)8
_symmetry_space_group_name_H-M   'P 1'
_cell_length_a   8.36557402
_cell_length_b   10.58655916
_cell_length_c   10.58672250
_cell_angle_alpha   66.72966295
_cell_angle_beta   83.24038372
_cell_angle_gamma   83.24135286
_symmetry_Int_Tables_number   1
_chemical_formula_structural   BaH14(C2O)8
_chemical_formula_sum   'Ba2 H28 C32 O16'
_cell_volume   852.72103744
_cell_formula_units_Z   2
loop_
 _symmetry_equiv_pos_site_id
 _symmetry_equiv_pos_as_xyz
  1  'x, y, z'
loop_
 _atom_site_type_symbol
 _atom_site_label
 _atom_site_symmetry_multiplicity
 _atom_site_fract_x
 _atom_site_fract_y
 _atom_site_fract_z
 _atom_site_occupancy
 _atom_site_hle17_bader_spin_density
 _atom_site_hle17_ddec_charge
 _atom_site_hle17_ddec_spin_density
 _atom_site_hle17_ddec_sum_bond_order
 _atom_site_hle17_magmom
 _atom_site_hse06_10hf_bader_spin_density
 _atom_site_hse06_10hf_ddec_charge
 _atom_site_hse06_10hf_ddec_spin_density
 _atom_site_hse06_10hf_ddec_sum_bond_order
 _atom_site_hse06_10hf_magmom
 _atom_site_hse06_bader_spin_density
 _atom_site_hse06_ddec_charge
 _atom_site_hse06_ddec_spin_density
 _atom_site_hse06_ddec_sum_bond_order
 _atom_site_hse06_magmom
 _atom_site_pbe_bader_spin_density
 _atom_site_pbe_cm5_charge
 _atom_site_pbe_ddec_charge
 _atom_site_pbe_ddec_spin_density
 _atom_site_pbe_ddec_sum_bond_order
 _atom_site_pbe_magmom
Ba  Ba0  1  0.75000266  0.93054284  0.06945520  1  0  1.637737  0  1.122564  0  0  1.496517  0  1.506815  0  0  1.539332  0  1.460352  0  0  0.969644  1.465052  0  1.540243  0
Ba  Ba1  1  0.24999723  0.06945872  0.93054252  1  0  1.637707  0  1.12258  0  0  1.496483  0  1.506837  0  0  1.539298  0  1.460367  0  0  0.969634  1.465023  0  1.540267  0
H  H2  1  0.45955819  0.35465529  0.70812429  1  0  0.111108  0  0.967089  0  0  0.121514  0  1.027533  0  0  0.125107  0  1.025291  0  0  0.114258  0.118944  0  1.029226  0
H  H3  1  0.04045263  0.29187355  0.64533209  1  0  0.111145  0  0.967037  0  0  0.121563  0  1.027468  0  0  0.125158  0  1.025223  0  0  0.114259  0.118993  0  1.02916  0
H  H4  1  0.54044309  0.64534610  0.29186679  1  0  0.111141  0  0.967081  0  0  0.121532  0  1.027554  0  0  0.125128  0  1.025309  0  0  0.114264  0.118962  0  1.029245  0
H  H5  1  0.95956367  0.70811754  0.35466965  1  0  0.111046  0  0.967045  0  0  0.121504  0  1.02746  0  0  0.125098  0  1.025215  0  0  0.114215  0.118934  0  1.02915  0
H  H6  1  0.39997355  0.60019581  0.55287479  1  0  0.093953  0  0.940248  0  0  0.105646  0  0.997382  0  0  0.10812  0  0.99732  0  0  0.105737  0.103666  0  0.997892  0
H  H7  1  0.10002681  0.44712718  0.39979222  1  0  0.093902  0  0.940246  0  0  0.105616  0  0.997349  0  0  0.10809  0  0.997287  0  0  0.105721  0.103641  0  0.997862  0
H  H8  1  0.60000545  0.39980925  0.44712970  1  0  0.093987  0  0.940296  0  0  0.105709  0  0.997379  0  0  0.108183  0  0.997317  0  0  0.105749  0.103726  0  0.997887  0
H  H9  1  0.89998716  0.55286291  0.60021012  1  0  0.093876  0  0.940232  0  0  0.105627  0  0.997286  0  0  0.108104  0  0.997224  0  0  0.105733  0.103642  0  0.997797  0
H  H10  1  0.49114292  0.78898895  0.60478473  1  0  0.097112  0  0.976525  0  0  0.103325  0  1.042226  0  0  0.106617  0  1.040478  0  0  0.102377  0.100913  0  1.043684  0
H  H11  1  0.00884746  0.39522093  0.21100611  1  0  0.097047  0  0.97661  0  0  0.103285  0  1.042299  0  0  0.10658  0  1.040551  0  0  0.102351  0.100874  0  1.043762  0
H  H12  1  0.50883861  0.21101211  0.39522784  1  0  0.097084  0  0.976639  0  0  0.103323  0  1.042305  0  0  0.106612  0  1.040553  0  0  0.102392  0.100914  0  1.043765  0
H  H13  1  0.99115366  0.60477867  0.78899706  1  0  0.097049  0  0.976635  0  0  0.103303  0  1.0423  0  0  0.106599  0  1.040551  0  0  0.102351  0.100891  0  1.043764  0
H  H14  1  0.64635933  0.73128105  0.81037510  1  0  0.108392  0  0.941701  0  0  0.115556  0  1.006494  0  0  0.119749  0  1.003399  0  0  0.113593  0.112582  0  1.008668  0
H  H15  1  0.85363302  0.18962365  0.26871831  1  0  0.108397  0  0.941827  0  0  0.115558  0  1.006596  0  0  0.11976  0  1.003499  0  0  0.113596  0.112588  0  1.008773  0
H  H16  1  0.35363990  0.26871332  0.18962566  1  0  0.108409  0  0.941717  0  0  0.115537  0  1.006532  0  0  0.119745  0  1.00343  0  0  0.113594  0.112566  0  1.008708  0
H  H17  1  0.14636653  0.81038014  0.73128513  1  0  0.108343  0  0.941853  0  0  0.115529  0  1.006606  0  0  0.119717  0  1.003522  0  0  0.113563  0.112557  0  1.008785  0
H  H18  1  0.71906656  0.38617552  0.08181284  1  0  0.044204  0  0.936913  0  0  0.051263  0  1.006389  0  0  0.053045  0  1.003629  0  0  0.10873  0.0499  0  1.008448  0
H  H19  1  0.78093819  0.91818839  0.61383155  1  0  0.04426  0  0.937037  0  0  0.051416  0  1.006398  0  0  0.0532  0  1.003636  0  0  0.108816  0.050005  0  1.008511  0
H  H20  1  0.28092536  0.61381996  0.91818801  1  0  0.044219  0  0.936902  0  0  0.051264  0  1.006403  0  0  0.053046  0  1.003647  0  0  0.108755  0.049904  0  1.008463  0
H  H21  1  0.21907595  0.08181319  0.38617264  1  0  0.044204  0  0.936935  0  0  0.051331  0  1.006342  0  0  0.053113  0  1.003587  0  0  0.108789  0.04997  0  1.008401  0
H  H22  1  0.91012477  0.62857460  0.10384191  1  0  0.417901  0  0.88797  0  0  0.387754  0  0.950939  0  0  0.39819  0  0.935593  0  0  0.292823  0.380337  0  0.961864  0
H  H23  1  0.58987287  0.89616304  0.37142595  1  0  0.417921  0  0.887966  0  0  0.387774  0  0.950925  0  0  0.398212  0  0.935575  0  0  0.292835  0.380358  0  0.961848  0
H  H24  1  0.08986794  0.37142604  0.89615769  1  0  0.41783  0  0.888038  0  0  0.387746  0  0.950928  0  0  0.398183  0  0.935579  0  0  0.292824  0.38033  0  0.961853  0
H  H25  1  0.41013268  0.10384166  0.62857476  1  0  0.417892  0  0.887971  0  0  0.387748  0  0.950944  0  0  0.398183  0  0.935598  0  0  0.292832  0.380331  0  0.96187  0
H  H26  1  0.05801303  0.71237302  0.09995617  1  0  0.424331  0  0.880687  0  0  0.392567  0  0.946421  0  0  0.403727  0  0.930166  0  0  0.290688  0.384579  0  0.958021  0
H  H27  1  0.44199412  0.90005053  0.28761806  1  0  0.424365  0  0.88064  0  0  0.392568  0  0.946423  0  0  0.403736  0  0.930162  0  0  0.29071  0.384579  0  0.958022  0
H  H28  1  0.94198235  0.28762447  0.90004359  1  0  0.424289  0  0.880733  0  0  0.392493  0  0.946508  0  0  0.403671  0  0.930237  0  0  0.29067  0.384504  0  0.958108  0
H  H29  1  0.55801546  0.09994991  0.71238033  1  0  0.424265  0  0.880768  0  0  0.392509  0  0.94649  0  0  0.403667  0  0.930238  0  0  0.290666  0.38452  0  0.958091  0
C  C30  1  0.62422472  0.25590682  0.93673587  1  0  0.666728  0  3.921937  0  0  0.616316  0  4.219156  0  0  0.650034  0  4.211449  0  0  0.217  0.59355  0  4.22319  0
C  C31  1  0.87577319  0.06327117  0.74409049  1  0  0.66682  0  3.922154  0  0  0.616492  0  4.219279  0  0  0.65021  0  4.211569  0  0  0.217022  0.593728  0  4.223315  0
C  C32  1  0.37577413  0.74409559  0.06325308  1  0  0.666598  0  3.922296  0  0  0.616232  0  4.219493  0  0  0.649949  0  4.211786  0  0  0.216948  0.593468  0  4.223534  0
C  C33  1  0.12422547  0.93672947  0.25591149  1  0  0.666752  0  3.922379  0  0  0.616485  0  4.219424  0  0  0.650204  0  4.211709  0  0  0.21699  0.593716  0  4.223469  0
C  C34  1  0.58771333  0.40482798  0.84538935  1  0  -0.068165  0  3.707025  0  0  -0.052704  0  3.93898  0  0  -0.05773  0  3.961329  0  0  -0.001066  -0.049792  0  3.924301  0
C  C35  1  0.91227379  0.15461768  0.59516451  1  0  -0.068213  0  3.706991  0  0  -0.052828  0  3.939046  0  0  -0.057856  0  3.9614  0  0  -0.001153  -0.049913  0  3.924372  0
C  C36  1  0.41228937  0.59517129  0.15460060  1  0  -0.06814  0  3.707065  0  0  -0.052774  0  3.939123  0  0  -0.0578  0  3.961473  0  0  -0.001092  -0.049866  0  3.924453  0
C  C37  1  0.08772592  0.84538501  0.40483654  1  0  -0.06818  0  3.70721  0  0  -0.052872  0  3.939279  0  0  -0.057899  0  3.96163  0  0  -0.001086  -0.049958  0  3.924606  0
C  C38  1  0.49988864  0.43769619  0.73022166  1  0  -0.088143  0  3.712921  0  0  -0.109596  0  3.957527  0  0  -0.111838  0  3.978259  0  0  -0.076617  -0.108132  0  3.943889  0
C  C39  1  0.00011513  0.26978264  0.56229112  1  0  -0.08834  0  3.712954  0  0  -0.109783  0  3.957589  0  0  -0.112026  0  3.97832  0  0  -0.07661  -0.108316  0  3.943952  0
C  C40  1  0.50011398  0.56230315  0.26977110  1  0  -0.08828  0  3.713032  0  0  -0.109703  0  3.957702  0  0  -0.111945  0  3.978433  0  0  -0.076722  -0.108237  0  3.944063  0
C  C41  1  0.99989565  0.73021683  0.43771041  1  0  -0.088285  0  3.71302  0  0  -0.109766  0  3.95768  0  0  -0.112008  0  3.978411  0  0  -0.076691  -0.1083  0  3.944037  0
C  C42  1  0.46784106  0.57519889  0.64271265  1  0  -0.032574  0  3.717435  0  0  -0.047579  0  3.967388  0  0  -0.04887  0  3.988922  0  0  -0.072136  -0.046475  0  3.952954  0
C  C43  1  0.03215379  0.35729360  0.42479020  1  0  -0.032365  0  3.71752  0  0  -0.047356  0  3.967438  0  0  -0.048648  0  3.988972  0  0  -0.07212  -0.046258  0  3.953009  0
C  C44  1  0.53214927  0.42480080  0.35728942  1  0  -0.032551  0  3.71746  0  0  -0.047563  0  3.967395  0  0  -0.048859  0  3.988931  0  0  -0.072076  -0.046453  0  3.952957  0
C  C45  1  0.96785723  0.64270374  0.57520936  1  0  -0.032296  0  3.717351  0  0  -0.047301  0  3.967255  0  0  -0.048597  0  3.988794  0  0  -0.072049  -0.046189  0  3.952809  0
C  C46  1  0.52027435  0.68170675  0.67052117  1  0  -0.065306  0  3.742924  0  0  -0.080702  0  4.00013  0  0  -0.083087  0  4.020991  0  0  -0.083561  -0.078879  0  3.985606  0
C  C47  1  0.97972350  0.32948066  0.31829084  1  0  -0.065213  0  3.74302  0  0  -0.080668  0  4.000234  0  0  -0.083053  0  4.021097  0  0  -0.083505  -0.078847  0  3.985718  0
C  C48  1  0.47971852  0.31829183  0.32947927  1  0  -0.065259  0  3.742996  0  0  -0.080677  0  4.0002  0  0  -0.083058  0  4.021067  0  0  -0.083559  -0.078852  0  3.985663  0
C  C49  1  0.02027751  0.67051999  0.68171284  1  0  -0.065307  0  3.742994  0  0  -0.080791  0  4.000239  0  0  -0.08318  0  4.021104  0  0  -0.08356  -0.078963  0  3.985697  0
C  C50  1  0.60771378  0.65021199  0.78436755  1  0  -0.072106  0  3.711535  0  0  -0.097569  0  3.967158  0  0  -0.098867  0  3.987793  0  0  -0.073988  -0.096366  0  3.95277  0
C  C51  1  0.89227119  0.21563237  0.34978644  1  0  -0.072158  0  3.711686  0  0  -0.097577  0  3.967329  0  0  -0.098889  0  3.987953  0  0  -0.073975  -0.09638  0  3.95295  0
C  C52  1  0.39228630  0.34978845  0.21562684  1  0  -0.072136  0  3.711561  0  0  -0.097553  0  3.967206  0  0  -0.098871  0  3.987825  0  0  -0.073985  -0.096355  0  3.952827  0
C  C53  1  0.10772610  0.78436939  0.65021802  1  0  -0.072153  0  3.711547  0  0  -0.09762  0  3.967172  0  0  -0.098919  0  3.987803  0  0  -0.073967  -0.096424  0  3.9528  0
C  C54  1  0.64374346  0.51219824  0.87179421  1  0  -0.050793  0  3.793184  0  0  -0.035547  0  4.02946  0  0  -0.042452  0  4.055698  0  0  -0.021311  -0.030618  0  4.011881  0
C  C55  1  0.85624757  0.12821004  0.48779991  1  0  -0.050755  0  3.793281  0  0  -0.035529  0  4.029669  0  0  -0.042436  0  4.055922  0  0  -0.021271  -0.030597  0  4.012085  0
C  C56  1  0.35626536  0.48779894  0.12819802  1  0  -0.050845  0  3.793348  0  0  -0.035562  0  4.029648  0  0  -0.042468  0  4.0559  0  0  -0.021313  -0.030633  0  4.012077  0
C  C57  1  0.14375083  0.87179371  0.51220174  1  0  -0.050652  0  3.79304  0  0  -0.035315  0  4.029316  0  0  -0.042215  0  4.05555  0  0  -0.02123  -0.030389  0  4.011746  0
C  C58  1  0.73159622  0.48589337  0.99347506  1  0  0.346412  0  3.658756  0  0  0.296348  0  3.935906  0  0  0.317387  0  3.936629  0  0  0.107605  0.28173  0  3.935813  0
C  C59  1  0.76839212  0.00651923  0.51411648  1  0  0.346478  0  3.658601  0  0  0.296316  0  3.935864  0  0  0.317353  0  3.93659  0  0  0.107623  0.281731  0  3.935782  0
C  C60  1  0.26840396  0.51410602  0.00651882  1  0  0.346579  0  3.658554  0  0  0.296493  0  3.935784  0  0  0.317528  0  3.936507  0  0  0.107636  0.281872  0  3.935696  0
C  C61  1  0.23161138  0.99347941  0.48589068  1  0  0.346526  0  3.658548  0  0  0.296334  0  3.935857  0  0  0.317371  0  3.936581  0  0  0.107643  0.281719  0  3.935769  0
O  O62  1  0.51444856  0.17326723  0.96594989  1  0  -0.721851  0  1.971315  0  0  -0.662462  0  2.218142  0  0  -0.690228  0  2.209136  0  0  -0.38873  -0.642782  0  2.223861  0
O  O63  1  0.98554820  0.03406062  0.82671789  1  0  -0.721944  0  1.971654  0  0  -0.662566  0  2.218415  0  0  -0.69033  0  2.209404  0  0  -0.388756  -0.642887  0  2.224139  0
O  O64  1  0.48554885  0.82673636  0.03404435  1  0  -0.721812  0  1.971384  0  0  -0.662404  0  2.218149  0  0  -0.690173  0  2.209146  0  0  -0.388698  -0.642724  0  2.223869  0
O  O65  1  0.01444494  0.96594743  0.17328711  1  0  -0.721911  0  1.971731  0  0  -0.662547  0  2.218457  0  0  -0.690312  0  2.209443  0  0  -0.388724  -0.642866  0  2.224182  0
O  O66  1  0.76512432  0.21834867  0.98052126  1  0  -0.6869  0  1.977552  0  0  -0.623487  0  2.202826  0  0  -0.650459  0  2.1928  0  0  -0.339304  -0.604246  0  2.208914  0
O  O67  1  0.73487097  0.01947959  0.78165082  1  0  -0.686904  0  1.977494  0  0  -0.623538  0  2.202751  0  0  -0.650509  0  2.192715  0  0  -0.339284  -0.604292  0  2.208837  0
O  O68  1  0.23487722  0.78164769  0.01947661  1  0  -0.686853  0  1.977908  0  0  -0.623457  0  2.20316  0  0  -0.650423  0  2.193123  0  0  -0.339283  -0.604211  0  2.20924  0
O  O69  1  0.26512931  0.98051682  0.21834900  1  0  -0.6869  0  1.977565  0  0  -0.623538  0  2.2028  0  0  -0.650508  0  2.192765  0  0  -0.339275  -0.604298  0  2.208898  0
O  O70  1  0.81460162  0.57249668  0.99883520  1  0  -0.449197  0  2.034371  0  0  -0.389898  0  2.254986  0  0  -0.408627  0  2.250239  0  0  -0.241232  -0.377059  0  2.258412  0
O  O71  1  0.68537945  0.00114987  0.42752356  1  0  -0.449263  0  2.034199  0  0  -0.389977  0  2.254923  0  0  -0.408708  0  2.250173  0  0  -0.241338  -0.377138  0  2.25833  0
O  O72  1  0.18539510  0.42749973  0.00116301  1  0  -0.449289  0  2.034278  0  0  -0.389974  0  2.254888  0  0  -0.408722  0  2.250176  0  0  -0.241259  -0.377135  0  2.258318  0
O  O73  1  0.31461572  0.99884685  0.57248693  1  0  -0.449272  0  2.034354  0  0  -0.389943  0  2.255057  0  0  -0.408679  0  2.250315  0  0  -0.241311  -0.377104  0  2.258487  0
O  O74  1  0.94738117  0.68880389  0.14371961  1  0  -0.89395  0  1.774699  0  0  -0.838983  0  1.941936  0  0  -0.859458  0  1.911215  0  0  -0.639679  -0.824362  0  1.963713  0
O  O75  1  0.55262371  0.85629290  0.31118767  1  0  -0.894024  0  1.774658  0  0  -0.839019  0  1.941967  0  0  -0.859506  0  1.911217  0  0  -0.639756  -0.8244  0  1.963746  0
O  O76  1  0.05261267  0.31119777  0.85627948  1  0  -0.893834  0  1.774779  0  0  -0.838899  0  1.941972  0  0  -0.859392  0  1.911195  0  0  -0.639679  -0.82428  0  1.963748  0
O  O77  1  0.44738646  0.14371578  0.68880726  1  0  -0.893888  0  1.774771  0  0  -0.838946  0  1.942024  0  0  -0.859401  0  1.911266  0  0  -0.639683  -0.824321  0  1.963794  0
