# generated using pymatgen
data_Ag2Mo4H12C16N4O13
_symmetry_space_group_name_H-M   'P 1'
_cell_length_a   8.22019833
_cell_length_b   12.26774303
_cell_length_c   12.74040432
_cell_angle_alpha   112.33379226
_cell_angle_beta   96.00660092
_cell_angle_gamma   102.09277055
_symmetry_Int_Tables_number   1
_chemical_formula_structural   Ag2Mo4H12C16N4O13
_chemical_formula_sum   'Ag4 Mo8 H24 C32 N8 O26'
_cell_volume   1137.66843681
_cell_formula_units_Z   2
loop_
 _symmetry_equiv_pos_site_id
 _symmetry_equiv_pos_as_xyz
  1  'x, y, z'
loop_
 _atom_site_type_symbol
 _atom_site_label
 _atom_site_symmetry_multiplicity
 _atom_site_fract_x
 _atom_site_fract_y
 _atom_site_fract_z
 _atom_site_occupancy
 _atom_site_hle17_bader_spin_density
 _atom_site_hle17_ddec_charge
 _atom_site_hle17_ddec_spin_density
 _atom_site_hle17_ddec_sum_bond_order
 _atom_site_hle17_magmom
 _atom_site_hse06_10hf_bader_spin_density
 _atom_site_hse06_10hf_ddec_charge
 _atom_site_hse06_10hf_ddec_spin_density
 _atom_site_hse06_10hf_ddec_sum_bond_order
 _atom_site_hse06_10hf_magmom
 _atom_site_hse06_bader_spin_density
 _atom_site_hse06_ddec_charge
 _atom_site_hse06_ddec_spin_density
 _atom_site_hse06_ddec_sum_bond_order
 _atom_site_hse06_magmom
 _atom_site_pbe_bader_spin_density
 _atom_site_pbe_cm5_charge
 _atom_site_pbe_ddec_charge
 _atom_site_pbe_ddec_spin_density
 _atom_site_pbe_ddec_sum_bond_order
 _atom_site_pbe_magmom
Ag  Ag0  1  0.27991362  0.07870346  0.53046095  1  0  0.589235  0  1.362994  0  0  0.455082  0  1.796541  0  0  0.483312  0  1.75165  0  0  0.493985  0.436297  0  1.827328  0
Ag  Ag1  1  0.72008853  0.92129606  0.46953988  1  0  0.589268  0  1.362963  0  0  0.455084  0  1.796546  0  0  0.483313  0  1.751653  0  0  0.493983  0.4363  0  1.827333  0
Ag  Ag2  1  0.15525604  0.48817911  0.07088843  1  0  0.543734  0  1.517011  0  0  0.406576  0  2.001358  0  0  0.438007  0  1.944047  0  0  0.481943  0.385868  0  2.040374  0
Ag  Ag3  1  0.84474399  0.51182133  0.92911182  1  0  0.543745  0  1.516999  0  0  0.406569  0  2.001334  0  0  0.437995  0  1.944022  0  0  0.481941  0.385856  0  2.040353  0
Mo  Mo4  1  0.42434390  0.33065205  0.22970601  1  0  2.206818  0  4.037853  0  0  2.197007  0  4.589219  0  0  2.298215  0  4.549563  0  0  1.507534  2.123386  0  4.622291  0
Mo  Mo5  1  0.57565580  0.66934748  0.77029466  1  0  2.206799  0  4.037924  0  0  2.196976  0  4.589294  0  0  2.298181  0  4.549643  0  0  1.507517  2.123353  0  4.622368  0
Mo  Mo6  1  0.56178100  0.36315213  0.48451095  1  0  2.225419  0  4.079274  0  0  2.228296  0  4.600241  0  0  2.331526  0  4.563205  0  0  1.50959  2.151744  0  4.633871  0
Mo  Mo7  1  0.43821992  0.63684740  0.51548901  1  0  2.225317  0  4.079398  0  0  2.228166  0  4.600405  0  0  2.331415  0  4.563338  0  0  1.509497  2.151616  0  4.634035  0
Mo  Mo8  1  0.83010300  0.33268400  0.24031213  1  0  2.254606  0  3.978051  0  0  2.25963  0  4.499388  0  0  2.359982  0  4.463099  0  0  1.537972  2.189601  0  4.526487  0
Mo  Mo9  1  0.16989512  0.66731461  0.75968732  1  0  2.25456  0  3.978049  0  0  2.259579  0  4.499379  0  0  2.359923  0  4.463093  0  0  1.537954  2.189542  0  4.526488  0
Mo  Mo10  1  0.16919889  0.37267549  0.48198388  1  0  2.271929  0  4.018803  0  0  2.287956  0  4.527132  0  0  2.391361  0  4.492113  0  0  1.536924  2.216186  0  4.552524  0
Mo  Mo11  1  0.83080237  0.62732496  0.51801801  1  0  2.271973  0  4.018735  0  0  2.288002  0  4.527049  0  0  2.391405  0  4.492032  0  0  1.536971  2.216242  0  4.552444  0
H  H12  1  0.00629205  0.24482829  0.02147879  1  0  0.111072  0  0.979285  0  0  0.11963  0  1.047765  0  0  0.122509  0  1.046076  0  0  0.10742  0.117517  0  1.049115  0
H  H13  1  0.99370501  0.75517398  0.97852271  1  0  0.111045  0  0.979365  0  0  0.119563  0  1.047904  0  0  0.122445  0  1.046214  0  0  0.107352  0.117449  0  1.049255  0
H  H14  1  0.86841445  0.02104593  0.94410083  1  0  0.115768  0  0.939516  0  0  0.127602  0  0.994393  0  0  0.130377  0  0.99359  0  0  0.110764  0.12556  0  0.995146  0
H  H15  1  0.13158471  0.97895543  0.05590048  1  0  0.11577  0  0.939535  0  0  0.127575  0  0.994436  0  0  0.130348  0  0.993638  0  0  0.110763  0.125531  0  0.995191  0
H  H16  1  0.91872697  0.87841533  0.75913187  1  0  0.111241  0  0.948036  0  0  0.118171  0  1.011702  0  0  0.120951  0  1.010135  0  0  0.109361  0.116031  0  1.01301  0
H  H17  1  0.08127185  0.12158511  0.24086908  1  0  0.111254  0  0.948002  0  0  0.118182  0  1.011674  0  0  0.120964  0  1.010106  0  0  0.109353  0.11604  0  1.012982  0
H  H18  1  0.10722334  0.95700062  0.64831958  1  0  0.095762  0  0.972175  0  0  0.104671  0  1.044951  0  0  0.108148  0  1.041405  0  0  0.099912  0.102066  0  1.047681  0
H  H19  1  0.89277670  0.04299982  0.35168067  1  0  0.095733  0  0.972225  0  0  0.104631  0  1.045013  0  0  0.108109  0  1.041468  0  0  0.099904  0.102025  0  1.047744  0
H  H20  1  0.41520372  0.34563176  0.70332834  1  0  0.109458  0  0.945584  0  0  0.114453  0  1.012217  0  0  0.117084  0  1.009718  0  0  0.124003  0.112406  0  1.014253  0
H  H21  1  0.58479719  0.65436777  0.29667163  1  0  0.109503  0  0.945584  0  0  0.114484  0  1.012216  0  0  0.117114  0  1.00972  0  0  0.124025  0.112435  0  1.014256  0
H  H22  1  0.35969035  0.48893239  0.88541076  1  0  0.105788  0  0.963987  0  0  0.117247  0  1.023194  0  0  0.120618  0  1.020128  0  0  0.121381  0.114762  0  1.025535  0
H  H23  1  0.64030968  0.51106805  0.11458870  1  0  0.105795  0  0.96398  0  0  0.117263  0  1.023173  0  0  0.120632  0  1.02011  0  0  0.121388  0.114779  0  1.025513  0
H  H24  1  0.45728845  0.08486562  0.35225668  1  0  0.111732  0  0.989788  0  0  0.117628  0  1.059548  0  0  0.120636  0  1.057541  0  0  0.101571  0.115294  0  1.06125  0
H  H25  1  0.54271404  0.91513482  0.64774450  1  0  0.111699  0  0.989821  0  0  0.117573  0  1.059603  0  0  0.120597  0  1.057579  0  0  0.101561  0.115243  0  1.061301  0
H  H26  1  0.57909364  0.05813307  0.17573677  1  0  0.113748  0  0.969168  0  0  0.122892  0  1.028491  0  0  0.126074  0  1.026774  0  0  0.106844  0.120504  0  1.029929  0
H  H27  1  0.42090394  0.94186737  0.82426252  1  0  0.113733  0  0.969168  0  0  0.122874  0  1.028493  0  0  0.126058  0  1.026771  0  0  0.106841  0.120486  0  1.02993  0
H  H28  1  0.51757832  0.85233891  0.01399603  1  0  0.112178  0  0.96088  0  0  0.122166  0  1.019957  0  0  0.125241  0  1.018089  0  0  0.108501  0.119918  0  1.021349  0
H  H29  1  0.48241926  0.14766153  0.98600248  1  0  0.112157  0  0.960954  0  0  0.122195  0  1.019972  0  0  0.125271  0  1.018103  0  0  0.108503  0.119946  0  1.021365  0
H  H30  1  0.33220451  0.67065207  0.02647096  1  0  0.093735  0  0.985019  0  0  0.100322  0  1.064015  0  0  0.104364  0  1.059646  0  0  0.097174  0.097312  0  1.067273  0
H  H31  1  0.66779464  0.32934928  0.97352720  1  0  0.093733  0  0.984963  0  0  0.100329  0  1.063943  0  0  0.104371  0  1.059573  0  0  0.097172  0.097317  0  1.067201  0
H  H32  1  0.05584667  0.60944796  0.30599723  1  0  0.119298  0  0.969383  0  0  0.12789  0  1.028989  0  0  0.130784  0  1.026874  0  0  0.124534  0.125767  0  1.030632  0
H  H33  1  0.94415757  0.39055065  0.69400184  1  0  0.119282  0  0.969385  0  0  0.127906  0  1.028971  0  0  0.130801  0  1.026853  0  0  0.124529  0.125783  0  1.030614  0
H  H34  1  0.11158659  0.81628767  0.46688550  1  0  0.09104  0  0.965265  0  0  0.101471  0  1.029862  0  0  0.104003  0  1.026678  0  0  0.120575  0.099539  0  1.032379  0
H  H35  1  0.88841608  0.18371003  0.53311313  1  0  0.091043  0  0.965248  0  0  0.101472  0  1.029831  0  0  0.104002  0  1.026649  0  0  0.120554  0.099542  0  1.032349  0
C  C36  1  0.13277900  0.22826342  0.87775707  1  0  0.161502  0  3.744298  0  0  0.160351  0  3.976881  0  0  0.162777  0  4.002302  0  0  0.114244  0.158539  0  3.959868  0
C  C37  1  0.86722349  0.77173702  0.12224491  1  0  0.161611  0  3.744162  0  0  0.160454  0  3.976745  0  0  0.16288  0  4.002168  0  0  0.114343  0.158642  0  3.959731  0
C  C38  1  0.02686538  0.18137630  0.93994364  1  0  -0.120608  0  3.694037  0  0  -0.14077  0  3.941169  0  0  -0.144607  0  3.962718  0  0  -0.079837  -0.1381  0  3.926708  0
C  C39  1  0.97313500  0.81862506  0.06005854  1  0  -0.120681  0  3.694128  0  0  -0.14082  0  3.941249  0  0  -0.144654  0  3.962782  0  0  -0.079837  -0.138147  0  3.926783  0
C  C40  1  0.95163101  0.05733564  0.89712985  1  0  -0.021019  0  3.672336  0  0  -0.035666  0  3.916313  0  0  -0.038027  0  3.938264  0  0  -0.065836  -0.034079  0  3.90147  0
C  C41  1  0.04836693  0.94266572  0.10287059  1  0  -0.020997  0  3.672376  0  0  -0.035594  0  3.9163  0  0  -0.037961  0  3.938269  0  0  -0.065829  -0.034005  0  3.901455  0
C  C42  1  0.98002790  0.97594721  0.79152345  1  0  -0.001276  0  3.66407  0  0  -0.015387  0  3.910075  0  0  -0.015648  0  3.931547  0  0  -0.064576  -0.015101  0  3.895594  0
C  C43  1  0.01996846  0.02405322  0.20847656  1  0  -0.001333  0  3.664049  0  0  -0.015459  0  3.91006  0  0  -0.015723  0  3.931529  0  0  -0.064583  -0.015174  0  3.89558  0
C  C44  1  0.08381589  0.01902916  0.72951488  1  0  -0.150504  0  3.737859  0  0  -0.171988  0  3.991567  0  0  -0.178133  0  4.014877  0  0  -0.088173  -0.167825  0  3.975946  0
C  C45  1  0.91618205  0.98097219  0.27048635  1  0  -0.150432  0  3.737803  0  0  -0.171896  0  3.991505  0  0  -0.178036  0  4.014804  0  0  -0.088145  -0.167737  0  3.975894  0
C  C46  1  0.16225301  0.14563286  0.77058154  1  0  0.149808  0  3.782645  0  0  0.149732  0  4.013907  0  0  0.151939  0  4.041261  0  0  0.110414  0.148121  0  3.995539  0
C  C47  1  0.83774669  0.85436667  0.22941992  1  0  0.149807  0  3.782566  0  0  0.149714  0  4.013834  0  0  0.15192  0  4.04119  0  0  0.110401  0.148104  0  3.995463  0
C  C48  1  0.33443426  0.30980613  0.75186955  1  0  0.111299  0  3.628684  0  0  0.080744  0  3.879423  0  0  0.086163  0  3.894589  0  0  0.062877  0.076966  0  3.869518  0
C  C49  1  0.66556666  0.69019339  0.24813120  1  0  0.111189  0  3.628886  0  0  0.080676  0  3.879557  0  0  0.086091  0  3.894727  0  0  0.062772  0.076897  0  3.869653  0
C  C50  1  0.30447400  0.39089070  0.85619167  1  0  0.087625  0  3.642309  0  0  0.057883  0  3.890097  0  0  0.06234  0  3.905292  0  0  0.058061  0.054369  0  3.880735  0
C  C51  1  0.69552814  0.60910883  0.14380916  1  0  0.087575  0  3.642417  0  0  0.05779  0  3.890247  0  0  0.062263  0  3.905414  0  0  0.058044  0.054278  0  3.880885  0
C  C52  1  0.32810768  0.89309573  0.29018990  1  0  0.154257  0  3.788092  0  0  0.151841  0  4.024775  0  0  0.155035  0  4.049103  0  0  0.110523  0.149447  0  4.008684  0
C  C53  1  0.67189446  0.10690380  0.70981014  1  0  0.154233  0  3.787911  0  0  0.151921  0  4.024507  0  0  0.155112  0  4.048837  0  0  0.110536  0.149527  0  4.008419  0
C  C54  1  0.43146896  0.99503700  0.28077151  1  0  -0.148934  0  3.715777  0  0  -0.170197  0  3.973234  0  0  -0.175323  0  3.99486  0  0  -0.08785  -0.166726  0  3.958983  0
C  C55  1  0.56853073  0.00496253  0.71922916  1  0  -0.14887  0  3.715741  0  0  -0.170138  0  3.973172  0  0  -0.175278  0  3.994789  0  0  -0.087812  -0.166669  0  3.958924  0
C  C56  1  0.49812663  0.97966547  0.18271447  1  0  -0.016699  0  3.669075  0  0  -0.029003  0  3.91134  0  0  -0.03064  0  3.932674  0  0  -0.067428  -0.027807  0  3.896903  0
C  C57  1  0.50186972  0.02033497  0.81728397  1  0  -0.016627  0  3.669017  0  0  -0.028918  0  3.911276  0  0  -0.030559  0  3.932624  0  0  -0.067404  -0.027723  0  3.896838  0
C  C58  1  0.46368614  0.86247833  0.09062315  1  0  -0.011608  0  3.667903  0  0  -0.026337  0  3.910649  0  0  -0.026912  0  3.93159  0  0  -0.068429  -0.025825  0  3.896366  0
C  C59  1  0.53631144  0.13752211  0.90937536  1  0  -0.011673  0  3.668001  0  0  -0.026445  0  3.910752  0  0  -0.027022  0  3.931693  0  0  -0.068479  -0.025931  0  3.896469  0
C  C60  1  0.36285584  0.76144842  0.09762745  1  0  -0.148626  0  3.739031  0  0  -0.169812  0  3.993717  0  0  -0.175973  0  4.017862  0  0  -0.088186  -0.16549  0  3.977352  0
C  C61  1  0.63713841  0.23855293  0.90236960  1  0  -0.14866  0  3.73901  0  0  -0.169816  0  3.993739  0  0  -0.175976  0  4.017883  0  0  -0.088189  -0.165492  0  3.977373  0
C  C62  1  0.29356194  0.77407781  0.19700869  1  0  0.149046  0  3.789963  0  0  0.149373  0  4.019198  0  0  0.151406  0  4.04623  0  0  0.109929  0.147823  0  4.001154  0
C  C63  1  0.70643897  0.22592171  0.80298970  1  0  0.149054  0  3.789827  0  0  0.149234  0  4.019174  0  0  0.151265  0  4.046206  0  0  0.10986  0.147685  0  4.001129  0
C  C64  1  0.13230779  0.68969895  0.29937838  1  0  0.111582  0  3.601063  0  0  0.078482  0  3.849267  0  0  0.083381  0  3.86452  0  0  0.062257  0.075049  0  3.839216  0
C  C65  1  0.86769522  0.31029966  0.70061981  1  0  0.11165  0  3.601066  0  0  0.078515  0  3.849206  0  0  0.083416  0  3.864455  0  0  0.062273  0.075087  0  3.839145  0
C  C66  1  0.16591944  0.80668769  0.39068896  1  0  0.108217  0  3.654605  0  0  0.072166  0  3.912364  0  0  0.078118  0  3.926111  0  0  0.05694  0.067966  0  3.903383  0
C  C67  1  0.83408113  0.19331092  0.60930908  1  0  0.108149  0  3.654673  0  0  0.072113  0  3.912456  0  0  0.07806  0  3.926201  0  0  0.056941  0.067913  0  3.903473  0
N  N68  1  0.26279536  0.19017588  0.70874666  1  0  -0.293496  0  3.298725  0  0  -0.214189  0  3.566662  0  0  -0.23013  0  3.583766  0  0  -0.320157  -0.20334  0  3.554992  0
N  N69  1  0.73720679  0.80982364  0.29125496  1  0  -0.293475  0  3.298813  0  0  -0.214131  0  3.566677  0  0  -0.230074  0  3.583784  0  0  -0.320087  -0.203284  0  3.555008  0
N  N70  1  0.20371987  0.35173585  0.91688775  1  0  -0.290967  0  3.317101  0  0  -0.21382  0  3.597026  0  0  -0.229912  0  3.613268  0  0  -0.320934  -0.202833  0  3.585875  0
N  N71  1  0.79628228  0.64826368  0.08311466  1  0  -0.290901  0  3.317046  0  0  -0.21375  0  3.596976  0  0  -0.229847  0  3.613224  0  0  -0.320935  -0.202767  0  3.585827  0
N  N72  1  0.19362196  0.67386573  0.20415979  1  0  -0.280626  0  3.286264  0  0  -0.201069  0  3.558173  0  0  -0.217025  0  3.573661  0  0  -0.319726  -0.190302  0  3.547698  0
N  N73  1  0.80638051  0.32613471  0.79583905  1  0  -0.280648  0  3.286074  0  0  -0.20099  0  3.557965  0  0  -0.216945  0  3.573451  0  0  -0.319678  -0.190222  0  3.547482  0
N  N74  1  0.25911259  0.90668527  0.38636965  1  0  -0.305139  0  3.328834  0  0  -0.22662  0  3.614117  0  0  -0.242092  0  3.627876  0  0  -0.327199  -0.216199  0  3.604866  0
N  N75  1  0.74088832  0.09331426  0.61362953  1  0  -0.305097  0  3.328827  0  0  -0.226605  0  3.614081  0  0  -0.242067  0  3.627831  0  0  -0.327159  -0.216184  0  3.604832  0
O  O76  1  0.33298773  0.31759713  0.36117112  1  0  -1.020638  0  1.843269  0  0  -1.010008  0  2.143333  0  0  -1.054315  0  2.137618  0  0  -0.61373  -0.976926  0  2.146395  0
O  O77  1  0.66701319  0.68240240  0.63882885  1  0  -1.020604  0  1.843214  0  0  -1.010014  0  2.143371  0  0  -1.054289  0  2.137574  0  0  -0.61373  -0.976932  0  2.146432  0
O  O78  1  0.33649479  0.43688319  0.20466141  1  0  -0.713182  0  1.536808  0  0  -0.699342  0  1.833046  0  0  -0.728273  0  1.817737  0  0  -0.537018  -0.678777  0  1.844139  0
O  O79  1  0.66350090  0.56311542  0.79533945  1  0  -0.713193  0  1.536856  0  0  -0.699329  0  1.83308  0  0  -0.728261  0  1.817771  0  0  -0.537016  -0.678765  0  1.844176  0
O  O80  1  0.14809632  0.23795646  0.50080052  1  0  -0.74863  0  1.562025  0  0  -0.7365  0  1.849282  0  0  -0.764614  0  1.837005  0  0  -0.530166  -0.717286  0  1.85802  0
O  O81  1  0.85190302  0.76204214  0.49919822  1  0  -0.748663  0  1.561988  0  0  -0.73653  0  1.849257  0  0  -0.764648  0  1.836981  0  0  -0.530198  -0.717318  0  1.857997  0
O  O82  1  0.76003713  0.46588905  0.56411767  1  0  -0.765122  0  1.662826  0  0  -0.765119  0  1.949892  0  0  -0.797891  0  1.943472  0  0  -0.535964  -0.741356  0  1.954427  0
O  O83  1  0.23996290  0.53411139  0.43588179  1  0  -0.765093  0  1.662804  0  0  -0.765104  0  1.949899  0  0  -0.797862  0  1.943446  0  0  -0.535964  -0.741329  0  1.9544  0
O  O84  1  0.88315860  0.52888717  0.39371561  1  0  -0.76734  0  1.654104  0  0  -0.771715  0  1.939001  0  0  -0.804866  0  1.931523  0  0  -0.528364  -0.748974  0  1.944036  0
O  O85  1  0.11684143  0.47111327  0.60628385  1  0  -0.76734  0  1.654173  0  0  -0.771724  0  1.93908  0  0  -0.80488  0  1.931614  0  0  -0.528372  -0.748981  0  1.944113  0
O  O86  1  0.78562224  0.18172907  0.14651225  1  0  -0.666937  0  1.421056  0  0  -0.660425  0  1.654251  0  0  -0.68577  0  1.647094  0  0  -0.49985  -0.643147  0  1.659526  0
O  O87  1  0.21437588  0.81826954  0.85348720  1  0  -0.666924  0  1.421002  0  0  -0.660404  0  1.654196  0  0  -0.685744  0  1.647033  0  0  -0.499855  -0.643126  0  1.659471  0
O  O88  1  0.96954723  0.40637548  0.18060229  1  0  -0.706476  0  1.560914  0  0  -0.690192  0  1.848737  0  0  -0.719795  0  1.833767  0  0  -0.518586  -0.67021  0  1.859527  0
O  O89  1  0.03045246  0.59362404  0.81939759  1  0  -0.706469  0  1.560944  0  0  -0.690191  0  1.848774  0  0  -0.719791  0  1.833801  0  0  -0.518577  -0.670207  0  1.859565  0
O  O90  1  0.53390493  0.24274141  0.52607294  1  0  -0.744534  0  1.542687  0  0  -0.719059  0  1.81871  0  0  -0.745708  0  1.804463  0  0  -0.530714  -0.699382  0  1.829358  0
O  O91  1  0.46609599  0.75725811  0.47392702  1  0  -0.744556  0  1.542743  0  0  -0.71904  0  1.818728  0  0  -0.745707  0  1.804497  0  0  -0.530714  -0.699371  0  1.829379  0
O  O92  1  0.63344303  0.37340435  0.18245435  1  0  -0.907377  0  1.730594  0  0  -0.899712  0  2.024718  0  0  -0.943152  0  2.019815  0  0  -0.59104  -0.868387  0  2.027891  0
O  O93  1  0.36655700  0.62659609  0.81754589  1  0  -0.907343  0  1.730576  0  0  -0.899674  0  2.024699  0  0  -0.943112  0  2.019796  0  0  -0.591029  -0.86835  0  2.027876  0
O  O94  1  0.98024708  0.32433975  0.36464810  1  0  -0.877752  0  1.734052  0  0  -0.878764  0  2.031189  0  0  -0.920924  0  2.022037  0  0  -0.590303  -0.849322  0  2.037299  0
O  O95  1  0.01975417  0.67566069  0.63535144  1  0  -0.877752  0  1.734102  0  0  -0.878759  0  2.031237  0  0  -0.920922  0  2.02209  0  0  -0.590298  -0.849311  0  2.037343  0
O  O96  1  0.41856788  0.45554743  0.56895072  1  0  -1.025101  0  1.86838  0  0  -1.022199  0  2.167419  0  0  -1.066457  0  2.166111  0  0  -0.597462  -0.988838  0  2.166772  0
O  O97  1  0.58143391  0.54445118  0.43104819  1  0  -1.025031  0  1.868366  0  0  -1.022128  0  2.167416  0  0  -1.066378  0  2.166085  0  0  -0.597412  -0.988764  0  2.166758  0
O  O98  1  0.32063535  0.19085313  0.12009938  1  0  -0.687829  0  1.429672  0  0  -0.676141  0  1.671774  0  0  -0.701807  0  1.662488  0  0  -0.510394  -0.657596  0  1.678953  0
O  O99  1  0.67936521  0.80914548  0.87989944  1  0  -0.687832  0  1.429709  0  0  -0.676128  0  1.671803  0  0  -0.701796  0  1.662518  0  0  -0.510392  -0.657587  0  1.678984  0
O  O100  1  0.62169658  0.30105949  0.33728566  1  0  -0.99548  0  1.768327  0  0  -0.985242  0  2.063422  0  0  -1.026386  0  2.054838  0  0  -0.603298  -0.954233  0  2.068615  0
O  O101  1  0.37830311  0.69894004  0.66271422  1  0  -0.995482  0  1.768339  0  0  -0.985235  0  2.063436  0  0  -1.026386  0  2.054851  0  0  -0.603297  -0.954217  0  2.068613  0
