# generated using pymatgen
data_CsH13C7N2O7
_symmetry_space_group_name_H-M   'P 1'
_cell_length_a   4.96203394
_cell_length_b   10.09093767
_cell_length_c   12.47307800
_cell_angle_alpha   90.00085249
_cell_angle_beta   90.00037237
_cell_angle_gamma   89.99947161
_symmetry_Int_Tables_number   1
_chemical_formula_structural   CsH13C7N2O7
_chemical_formula_sum   'Cs2 H26 C14 N4 O14'
_cell_volume   624.54666345
_cell_formula_units_Z   2
loop_
 _symmetry_equiv_pos_site_id
 _symmetry_equiv_pos_as_xyz
  1  'x, y, z'
loop_
 _atom_site_type_symbol
 _atom_site_label
 _atom_site_symmetry_multiplicity
 _atom_site_fract_x
 _atom_site_fract_y
 _atom_site_fract_z
 _atom_site_occupancy
 _atom_site_pbe_bader_spin_density
 _atom_site_pbe_cm5_charge
 _atom_site_pbe_ddec_charge
 _atom_site_pbe_ddec_spin_density
 _atom_site_pbe_ddec_sum_bond_order
 _atom_site_pbe_magmom
Cs  Cs0  1  0.97670496  0.15786538  0.99999917  1  0  0.769064  0.88839  0  0.752422  0
Cs  Cs1  1  0.02329074  0.65786349  0.00000162  1  0  0.769096  0.888396  0  0.752469  0
H  H2  1  0.40704238  0.26188488  0.25330286  1  0  0.135207  0.149719  0  0.965712  0
H  H3  1  0.59297757  0.76188016  0.74669999  1  0  0.135228  0.149809  0  0.965686  0
H  H4  1  0.59297556  0.76188854  0.25330293  1  0  0.135227  0.149743  0  0.965697  0
H  H5  1  0.40700005  0.26189136  0.74669912  1  0  0.135232  0.14975  0  0.965778  0
H  H6  1  0.17177744  0.14293554  0.29969776  1  0  0.126019  0.134129  0  0.996978  0
H  H7  1  0.82822257  0.64292494  0.70030124  1  0  0.126015  0.134128  0  0.996998  0
H  H8  1  0.82823139  0.64293318  0.29969684  1  0  0.126  0.134133  0  0.996971  0
H  H9  1  0.17176459  0.14293325  0.70029816  1  0  0.125986  0.134108  0  0.996989  0
H  H10  1  0.14211825  0.10081152  0.49999767  1  0  0.15592  0.135995  0  0.978539  0
H  H11  1  0.85789263  0.60081100  0.49999922  1  0  0.155901  0.135954  0  0.978538  0
H  H12  1  0.80267498  0.32583068  0.38563918  1  0  0.132134  0.146137  0  1.010353  0
H  H13  1  0.19733168  0.82583129  0.61436685  1  0  0.132114  0.146086  0  1.010413  0
H  H14  1  0.19732780  0.82583217  0.38563341  1  0  0.132114  0.14614  0  1.010339  0
H  H15  1  0.80265871  0.32583178  0.61437182  1  0  0.13209  0.146044  0  1.010528  0
H  H16  1  0.05150927  0.40624874  0.23782675  1  0  0.273539  0.3585  0  1.000525  0
H  H17  1  0.94849185  0.90624863  0.76217385  1  0  0.273521  0.358432  0  1.000609  0
H  H18  1  0.94849563  0.90624186  0.23782934  1  0  0.273558  0.35849  0  1.000528  0
H  H19  1  0.05150348  0.40624857  0.76217206  1  0  0.273561  0.358509  0  1.00051  0
H  H20  1  0.77332972  0.40867747  0.18064293  1  0  0.280486  0.358144  0  0.997234  0
H  H21  1  0.22666733  0.90867078  0.81935368  1  0  0.280486  0.358151  0  0.99724  0
H  H22  1  0.22667219  0.90867090  0.18064526  1  0  0.280506  0.358141  0  0.997228  0
H  H23  1  0.77332889  0.40868033  0.81935697  1  0  0.28049  0.358102  0  0.99728  0
H  H24  1  0.44110520  0.40831847  0.93740038  1  0  0.283955  0.369982  0  0.982267  0
H  H25  1  0.55889588  0.90831826  0.06259864  1  0  0.283997  0.370068  0  0.982144  0
H  H26  1  0.55889093  0.90832228  0.93740116  1  0  0.283968  0.370036  0  0.982181  0
H  H27  1  0.44111419  0.40832337  0.06259866  1  0  0.283995  0.370052  0  0.982156  0
C  C28  1  0.56106779  0.06299619  0.25522119  1  0  0.205615  0.610534  0  4.223605  0
C  C29  1  0.43892969  0.56300204  0.74477604  1  0  0.205618  0.610531  0  4.223755  0
C  C30  1  0.43894181  0.56300055  0.25521044  1  0  0.205731  0.610833  0  4.223748  0
C  C31  1  0.56106574  0.06300561  0.74477557  1  0  0.205781  0.610756  0  4.224027  0
C  C32  1  0.38409335  0.17312257  0.30292196  1  0  -0.050111  -0.227632  0  3.826686  0
C  C33  1  0.61591214  0.67312179  0.69708061  1  0  -0.05016  -0.227814  0  3.826492  0
C  C34  1  0.61591699  0.67312315  0.30291728  1  0  -0.050164  -0.227789  0  3.826678  0
C  C35  1  0.38407641  0.17313112  0.69708289  1  0  -0.05012  -0.22775  0  3.826534  0
C  C36  1  0.32285607  0.16103445  0.50000949  1  0  0.17704  0.046709  0  3.783976  0
C  C37  1  0.67714763  0.66103277  0.50000817  1  0  0.177062  0.046807  0  3.783978  0
C  C38  1  0.67062922  0.28145507  0.44510362  1  0  0.01957  -0.085752  0  3.891152  0
C  C39  1  0.32937223  0.78145399  0.55490669  1  0  0.01956  -0.085656  0  3.891139  0
C  C40  1  0.32937738  0.78145497  0.44510059  1  0  0.019613  -0.085689  0  3.891274  0
C  C41  1  0.67062810  0.28145806  0.55491132  1  0  0.019636  -0.085527  0  3.891004  0
N  N42  1  0.45178190  0.20653657  0.41297047  1  0  -0.224469  0.097501  0  3.811585  0
N  N43  1  0.54823506  0.70652914  0.58701648  1  0  -0.224355  0.097793  0  3.812097  0
N  N44  1  0.54822960  0.70653449  0.41297042  1  0  -0.22441  0.097511  0  3.811647  0
N  N45  1  0.45176115  0.20653420  0.58701653  1  0  -0.224327  0.097801  0  3.812052  0
O  O46  1  0.49117662  0.03075963  0.16026199  1  0  -0.372787  -0.636542  0  2.246937  0
O  O47  1  0.50880937  0.53076392  0.83973726  1  0  -0.372742  -0.636459  0  2.246936  0
O  O48  1  0.50883204  0.53076862  0.16025783  1  0  -0.372741  -0.636497  0  2.247297  0
O  O49  1  0.49116604  0.03076484  0.83973741  1  0  -0.372832  -0.636581  0  2.246788  0
O  O50  1  0.75073889  0.01491748  0.30980110  1  0  -0.326939  -0.565266  0  2.157905  0
O  O51  1  0.24925344  0.51492220  0.69019876  1  0  -0.326951  -0.565271  0  2.157979  0
O  O52  1  0.24926041  0.51493062  0.30979065  1  0  -0.327054  -0.565474  0  2.157888  0
O  O53  1  0.75074199  0.01493779  0.69020920  1  0  -0.327002  -0.565317  0  2.158462  0
O  O54  1  0.91475637  0.34670097  0.20421190  1  0  -0.663819  -0.819502  0  1.969752  0
O  O55  1  0.08524385  0.84669647  0.79578957  1  0  -0.663804  -0.819458  0  1.969775  0
O  O56  1  0.08524910  0.84669504  0.20421226  1  0  -0.663846  -0.819473  0  1.969774  0
O  O57  1  0.91475112  0.34670339  0.79578922  1  0  -0.663838  -0.819453  0  1.969796  0
O  O58  1  0.43957455  0.34820252  0.00000108  1  0  -0.739067  -0.851537  0  1.96466  0
O  O59  1  0.56043976  0.84820356  0.99999962  1  0  -0.739095  -0.851604  0  1.964647  0
