# generated using pymatgen
data_ZnH19C25Br(NO)4
_symmetry_space_group_name_H-M   'P 1'
_cell_length_a   9.53972425
_cell_length_b   10.31101195
_cell_length_c   13.67686956
_cell_angle_alpha   73.37531540
_cell_angle_beta   79.56334690
_cell_angle_gamma   65.69649566
_symmetry_Int_Tables_number   1
_chemical_formula_structural   ZnH19C25Br(NO)4
_chemical_formula_sum   'Zn2 H38 C50 Br2 N8 O8'
_cell_volume   1171.73888550
_cell_formula_units_Z   2
loop_
 _symmetry_equiv_pos_site_id
 _symmetry_equiv_pos_as_xyz
  1  'x, y, z'
loop_
 _atom_site_type_symbol
 _atom_site_label
 _atom_site_symmetry_multiplicity
 _atom_site_fract_x
 _atom_site_fract_y
 _atom_site_fract_z
 _atom_site_occupancy
 _atom_site_hle17_bader_spin_density
 _atom_site_hle17_ddec_charge
 _atom_site_hle17_ddec_spin_density
 _atom_site_hle17_ddec_sum_bond_order
 _atom_site_hle17_magmom
 _atom_site_hse06_10hf_bader_spin_density
 _atom_site_hse06_10hf_ddec_charge
 _atom_site_hse06_10hf_ddec_spin_density
 _atom_site_hse06_10hf_ddec_sum_bond_order
 _atom_site_hse06_10hf_magmom
 _atom_site_hse06_bader_spin_density
 _atom_site_hse06_ddec_charge
 _atom_site_hse06_ddec_spin_density
 _atom_site_hse06_ddec_sum_bond_order
 _atom_site_hse06_magmom
 _atom_site_pbe_bader_spin_density
 _atom_site_pbe_cm5_charge
 _atom_site_pbe_ddec_charge
 _atom_site_pbe_ddec_spin_density
 _atom_site_pbe_ddec_sum_bond_order
 _atom_site_pbe_magmom
Zn  Zn0  1  0.82439152  0.38026388  0.24692949  1  0  1.020035  0  1.864277  0  0  0.836966  0  2.338447  0  0  0.882197  0  2.283917  0  0  0.70165  0.801926  0  2.379134  0
Zn  Zn1  1  0.17560999  0.61973437  0.75307057  1  0  1.020057  0  1.864188  0  0  0.837015  0  2.338327  0  0  0.88227  0  2.28381  0  0  0.701659  0.801973  0  2.379028  0
H  H2  1  0.86603105  0.85001140  0.27838910  1  0  0.107478  0  0.952139  0  0  0.114105  0  1.019211  0  0  0.119168  0  1.013938  0  0  0.102212  0.110236  0  1.023543  0
H  H3  1  0.13396467  0.14999347  0.72160882  1  0  0.107438  0  0.952157  0  0  0.114054  0  1.019245  0  0  0.119113  0  1.013976  0  0  0.102179  0.110185  0  1.023577  0
H  H4  1  0.75204226  0.78958499  0.00819810  1  0  0.119397  0  0.95785  0  0  0.125906  0  1.024759  0  0  0.129439  0  1.022717  0  0  0.105623  0.123289  0  1.026149  0
H  H5  1  0.24796480  0.21040993  0.99179976  1  0  0.119459  0  0.957783  0  0  0.125942  0  1.024716  0  0  0.129472  0  1.022679  0  0  0.105639  0.123344  0  1.026092  0
H  H6  1  0.80030319  0.19154593  0.00248767  1  0  0.116478  0  0.938185  0  0  0.125923  0  1.000807  0  0  0.129876  0  0.997866  0  0  0.108446  0.122926  0  1.003186  0
H  H7  1  0.19969016  0.80845680  0.99750882  1  0  0.116479  0  0.938177  0  0  0.125931  0  1.000793  0  0  0.129884  0  0.997853  0  0  0.108458  0.122935  0  1.003171  0
H  H8  1  0.46859617  0.56532278  0.20399456  1  0  0.111869  0  0.94463  0  0  0.12215  0  1.005042  0  0  0.125429  0  1.003093  0  0  0.106208  0.119903  0  1.006325  0
H  H9  1  0.53140470  0.43467983  0.79600391  1  0  0.111894  0  0.944591  0  0  0.122185  0  1.00499  0  0  0.12547  0  1.003042  0  0  0.106201  0.119937  0  1.006273  0
H  H10  1  0.18287036  0.63444128  0.23326627  1  0  0.090949  0  0.956251  0  0  0.100382  0  1.019636  0  0  0.102558  0  1.019751  0  0  0.097183  0.098826  0  1.019606  0
H  H11  1  0.81713223  0.36556240  0.76673247  1  0  0.090992  0  0.956215  0  0  0.10041  0  1.019622  0  0  0.102586  0  1.019736  0  0  0.097175  0.098854  0  1.019591  0
H  H12  1  0.06467593  0.54115667  0.39783910  1  0  0.104989  0  0.959281  0  0  0.117927  0  1.01468  0  0  0.120619  0  1.013796  0  0  0.100785  0.11592  0  1.015569  0
H  H13  1  0.93532408  0.45884814  0.60215827  1  0  0.104974  0  0.95928  0  0  0.117882  0  1.014718  0  0  0.120572  0  1.013836  0  0  0.100805  0.115877  0  1.015597  0
H  H14  1  0.22501208  0.38105344  0.54670081  1  0  0.127725  0  0.993069  0  0  0.137255  0  1.054937  0  0  0.141147  0  1.05193  0  0  0.104882  0.134341  0  1.057223  0
H  H15  1  0.77498771  0.61894919  0.45329706  1  0  0.127751  0  0.993015  0  0  0.137273  0  1.054888  0  0  0.141168  0  1.051879  0  0  0.104884  0.134356  0  1.057181  0
H  H16  1  0.80314872  0.23485037  0.49149144  1  0  0.093011  0  0.91749  0  0  0.108739  0  0.9721  0  0  0.110542  0  0.96928  0  0  0.143719  0.10716  0  0.974511  0
H  H17  1  0.19685258  0.76515115  0.50850867  1  0  0.093021  0  0.91743  0  0  0.108729  0  0.972067  0  0  0.110535  0  0.969245  0  0  0.143712  0.107152  0  0.974478  0
H  H18  1  0.46802771  0.29419011  0.66665793  1  0  0.092136  0  0.928002  0  0  0.10751  0  0.989058  0  0  0.107808  0  0.989866  0  0  0.115351  0.107049  0  0.988856  0
H  H19  1  0.53197121  0.70580927  0.33334003  1  0  0.092127  0  0.928081  0  0  0.107498  0  0.989129  0  0  0.107798  0  0.98994  0  0  0.115343  0.107037  0  0.988928  0
H  H20  1  0.66255947  0.17357488  0.65210498  1  0  0.073881  0  0.932429  0  0  0.091222  0  0.995355  0  0  0.091633  0  0.995275  0  0  0.106644  0.090847  0  0.995523  0
H  H21  1  0.33743817  0.82642778  0.34789316  1  0  0.073893  0  0.932413  0  0  0.091237  0  0.995316  0  0  0.09165  0  0.99524  0  0  0.106627  0.090858  0  0.995482  0
H  H22  1  0.46386251  0.05493511  0.72130033  1  0  0.095405  0  0.942409  0  0  0.112757  0  1.003886  0  0  0.113122  0  1.005402  0  0  0.103105  0.112342  0  1.003074  0
H  H23  1  0.53613963  0.94506422  0.27869794  1  0  0.095408  0  0.942402  0  0  0.112791  0  1.003848  0  0  0.11313  0  1.00539  0  0  0.103109  0.112377  0  1.003039  0
H  H24  1  0.38243049  0.13342525  0.60312642  1  0  0.088282  0  0.937193  0  0  0.106583  0  0.997859  0  0  0.10717  0  0.998247  0  0  0.102529  0.106211  0  0.997465  0
H  H25  1  0.61757208  0.86657299  0.39687204  1  0  0.088318  0  0.937181  0  0  0.106592  0  0.997883  0  0  0.107176  0  0.998267  0  0  0.102545  0.106221  0  0.997489  0
H  H26  1  0.54276213  0.89709475  0.58409800  1  0  0.075163  0  0.927794  0  0  0.091814  0  0.990588  0  0  0.09206  0  0.991355  0  0  0.111823  0.091571  0  0.990149  0
H  H27  1  0.45723980  0.10290241  0.41590150  1  0  0.075204  0  0.927792  0  0  0.09183  0  0.9906  0  0  0.092087  0  0.991345  0  0  0.111834  0.091587  0  0.990161  0
H  H28  1  0.66732485  0.99071770  0.52599845  1  0  0.076084  0  0.914871  0  0  0.094356  0  0.97462  0  0  0.094893  0  0.974268  0  0  0.11487  0.093872  0  0.974922  0
H  H29  1  0.33267987  0.00927506  0.47400310  1  0  0.076044  0  0.915011  0  0  0.09433  0  0.974726  0  0  0.094867  0  0.974373  0  0  0.114857  0.093846  0  0.975026  0
H  H30  1  0.92994956  0.87106262  0.58963656  1  0  0.093526  0  0.919532  0  0  0.108569  0  0.975076  0  0  0.110955  0  0.970986  0  0  0.140289  0.106625  0  0.978226  0
H  H31  1  0.07005279  0.12892799  0.41036430  1  0  0.093479  0  0.919534  0  0  0.108509  0  0.975101  0  0  0.110896  0  0.971008  0  0  0.140267  0.106564  0  0.97825  0
H  H32  1  0.44207434  0.82615001  0.78448063  1  0  0.102704  0  0.981038  0  0  0.113913  0  1.041231  0  0  0.115792  0  1.04145  0  0  0.101891  0.112466  0  1.041312  0
H  H33  1  0.55792204  0.17385047  0.21552180  1  0  0.102724  0  0.981079  0  0  0.113954  0  1.041237  0  0  0.115831  0  1.041461  0  0  0.101901  0.112506  0  1.041318  0
H  H34  1  0.46285151  0.64140120  0.94892339  1  0  0.089005  0  0.964932  0  0  0.100149  0  1.027026  0  0  0.102269  0  1.026884  0  0  0.099696  0.098579  0  1.027236  0
H  H35  1  0.53714319  0.35860366  0.05108124  1  0  0.088997  0  0.964948  0  0  0.100141  0  1.02706  0  0  0.102261  0  1.026917  0  0  0.099691  0.098572  0  1.02727  0
H  H36  1  0.71848756  0.47814852  0.01738961  1  0  0.10254  0  0.968569  0  0  0.113124  0  1.029995  0  0  0.116467  0  1.027632  0  0  0.100486  0.110478  0  1.032354  0
H  H37  1  0.28150630  0.52185307  0.98261875  1  0  0.102471  0  0.968718  0  0  0.11304  0  1.030147  0  0  0.116407  0  1.027757  0  0  0.100468  0.110395  0  1.0325  0
H  H38  1  0.96048154  0.49671620  0.92246501  1  0  0.114472  0  0.959327  0  0  0.126047  0  1.016163  0  0  0.128675  0  1.015612  0  0  0.108514  0.123952  0  1.017007  0
H  H39  1  0.03951250  0.50328213  0.07754038  1  0  0.114441  0  0.959368  0  0  0.126039  0  1.016176  0  0  0.128669  0  1.01562  0  0  0.108523  0.123937  0  1.017018  0
C  C40  1  0.84426952  0.12846509  0.20665872  1  0  0.62761  0  3.949799  0  0  0.580267  0  4.245238  0  0  0.614135  0  4.238262  0  0  0.188737  0.557146  0  4.248799  0
C  C41  1  0.15572663  0.87153867  0.79334011  1  0  0.627502  0  3.949727  0  0  0.580157  0  4.245185  0  0  0.614024  0  4.238214  0  0  0.188711  0.557036  0  4.248742  0
C  C42  1  0.83393787  0.03086450  0.14685460  1  0  -0.057467  0  3.760709  0  0  -0.030845  0  3.995845  0  0  -0.039804  0  4.019096  0  0  -0.020933  -0.025579  0  3.980716  0
C  C43  1  0.16605829  0.96913926  0.85314423  1  0  -0.057527  0  3.76062  0  0  -0.030929  0  3.995806  0  0  -0.039887  0  4.01905  0  0  -0.020959  -0.025661  0  3.980675  0
C  C44  1  0.84100208  0.89055764  0.19821070  1  0  -0.083501  0  3.722075  0  0  -0.122023  0  3.972192  0  0  -0.11882  0  3.989543  0  0  -0.083066  -0.124053  0  3.961494  0
C  C45  1  0.15899792  0.10944718  0.80178595  1  0  -0.083378  0  3.721982  0  0  -0.121883  0  3.9721  0  0  -0.118674  0  3.989456  0  0  -0.082988  -0.123918  0  3.961395  0
C  C46  1  0.81121573  0.80395997  0.14902039  1  0  -0.059267  0  3.764869  0  0  -0.031333  0  3.996182  0  0  -0.040663  0  4.019531  0  0  -0.020457  -0.025456  0  3.981046  0
C  C47  1  0.18878535  0.19603937  0.85097948  1  0  -0.05925  0  3.764863  0  0  -0.031318  0  3.996136  0  0  -0.04065  0  4.019485  0  0  -0.020439  -0.025428  0  3.980983  0
C  C48  1  0.77737712  0.85630420  0.04602494  1  0  -0.102982  0  3.698403  0  0  -0.138581  0  3.943588  0  0  -0.135569  0  3.960275  0  0  -0.084056  -0.13896  0  3.930315  0
C  C49  1  0.22262481  0.14369296  0.95397383  1  0  -0.103147  0  3.698432  0  0  -0.13872  0  3.943644  0  0  -0.135709  0  3.960333  0  0  -0.084122  -0.139124  0  3.930356  0
C  C50  1  0.77620927  0.99452525  0.99492806  1  0  0.092718  0  3.719852  0  0  0.112831  0  3.987083  0  0  0.11302  0  4.009348  0  0  -0.013803  0.112182  0  3.970766  0
C  C51  1  0.22379157  0.00547193  0.00506938  1  0  0.09281  0  3.719935  0  0  0.112891  0  3.987192  0  0  0.113082  0  4.009457  0  0  -0.013763  0.112242  0  3.970881  0
C  C52  1  0.80390059  0.08288148  0.04314231  1  0  -0.105717  0  3.711302  0  0  -0.142653  0  3.963371  0  0  -0.14111  0  3.982334  0  0  -0.084102  -0.142571  0  3.950411  0
C  C53  1  0.19609642  0.91712010  0.95685688  1  0  -0.105704  0  3.711318  0  0  -0.142623  0  3.9634  0  0  -0.141083  0  3.982365  0  0  -0.084121  -0.142544  0  3.95044  0
C  C54  1  0.81249749  0.65685550  0.20922490  1  0  0.625698  0  3.940367  0  0  0.5782  0  4.230965  0  0  0.611741  0  4.224463  0  0  0.19633  0.555039  0  4.235213  0
C  C55  1  0.18750938  0.34314267  0.79077521  1  0  0.625796  0  3.940232  0  0  0.578349  0  4.230757  0  0  0.611893  0  4.224251  0  0  0.196431  0.555184  0  4.235002  0
C  C56  1  0.50655477  0.42945798  0.35844945  1  0  0.142748  0  3.814246  0  0  0.138646  0  4.062035  0  0  0.14198  0  4.085054  0  0  0.083936  0.136474  0  4.047071  0
C  C57  1  0.49344417  0.57054139  0.64155143  1  0  0.142732  0  3.814267  0  0  0.138664  0  4.062018  0  0  0.141997  0  4.085037  0  0  0.083944  0.136488  0  4.047058  0
C  C58  1  0.41613629  0.52378089  0.27731358  1  0  -0.150894  0  3.764238  0  0  -0.169365  0  4.018513  0  0  -0.172207  0  4.039129  0  0  -0.094118  -0.167804  0  4.005237  0
C  C59  1  0.58386607  0.47622062  0.72268420  1  0  -0.150852  0  3.764436  0  0  -0.169327  0  4.018656  0  0  -0.172177  0  4.039284  0  0  -0.094074  -0.167762  0  4.005377  0
C  C60  1  0.25737912  0.56206569  0.29460812  1  0  -0.069517  0  3.787318  0  0  -0.088359  0  4.045765  0  0  -0.090721  0  4.069962  0  0  -0.096793  -0.087011  0  4.029964  0
C  C61  1  0.74261812  0.43793806  0.70539131  1  0  -0.069669  0  3.78746  0  0  -0.088513  0  4.045922  0  0  -0.090878  0  4.070122  0  0  -0.096833  -0.087165  0  4.030119  0
C  C62  1  0.18955447  0.50889411  0.38971191  1  0  -0.070728  0  3.756047  0  0  -0.086786  0  4.010409  0  0  -0.089338  0  4.033615  0  0  -0.098043  -0.084919  0  3.994795  0
C  C63  1  0.81044725  0.49111177  0.61028428  1  0  -0.070722  0  3.755981  0  0  -0.086767  0  4.010363  0  0  -0.089316  0  4.033568  0  0  -0.098127  -0.084896  0  3.994748  0
C  C64  1  0.27779170  0.41640981  0.47172338  1  0  -0.164387  0  3.753053  0  0  -0.18719  0  4.011258  0  0  -0.190511  0  4.031311  0  0  -0.104809  -0.184825  0  3.997222  0
C  C65  1  0.72220852  0.58359173  0.52827540  1  0  -0.164345  0  3.753057  0  0  -0.187126  0  4.01121  0  0  -0.190449  0  4.031261  0  0  -0.104746  -0.184758  0  3.997181  0
C  C66  1  0.43735941  0.37763806  0.45391655  1  0  0.094443  0  3.763753  0  0  0.08431  0  4.010786  0  0  0.08782  0  4.033536  0  0  0.084864  0.082131  0  3.995443  0
C  C67  1  0.56264338  0.62236235  0.54608214  1  0  0.094395  0  3.763741  0  0  0.084291  0  4.010753  0  0  0.087805  0  4.033496  0  0  0.084851  0.082111  0  3.995415  0
C  C68  1  0.69119103  0.29261995  0.46000227  1  0  0.213172  0  3.671886  0  0  0.144672  0  3.947782  0  0  0.162581  0  3.95764  0  0  0.164662  0.132981  0  3.940864  0
C  C69  1  0.30881240  0.70738155  0.53999611  1  0  0.21324  0  3.671826  0  0  0.144785  0  3.947748  0  0  0.162697  0  3.957602  0  0  0.164738  0.133095  0  3.94083  0
C  C70  1  0.54782248  0.21410733  0.62376986  1  0  0.010916  0  3.623688  0  0  -0.053748  0  3.885901  0  0  -0.048913  0  3.897103  0  0  -0.052391  -0.056858  0  3.878695  0
C  C71  1  0.45217751  0.78589203  0.37622796  1  0  0.010865  0  3.623842  0  0  -0.053723  0  3.885976  0  0  -0.048909  0  3.89719  0  0  -0.052372  -0.056825  0  3.878765  0
C  C72  1  0.49172930  0.09024018  0.63907274  1  0  -0.162684  0  3.660021  0  0  -0.208885  0  3.924569  0  0  -0.210675  0  3.936888  0  0  -0.162884  -0.207616  0  3.916108  0
C  C73  1  0.50827369  0.90975696  0.36092517  1  0  -0.162687  0  3.6601  0  0  -0.208932  0  3.924635  0  0  -0.210682  0  3.936937  0  0  -0.162891  -0.207667  0  3.916179  0
C  C74  1  0.60533762  0.95774978  0.59863285  1  0  0.015924  0  3.631019  0  0  -0.051248  0  3.900066  0  0  -0.046066  0  3.910519  0  0  -0.049553  -0.05424  0  3.892268  0
C  C75  1  0.39466412  0.04225064  0.40136891  1  0  0.015861  0  3.631272  0  0  -0.051269  0  3.900254  0  0  -0.046089  0  3.910701  0  0  -0.049567  -0.054261  0  3.892457  0
C  C76  1  0.87567219  0.81617888  0.65529591  1  0  0.208503  0  3.675203  0  0  0.139944  0  3.949729  0  0  0.157891  0  3.959124  0  0  0.162419  0.128368  0  3.942885  0
C  C77  1  0.12432761  0.18381285  0.34470723  1  0  0.208605  0  3.674995  0  0  0.140054  0  3.949505  0  0  0.157996  0  3.958901  0  0  0.162415  0.12848  0  3.942659  0
C  C78  1  0.83660071  0.67320239  0.80005218  1  0  0.150112  0  3.812849  0  0  0.146926  0  4.057505  0  0  0.150009  0  4.081484  0  0  0.089304  0.144561  0  4.041278  0
C  C79  1  0.16339869  0.32679587  0.19995253  1  0  0.150145  0  3.812725  0  0  0.146923  0  4.057489  0  0  0.150004  0  4.081464  0  0  0.089298  0.144558  0  4.041264  0
C  C80  1  0.69076488  0.76526465  0.76215134  1  0  0.090466  0  3.797276  0  0  0.080279  0  4.040614  0  0  0.083453  0  4.063511  0  0  0.08848  0.077504  0  4.026169  0
C  C81  1  0.30923322  0.23473146  0.23785181  1  0  0.090571  0  3.79721  0  0  0.080271  0  4.040741  0  0  0.083446  0  4.063638  0  0  0.088541  0.077494  0  4.026298  0
C  C82  1  0.55404520  0.75617306  0.81406656  1  0  -0.144071  0  3.76922  0  0  -0.164061  0  4.021497  0  0  -0.166854  0  4.04331  0  0  -0.097917  -0.162331  0  4.007514  0
C  C83  1  0.44595184  0.24382850  0.18593774  1  0  -0.144124  0  3.769109  0  0  -0.164086  0  4.021437  0  0  -0.166881  0  4.043252  0  0  -0.097901  -0.162355  0  4.007455  0
C  C84  1  0.56750232  0.65141165  0.90627736  1  0  -0.063639  0  3.765092  0  0  -0.078374  0  4.015976  0  0  -0.081022  0  4.039465  0  0  -0.091995  -0.076265  0  4.000015  0
C  C85  1  0.43249409  0.34858883  0.09372800  1  0  -0.063642  0  3.764997  0  0  -0.07839  0  4.015883  0  0  -0.081039  0  4.03938  0  0  -0.092023  -0.076279  0  3.999915  0
C  C86  1  0.71213397  0.55870319  0.94483533  1  0  -0.067398  0  3.75437  0  0  -0.083642  0  4.006402  0  0  -0.085433  0  4.027465  0  0  -0.092809  -0.082801  0  3.992727  0
C  C87  1  0.28786415  0.44129835  0.05516957  1  0  -0.067368  0  3.754393  0  0  -0.083587  0  4.006411  0  0  -0.085399  0  4.027467  0  0  -0.092792  -0.082747  0  3.992738  0
C  C88  1  0.84860573  0.56801440  0.89267523  1  0  -0.133789  0  3.711513  0  0  -0.150795  0  3.956851  0  0  -0.1539  0  3.977374  0  0  -0.088078  -0.148287  0  3.943111  0
C  C89  1  0.15138895  0.43198501  0.10732985  1  0  -0.133727  0  3.711425  0  0  -0.150721  0  3.956748  0  0  -0.153827  0  3.977278  0  0  -0.088083  -0.148205  0  3.943001  0
Br  Br90  1  0.73002613  0.06809304  0.85478862  1  0  -0.071468  0  1.271007  0  0  -0.061615  0  1.517878  0  0  -0.066065  0  1.51379  0  0  0.042364  -0.057629  0  1.51866  0
Br  Br91  1  0.26997835  0.93190300  0.14520787  1  0  -0.071495  0  1.27103  0  0  -0.061637  0  1.517921  0  0  -0.066086  0  1.51383  0  0  0.042351  -0.057648  0  1.518704  0
N  N92  1  0.66567888  0.37348949  0.36532443  1  0  -0.423321  0  3.263116  0  0  -0.350506  0  3.567952  0  0  -0.370497  0  3.575663  0  0  -0.353643  -0.336721  0  3.562658  0
N  N93  1  0.33431984  0.62651315  0.63467357  1  0  -0.423378  0  3.263155  0  0  -0.350598  0  3.568005  0  0  -0.3706  0  3.575733  0  0  -0.353682  -0.336813  0  3.562712  0
N  N94  1  0.55907660  0.29067507  0.51662703  1  0  -0.12251  0  3.513729  0  0  -0.033865  0  3.741581  0  0  -0.050459  0  3.766102  0  0  -0.241354  -0.023142  0  3.725211  0
N  N95  1  0.44092662  0.70932425  0.48337185  1  0  -0.122437  0  3.513688  0  0  -0.0339  0  3.741603  0  0  -0.05049  0  3.766128  0  0  -0.241358  -0.023176  0  3.725231  0
N  N96  1  0.72026923  0.85444714  0.66985002  1  0  -0.128237  0  3.538149  0  0  -0.03963  0  3.766758  0  0  -0.056126  0  3.791142  0  0  -0.245159  -0.028574  0  3.74985  0
N  N97  1  0.27973292  0.14554674  0.33015162  1  0  -0.128291  0  3.53825  0  0  -0.039677  0  3.766917  0  0  -0.056174  0  3.791306  0  0  -0.245223  -0.02862  0  3.750009  0
N  N98  1  0.94927945  0.70865803  0.73079918  1  0  -0.418153  0  3.278656  0  0  -0.344828  0  3.577979  0  0  -0.365314  0  3.587925  0  0  -0.351081  -0.33074  0  3.570868  0
N  N99  1  0.05072099  0.29133478  0.26920365  1  0  -0.418219  0  3.278515  0  0  -0.34484  0  3.577824  0  0  -0.365311  0  3.58775  0  0  -0.351032  -0.330752  0  3.570713  0
O  O100  1  0.81447757  0.26367628  0.15645928  1  0  -0.646994  0  2.009895  0  0  -0.573426  0  2.273457  0  0  -0.601927  0  2.259598  0  0  -0.336549  -0.552158  0  2.283217  0
O  O101  1  0.18552113  0.73632638  0.84353654  1  0  -0.646896  0  2.00986  0  0  -0.573326  0  2.273421  0  0  -0.601833  0  2.259575  0  0  -0.336495  -0.552058  0  2.283181  0
O  O102  1  0.87169220  0.07907599  0.29921676  1  0  -0.650519  0  1.889032  0  0  -0.614786  0  2.109151  0  0  -0.637075  0  2.100388  0  0  -0.357609  -0.598421  0  2.114398  0
O  O103  1  0.12830329  0.92092670  0.70077946  1  0  -0.650537  0  1.888903  0  0  -0.614799  0  2.109006  0  0  -0.637091  0  2.100255  0  0  -0.35766  -0.598432  0  2.114251  0
O  O104  1  0.84594277  0.61233994  0.30065863  1  0  -0.621746  0  1.958559  0  0  -0.578649  0  2.193823  0  0  -0.601319  0  2.185193  0  0  -0.321326  -0.562199  0  2.198722  0
O  O105  1  0.15406496  0.38766150  0.69934067  1  0  -0.621814  0  1.958611  0  0  -0.57871  0  2.193813  0  0  -0.601384  0  2.185181  0  0  -0.321395  -0.562264  0  2.198718  0
O  O106  1  0.77834783  0.58273087  0.16136049  1  0  -0.648452  0  2.026608  0  0  -0.576284  0  2.295123  0  0  -0.604075  0  2.280486  0  0  -0.334481  -0.555752  0  2.305852  0
O  O107  1  0.22165114  0.41726849  0.83864331  1  0  -0.648477  0  2.026527  0  0  -0.576363  0  2.29508  0  0  -0.604156  0  2.280437  0  0  -0.334506  -0.555835  0  2.305818  0
