# generated using pymatgen
data_CuH11C8S(NO2)3
_symmetry_space_group_name_H-M   'P 1'
_cell_length_a   6.22880293
_cell_length_b   6.87813083
_cell_length_c   13.49401415
_cell_angle_alpha   90.00006672
_cell_angle_beta   89.34070318
_cell_angle_gamma   90.00009739
_symmetry_Int_Tables_number   1
_chemical_formula_structural   CuH11C8S(NO2)3
_chemical_formula_sum   'Cu2 H22 C16 S2 N6 O12'
_cell_volume   578.07931818
_cell_formula_units_Z   2
loop_
 _symmetry_equiv_pos_site_id
 _symmetry_equiv_pos_as_xyz
  1  'x, y, z'
loop_
 _atom_site_type_symbol
 _atom_site_label
 _atom_site_symmetry_multiplicity
 _atom_site_fract_x
 _atom_site_fract_y
 _atom_site_fract_z
 _atom_site_occupancy
 _atom_site_hle17_ddec_charge
 _atom_site_hle17_ddec_spin_density
 _atom_site_hle17_ddec_sum_bond_order
 _atom_site_hle17_magmom
 _atom_site_hse06_10hf_ddec_charge
 _atom_site_hse06_10hf_ddec_spin_density
 _atom_site_hse06_10hf_ddec_sum_bond_order
 _atom_site_hse06_10hf_magmom
 _atom_site_hse06_ddec_charge
 _atom_site_hse06_ddec_spin_density
 _atom_site_hse06_ddec_sum_bond_order
 _atom_site_hse06_magmom
 _atom_site_pbe_cm5_charge
 _atom_site_pbe_ddec_charge
 _atom_site_pbe_ddec_spin_density
 _atom_site_pbe_ddec_sum_bond_order
 _atom_site_pbe_magmom
Cu  Cu0  1  0.01014415  0.81275570  0.00002414  1  0.90329  -0.630501  1.851493  -0.475  0.887025  -0.752517  2.249254  -0.617  0.972641  -0.849123  2.185018  -0.715  0.733648  0.829161  -0.590378  2.295133  -0.476
Cu  Cu1  1  0.98986919  0.31275399  0.99998010  1  0.903209  0.6305  1.851677  0.475  0.886954  0.752512  2.249455  0.617  0.972559  0.849117  2.185196  0.715  0.733667  0.829113  0.590384  2.295304  0.476
H  H2  1  0.79255296  0.05139099  0.08449677  1  0.38024  -1.9e-05  0.874086  0.0  0.369585  -0.000109  0.93416  0.0  0.377591  -9.2e-05  0.9299  0.0  0.290641  0.363324  -0.000103  0.937996  0.0
H  H3  1  0.20743184  0.55140547  0.91549155  1  0.380185  2.2e-05  0.874119  0.0  0.369497  0.00011  0.934263  0.0  0.377504  9.3e-05  0.930001  0.0  0.290576  0.363234  0.000104  0.938093  0.0
H  H4  1  0.38699274  0.77711997  0.14361204  1  0.422253  -1e-06  0.877996  0.0  0.392847  2.4e-05  0.939344  0.0  0.403071  1.8e-05  0.924385  0.0  0.284584  0.385656  2.4e-05  0.949893  0.0
H  H5  1  0.61300300  0.27711018  0.85638983  1  0.422289  0.0  0.877911  0.0  0.392889  -2.4e-05  0.939238  0.0  0.403105  -1.8e-05  0.924291  0.0  0.284619  0.385698  -2.4e-05  0.949784  0.0
H  H6  1  0.38606167  0.58166562  0.07993324  1  0.427013  1.3e-05  0.878889  0.0  0.39925  1.5e-05  0.936948  0.0  0.410221  1.7e-05  0.921001  0.0  0.281428  0.391583  1e-05  0.948042  0.0
H  H7  1  0.61393843  0.08165600  0.92006856  1  0.427042  -1.3e-05  0.878827  0.0  0.3993  -1.5e-05  0.936856  0.0  0.410264  -1.8e-05  0.920918  0.0  0.281484  0.391632  -1e-05  0.94795  0.0
H  H8  1  0.64977391  0.76791507  0.86903745  1  0.429893  -5e-06  0.866356  0.0  0.400858  2.8e-05  0.926798  0.0  0.411261  1.9e-05  0.911551  0.0  0.288883  0.393516  2.7e-05  0.937576  0.0
H  H9  1  0.35023460  0.26792927  0.13096525  1  0.42991  4e-06  0.866328  0.0  0.400873  -2.8e-05  0.926773  0.0  0.411275  -2e-05  0.911527  0.0  0.288885  0.393535  -2.7e-05  0.937548  0.0
H  H10  1  0.54971433  0.79048670  0.98233177  1  0.434488  -4e-06  0.870028  0.0  0.404221  3.7e-05  0.932427  0.0  0.414833  2.5e-05  0.916883  0.0  0.282768  0.396705  3.6e-05  0.943462  0.0
H  H11  1  0.45028309  0.29049491  0.01766938  1  0.434486  3e-06  0.870027  0.0  0.404248  -3.7e-05  0.932377  0.0  0.414858  -2.6e-05  0.916838  0.0  0.282779  0.396733  -3.6e-05  0.943413  0.0
H  H12  1  0.91043083  0.87068797  0.23783041  1  0.137632  0.000425  0.93479  0.0  0.143857  0.000463  0.996913  0.0  0.147341  0.000356  0.991865  0.0  0.151449  0.141031  0.000478  1.001004  0.0
H  H13  1  0.08956365  0.37067296  0.76216927  1  0.137551  -0.00042  0.93515  0.0  0.143825  -0.000464  0.997177  0.0  0.14731  -0.000356  0.992125  0.0  0.151441  0.140998  -0.000478  1.001266  0.0
H  H14  1  0.80483454  0.26219846  0.23089001  1  0.130924  -0.000519  0.971022  0.0  0.13665  -0.000495  1.035725  0.0  0.140566  -0.0004  1.030472  0.0  0.146283  0.133403  -0.00049  1.0402  0.0
H  H15  1  0.19517070  0.76219219  0.76911341  1  0.130811  0.000517  0.970774  0.0  0.136613  0.000495  1.035426  0.0  0.140466  0.0004  1.030272  0.0  0.146262  0.133363  0.00049  1.0399  0.0
H  H16  1  0.47105555  0.44985985  0.33973302  1  0.125803  3e-05  0.947753  0.0  0.132407  1.6e-05  1.010551  0.0  0.136433  1.4e-05  1.007579  0.0  0.111552  0.129442  1.6e-05  1.01286  0.0
H  H17  1  0.52894091  0.94985370  0.66026374  1  0.12587  -3.1e-05  0.947788  0.0  0.132454  -1.6e-05  1.010584  0.0  0.136481  -1.4e-05  1.007612  0.0  0.111562  0.12949  -1.6e-05  1.012892  0.0
H  H18  1  0.36407384  0.43433109  0.51869085  1  0.10089  -1e-05  0.967787  0.0  0.10901  -8e-06  1.03227  0.0  0.110989  -6e-06  1.033058  0.0  0.104253  0.10752  -8e-06  1.031915  0.0
H  H19  1  0.63593698  0.93434059  0.48130676  1  0.100898  1.4e-05  0.967687  0.0  0.109046  8e-06  1.032142  0.0  0.111025  6e-06  1.032931  0.0  0.104259  0.107556  8e-06  1.031786  0.0
H  H20  1  0.98317817  0.65852619  0.60023794  1  0.112527  8e-06  0.945574  0.0  0.121172  1e-05  1.007518  0.0  0.1242  6e-06  1.006237  0.0  0.108207  0.119  1.2e-05  1.008475  0.0
H  H21  1  0.01681564  0.15852615  0.39976460  1  0.11262  -8e-06  0.945627  0.0  0.121286  -1e-05  1.007531  0.0  0.124316  -6e-06  1.006244  0.0  0.108244  0.119113  -1.1e-05  1.008491  0.0
H  H22  1  0.09028411  0.67616104  0.42092897  1  0.122195  -1.1e-05  0.946883  0.0  0.130511  -9e-06  1.007991  0.0  0.133377  -7e-06  1.007614  0.0  0.110967  0.128425  -9e-06  1.008361  0.0
H  H23  1  0.90971918  0.17614652  0.57907661  1  0.122201  6e-06  0.946516  0.0  0.130516  9e-06  1.007652  0.0  0.133381  7e-06  1.007277  0.0  0.11096  0.128429  9e-06  1.00802  0.0
C  C24  1  0.89949366  0.72264335  0.21158147  1  0.214442  0.006363  3.559311  0.006  0.149411  0.002821  3.828508  0.003  0.167819  0.003225  3.834693  0.003  0.18253  0.137175  0.002201  3.825188  0.002
C  C25  1  0.10050750  0.22265314  0.78840854  1  0.214378  -0.006414  3.558919  -0.006  0.149298  -0.002821  3.828116  -0.003  0.167714  -0.003227  3.834301  -0.003  0.182416  0.137059  -0.002202  3.824794  -0.002
C  C26  1  0.84343185  0.40898833  0.20678062  1  0.200871  -0.003354  3.550358  -0.003  0.138496  -0.001201  3.815836  -0.001  0.155823  -0.001647  3.823069  -0.002  0.178737  0.127041  -0.000738  3.811776  0.0
C  C27  1  0.15656699  0.90900098  0.79322800  1  0.201239  0.003367  3.550541  0.003  0.138704  0.001198  3.816073  0.001  0.156066  0.001645  3.823337  0.002  0.17888  0.127252  0.000736  3.812006  0.0
C  C28  1  0.78620082  0.56265235  0.37168882  1  0.185641  2.4e-05  3.744026  0.0  0.176148  1.3e-05  3.995845  0.0  0.181994  3.7e-05  4.017218  0.0  0.098975  0.172145  -1.5e-05  3.98138  0.0
C  C29  1  0.21378644  0.06264877  0.62831213  1  0.185998  -5.4e-05  3.744035  0.0  0.176342  -1.3e-05  3.995996  0.0  0.182191  -3.8e-05  4.01737  0.0  0.09908  0.172339  1.5e-05  3.981526  0.0
C  C30  1  0.58223540  0.49397227  0.39720723  1  -0.118359  -0.000445  3.700711  0.0  -0.14329  -0.000226  3.96125  0.0  -0.146019  -0.000188  3.979037  0.0  -0.079697  -0.141464  -0.000217  3.949377  0.0
C  C31  1  0.41776900  0.99396729  0.60279258  1  -0.118565  0.000479  3.700636  0.001  -0.143412  0.000226  3.961196  0.0  -0.146139  0.000188  3.978977  0.0  -0.079719  -0.141588  0.000216  3.949323  0.0
C  C32  1  0.52333407  0.48438836  0.49671377  1  -0.053195  0.000134  3.750888  0.0  -0.075239  2.7e-05  3.996507  0.0  -0.07564  4.3e-05  4.01894  0.0  -0.081846  -0.074911  9e-06  3.981488  0.0
C  C33  1  0.47665926  0.98438901  0.50328298  1  -0.053312  -0.000187  3.750893  0.0  -0.075367  -2.6e-05  3.996497  0.0  -0.075777  -4.4e-05  4.018948  0.0  -0.081895  -0.075036  -8e-06  3.981472  0.0
C  C34  1  0.66786979  0.54334787  0.56907337  1  -0.118837  -0.000338  3.742105  0.0  -0.0913  -0.000165  3.982572  0.0  -0.098358  -0.000133  4.004968  0.0  -0.016227  -0.086701  -0.000178  3.967603  0.0
C  C35  1  0.33213210  0.04334683  0.43092398  1  -0.118566  0.000392  3.74172  0.0  -0.091051  0.000164  3.982224  0.0  -0.098106  0.000134  4.004617  0.0  -0.016208  -0.086457  0.000177  3.967262  0.0
C  C36  1  0.87193599  0.61280287  0.54312131  1  -0.057124  0.000192  3.734985  0.0  -0.081111  9.5e-05  3.984948  0.0  -0.080957  9.6e-05  4.00493  0.0  -0.081296  -0.081071  8.6e-05  3.971406  0.0
C  C37  1  0.12805790  0.11280021  0.45687824  1  -0.057347  -0.000233  3.734907  0.0  -0.081344  -9.4e-05  3.984862  0.0  -0.081188  -9.7e-05  4.004837  0.0  -0.081315  -0.081306  -8.6e-05  3.971329  0.0
C  C38  1  0.93214392  0.62301922  0.44320772  1  -0.134064  -0.000118  3.695901  0.0  -0.153474  -4.4e-05  3.949396  0.0  -0.156941  -4.3e-05  3.968639  0.0  -0.080859  -0.151121  -5.4e-05  3.936432  0.0
C  C39  1  0.06787233  0.12300947  0.55679423  1  -0.13414  0.000162  3.696023  0.0  -0.153499  4.3e-05  3.949574  0.0  -0.156968  4.4e-05  3.96882  0.0  -0.080912  -0.151142  5.4e-05  3.936605  0.0
S  S40  1  0.58441935  0.52759952  0.69584682  1  1.284743  -1e-05  5.681937  0.0  1.186572  -1.1e-05  6.205742  0.0  1.234952  -6e-06  6.18104  0.0  0.505249  1.15315  -1.4e-05  6.221731  0.0
S  S41  1  0.41557604  0.02761134  0.30415122  1  1.28464  9e-06  5.682231  0.0  1.18648  1.1e-05  6.20602  0.0  1.234858  7e-06  6.181321  0.0  0.505217  1.153063  1.4e-05  6.222007  0.0
N  N42  1  0.92865306  0.66328846  0.11960096  1  -0.223672  -0.050578  3.274483  -0.067  -0.185967  -0.039057  3.58704  -0.055  -0.210342  -0.034936  3.604761  -0.051  -0.260544  -0.169898  -0.034833  3.576517  -0.048
N  N43  1  0.07135181  0.16328828  0.88040463  1  -0.223452  0.050618  3.273808  0.067  -0.185762  0.03906  3.586297  0.055  -0.210142  0.034939  3.60401  0.051  -0.260464  -0.169695  0.034833  3.57577  0.048
N  N44  1  0.89512865  0.46703017  0.11656061  1  -0.215251  0.044939  3.24749  0.06  -0.181083  0.035604  3.562266  0.05  -0.204652  0.031821  3.579342  0.047  -0.258355  -0.16546  0.031806  3.552136  0.043
N  N45  1  0.10488867  0.96702410  0.88343707  1  -0.215553  -0.044943  3.247931  -0.06  -0.181271  -0.035597  3.562661  -0.05  -0.204828  -0.031815  3.57972  -0.047  -0.258465  -0.165654  -0.031803  3.55254  -0.043
N  N46  1  0.84417919  0.56627387  0.26865864  1  -0.109034  -0.000105  3.525365  0.0  -0.019692  7.7e-05  3.742944  0.0  -0.036708  3e-05  3.762157  0.0  -0.205659  -0.00862  9.6e-05  3.73014  0.0
N  N47  1  0.15582418  0.06626904  0.73134169  1  -0.109259  0.000107  3.525398  0.0  -0.019839  -8.1e-05  3.743067  0.0  -0.036858  -3.3e-05  3.762273  0.0  -0.205683  -0.008769  -9.8e-05  3.730258  0.0
O  O48  1  0.34951106  0.54902672  0.69538801  1  -0.679362  1.4e-05  1.977722  0.0  -0.632796  3e-06  2.234828  0.0  -0.653701  -6e-06  2.221119  0.0  -0.347219  -0.617665  1.4e-05  2.243703  0.0
O  O49  1  0.65048429  0.04903881  0.30461152  1  -0.679338  -1.5e-05  1.977718  0.0  -0.632799  -3e-06  2.234877  0.0  -0.653723  5e-06  2.221176  0.0  -0.347201  -0.617666  -1.4e-05  2.24375  0.0
O  O50  1  0.65358563  0.33346547  0.72927042  1  -0.67456  -0.00015  1.958862  0.0  -0.622097  -0.000115  2.20374  0.0  -0.644585  -9e-05  2.190781  0.0  -0.341452  -0.606017  -0.000121  2.212163  0.0
O  O51  1  0.34641703  0.83347118  0.27072559  1  -0.674547  0.000147  1.958813  0.0  -0.622079  0.000115  2.203692  0.0  -0.644568  9e-05  2.190731  0.0  -0.341457  -0.605998  0.000121  2.212115  0.0
O  O52  1  0.69501532  0.68770129  0.74656104  1  -0.669387  9e-05  1.965886  0.0  -0.614403  5.8e-05  2.206522  0.0  -0.635308  4.1e-05  2.191589  0.0  -0.340772  -0.599568  6.7e-05  2.216376  0.0
O  O53  1  0.30498186  0.18770412  0.25344005  1  -0.669398  -8.7e-05  1.966188  0.0  -0.614408  -5.8e-05  2.206807  0.0  -0.635313  -4.2e-05  2.191876  0.0  -0.340769  -0.599574  -6.7e-05  2.216664  0.0
O  O54  1  0.94538837  0.06122367  0.06868451  1  -0.817703  -0.00248  1.830624  -0.003  -0.839896  -0.000857  2.141467  -0.001  -0.90021  -0.000616  2.125946  -0.001  -0.58163  -0.797969  -0.000893  2.152829  -0.001
O  O55  1  0.05460348  0.56122202  0.93132018  1  -0.817739  0.002473  1.830697  0.003  -0.839856  0.000856  2.141577  0.001  -0.900174  0.000616  2.126056  0.001  -0.58157  -0.797919  0.000889  2.152926  0.001
O  O56  1  0.39971821  0.72707432  0.07509418  1  -0.871689  0.001038  1.854727  0.0  -0.821889  0.001115  2.026268  0.001  -0.841728  0.001192  1.992423  0.001  -0.596664  -0.807928  0.000854  2.05038  0.0
O  O57  1  0.60028217  0.22706614  0.92490844  1  -0.871765  -0.001037  1.854664  0.0  -0.822002  -0.001115  2.026223  -0.001  -0.841826  -0.00119  1.992396  -0.001  -0.596756  -0.808047  -0.000854  2.050334  0.0
O  O58  1  0.64869456  0.84650627  0.93036128  1  -0.870487  0.001127  1.889647  0.0  -0.815714  0.001097  2.064553  0.001  -0.837869  0.00124  2.031756  0.001  -0.587931  -0.799822  0.000778  2.0876  0.0
O  O59  1  0.35129973  0.34651886  0.06964061  1  -0.870472  -0.001128  1.889669  0.0  -0.815706  -0.001097  2.064541  -0.001  -0.837859  -0.001239  2.031747  -0.001  -0.587917  -0.79982  -0.000778  2.087582  0.0
