# generated using pymatgen
data_YbH5C6(NO3)2
_symmetry_space_group_name_H-M   'P 1'
_cell_length_a   5.98658701
_cell_length_b   11.75588403
_cell_length_c   12.33520098
_cell_angle_alpha   77.16171409
_cell_angle_beta   75.94522864
_cell_angle_gamma   75.24550904
_symmetry_Int_Tables_number   1
_chemical_formula_structural   YbH5C6(NO3)2
_chemical_formula_sum   'Yb4 H20 C24 N8 O24'
_cell_volume   802.37967841
_cell_formula_units_Z   4
loop_
 _symmetry_equiv_pos_site_id
 _symmetry_equiv_pos_as_xyz
  1  'x, y, z'
loop_
 _atom_site_type_symbol
 _atom_site_label
 _atom_site_symmetry_multiplicity
 _atom_site_fract_x
 _atom_site_fract_y
 _atom_site_fract_z
 _atom_site_occupancy
 _atom_site_hle17_bader_spin_density
 _atom_site_hle17_ddec_charge
 _atom_site_hle17_ddec_spin_density
 _atom_site_hle17_ddec_sum_bond_order
 _atom_site_hle17_magmom
 _atom_site_hse06_10hf_bader_spin_density
 _atom_site_hse06_10hf_ddec_charge
 _atom_site_hse06_10hf_ddec_spin_density
 _atom_site_hse06_10hf_ddec_sum_bond_order
 _atom_site_hse06_10hf_magmom
 _atom_site_hse06_bader_spin_density
 _atom_site_hse06_ddec_charge
 _atom_site_hse06_ddec_spin_density
 _atom_site_hse06_ddec_sum_bond_order
 _atom_site_hse06_magmom
 _atom_site_pbe_bader_spin_density
 _atom_site_pbe_cm5_charge
 _atom_site_pbe_ddec_charge
 _atom_site_pbe_ddec_spin_density
 _atom_site_pbe_ddec_sum_bond_order
 _atom_site_pbe_magmom
C  C0  1  0.03300879  0.31910239  0.40586388  1  0  0.048373  0  3.691564  0  0  0.048312  0  3.936533  0  0  0.046683  0  3.952199  0  0  0.130051  0.048922  0  3.926576  0
C  C1  1  0.75829937  0.18088643  0.09411939  1  0  0.048682  0  3.691179  0  0  0.048148  0  3.936493  0  0  0.046483  0  3.952257  0  0  0.130294  0.048881  0  3.926292  0
C  C2  1  0.96699019  0.68089467  0.59413648  1  0  0.048402  0  3.691567  0  0  0.048361  0  3.936499  0  0  0.046732  0  3.952165  0  0  0.130044  0.048969  0  3.926547  0
C  C3  1  0.24170320  0.81911678  0.90588100  1  0  0.048563  0  3.691153  0  0  0.048095  0  3.936488  0  0  0.04643  0  3.952248  0  0  0.130297  0.048837  0  3.926292  0
C  C4  1  0.03166370  0.28666763  0.52300690  1  0  0.070716  0  3.656851  0  0  0.066324  0  3.908583  0  0  0.06806  0  3.922137  0  0  0.143683  0.064748  0  3.899974  0
C  C5  1  0.84163166  0.21326528  0.97696694  1  0  0.073131  0  3.652871  0  0  0.067707  0  3.906776  0  0  0.069423  0  3.920343  0  0  0.14445  0.066083  0  3.898225  0
C  C6  1  0.96833676  0.71333150  0.47699178  1  0  0.070735  0  3.656875  0  0  0.066377  0  3.908567  0  0  0.068114  0  3.922117  0  0  0.143706  0.064797  0  3.899958  0
C  C7  1  0.15837223  0.78673777  0.02303430  1  0  0.073163  0  3.652647  0  0  0.067697  0  3.906697  0  0  0.069402  0  3.920261  0  0  0.144457  0.066063  0  3.898159  0
C  C8  1  0.28431733  0.41135302  0.50269092  1  0  0.100204  0  3.657325  0  0  0.069453  0  3.9209  0  0  0.073149  0  3.936037  0  0  0.060911  0.066912  0  3.910995  0
C  C9  1  0.19885378  0.08871260  0.99724468  1  0  0.100938  0  3.656885  0  0  0.070304  0  3.920478  0  0  0.07392  0  3.935603  0  0  0.061079  0.067799  0  3.910561  0
C  C10  1  0.71568471  0.58864466  0.49730605  1  0  0.100216  0  3.657198  0  0  0.069488  0  3.92074  0  0  0.073177  0  3.93588  0  0  0.0609  0.066946  0  3.910839  0
C  C11  1  0.80115011  0.91128798  0.00275570  1  0  0.100993  0  3.656935  0  0  0.070296  0  3.920541  0  0  0.073911  0  3.935663  0  0  0.061071  0.067788  0  3.910628  0
C  C12  1  0.27825951  0.44769183  0.38773221  1  0  0.10043  0  3.639743  0  0  0.070143  0  3.908723  0  0  0.073065  0  3.922423  0  0  0.06241  0.067925  0  3.899772  0
C  C13  1  0.11409863  0.05230882  0.11218213  1  0  0.099144  0  3.639931  0  0  0.068831  0  3.909054  0  0  0.071758  0  3.922755  0  0  0.060909  0.066588  0  3.900052  0
C  C14  1  0.72174016  0.55230554  0.61226646  1  0  0.100383  0  3.639739  0  0  0.0701  0  3.908711  0  0  0.073022  0  3.922411  0  0  0.062431  0.06788  0  3.899753  0
C  C15  1  0.88590070  0.94769087  0.88781825  1  0  0.099026  0  3.639883  0  0  0.068769  0  3.908989  0  0  0.071697  0  3.922688  0  0  0.060884  0.066529  0  3.899981  0
C  C16  1  0.91365120  0.26416374  0.34227445  1  0  0.699677  0  3.870134  0  0  0.647638  0  4.173746  0  0  0.683203  0  4.161239  0  0  0.238575  0.623567  0  4.181412  0
C  C17  1  0.52034226  0.23582738  0.15774279  1  0  0.695966  0  3.872889  0  0  0.645977  0  4.173621  0  0  0.681476  0  4.161271  0  0  0.238186  0.62195  0  4.181127  0
C  C18  1  0.08634601  0.73583683  0.65772593  1  0  0.699697  0  3.870181  0  0  0.647633  0  4.173828  0  0  0.6832  0  4.16132  0  0  0.238591  0.62356  0  4.181495  0
C  C19  1  0.47965903  0.76417169  0.84226098  1  0  0.69623  0  3.872532  0  0  0.646161  0  4.17341  0  0  0.681668  0  4.16104  0  0  0.23825  0.622128  0  4.180923  0
C  C20  1  0.87771195  0.20588071  0.60326675  1  0  0.691981  0  3.874751  0  0  0.637472  0  4.177351  0  0  0.673488  0  4.164692  0  0  0.234152  0.612871  0  4.185268  0
C  C21  1  0.68700132  0.29406342  0.89679825  1  0  0.693618  0  3.870613  0  0  0.638293  0  4.175051  0  0  0.674361  0  4.162269  0  0  0.234495  0.613667  0  4.183057  0
C  C22  1  0.12229489  0.79411396  0.39673699  1  0  0.691974  0  3.874706  0  0  0.637399  0  4.177392  0  0  0.673415  0  4.16473  0  0  0.234156  0.612809  0  4.185295  0
C  C23  1  0.31300091  0.70594211  0.10320385  1  0  0.693966  0  3.870182  0  0  0.638502  0  4.174883  0  0  0.674586  0  4.162076  0  0  0.234544  0.613882  0  4.182891  0
H  H24  1  0.17743428  0.06055383  0.42753861  1  0  0.445233  0  0.844506  0  0  0.418454  0  0.901692  0  0  0.427807  0  0.888117  0  0  0.299119  0.411863  0  0.911248  0
H  H25  1  0.66544370  0.43954689  0.07251070  1  0  0.447257  0  0.841646  0  0  0.42032  0  0.899275  0  0  0.429717  0  0.885579  0  0  0.299866  0.41371  0  0.908885  0
H  H26  1  0.82256416  0.93944514  0.57246092  1  0  0.445228  0  0.844518  0  0  0.41845  0  0.9017  0  0  0.427804  0  0.888124  0  0  0.299118  0.411857  0  0.911259  0
H  H27  1  0.33455817  0.56045352  0.92749053  1  0  0.447246  0  0.84166  0  0  0.42031  0  0.899286  0  0  0.429708  0  0.885587  0  0  0.299849  0.4137  0  0.908896  0
H  H28  1  0.26466074  0.13999720  0.78829684  1  0  0.414343  0  0.888185  0  0  0.377229  0  0.969018  0  0  0.388183  0  0.952926  0  0  0.297684  0.369459  0  0.980425  0
H  H29  1  0.19296845  0.35995785  0.71174895  1  0  0.414342  0  0.886866  0  0  0.376746  0  0.969454  0  0  0.387697  0  0.953364  0  0  0.297578  0.369013  0  0.980806  0
H  H30  1  0.73533515  0.86000354  0.21170270  1  0  0.414367  0  0.888221  0  0  0.377265  0  0.96898  0  0  0.388221  0  0.952885  0  0  0.297703  0.369497  0  0.980385  0
H  H31  1  0.80703245  0.64004288  0.28825058  1  0  0.414333  0  0.886831  0  0  0.376724  0  0.969477  0  0  0.387674  0  0.953388  0  0  0.297573  0.368992  0  0.980828  0
H  H32  1  0.50302024  0.15559979  0.69435730  1  0  0.443664  0  0.857615  0  0  0.41072  0  0.924216  0  0  0.423588  0  0.905548  0  0  0.296578  0.401636  0  0.937377  0
H  H33  1  0.35297960  0.34438512  0.80566511  1  0  0.443713  0  0.857177  0  0  0.410254  0  0.924629  0  0  0.423106  0  0.905976  0  0  0.296129  0.401188  0  0.937779  0
H  H34  1  0.49697943  0.84440007  0.30564223  1  0  0.443653  0  0.857633  0  0  0.410703  0  0.924243  0  0  0.423572  0  0.905575  0  0  0.296568  0.40162  0  0.937404  0
H  H35  1  0.64702129  0.65561562  0.19433442  1  0  0.443784  0  0.85709  0  0  0.410326  0  0.924537  0  0  0.423176  0  0.905886  0  0  0.296149  0.40126  0  0.937687  0
H  H36  1  0.38929911  0.44556222  0.54347874  1  0  0.085562  0  0.957098  0  0  0.091412  0  1.026449  0  0  0.094272  0  1.024005  0  0  0.120718  0.089271  0  1.028382  0
H  H37  1  0.37893698  0.05465607  0.95642569  1  0  0.086082  0  0.957709  0  0  0.091799  0  1.0271  0  0  0.094745  0  1.024589  0  0  0.121108  0.089627  0  1.029052  0
H  H38  1  0.61070126  0.55443547  0.45651823  1  0  0.085599  0  0.956978  0  0  0.091432  0  1.026336  0  0  0.094298  0  1.023894  0  0  0.120712  0.089287  0  1.02828  0
H  H39  1  0.62106559  0.94534218  0.04357298  1  0  0.086049  0  0.957758  0  0  0.09181  0  1.027114  0  0  0.094755  0  1.024604  0  0  0.12112  0.089638  0  1.029068  0
H  H40  1  0.37285381  0.51413830  0.33310356  1  0  0.114594  0  0.934326  0  0  0.115881  0  1.005607  0  0  0.120729  0  1.001177  0  0  0.127916  0.112248  0  1.00901  0
H  H41  1  0.22052607  0.98591641  0.16681724  1  0  0.11459  0  0.936753  0  0  0.115908  0  1.00777  0  0  0.120755  0  1.003298  0  0  0.128277  0.112343  0  1.011125  0
H  H42  1  0.62714410  0.48586010  0.66689427  1  0  0.114624  0  0.934303  0  0  0.115895  0  1.005607  0  0  0.120736  0  1.001192  0  0  0.127903  0.112268  0  1.009002  0
H  H43  1  0.77947149  0.01408184  0.83318143  1  0  0.114617  0  0.936768  0  0  0.115903  0  1.007813  0  0  0.12075  0  1.003342  0  0  0.12827  0.112335  0  1.011167  0
N  N44  1  0.15744503  0.33481775  0.57052636  1  0  -0.264598  0  3.095817  0  0  -0.222511  0  3.350794  0  0  -0.230471  0  3.363402  0  0  -0.275702  -0.217143  0  3.342588  0
N  N45  1  0.06314053  0.16518456  0.92942618  1  0  -0.266873  0  3.094447  0  0  -0.224565  0  3.349834  0  0  -0.232546  0  3.362466  0  0  -0.276631  -0.21911  0  3.341627  0
N  N46  1  0.84256053  0.66518034  0.42947316  1  0  -0.264641  0  3.095871  0  0  -0.222539  0  3.350801  0  0  -0.230501  0  3.363418  0  0  -0.275669  -0.217169  0  3.34259  0
N  N47  1  0.93685924  0.83481674  0.07057505  1  0  -0.266927  0  3.094401  0  0  -0.224591  0  3.34983  0  0  -0.232566  0  3.362458  0  0  -0.276651  -0.219138  0  3.341633  0
N  N48  1  0.14800788  0.40260522  0.34075734  1  0  -0.345065  0  3.244589  0  0  -0.309198  0  3.510867  0  0  -0.317256  0  3.527014  0  0  -0.343921  -0.303288  0  3.50001  0
N  N49  1  0.89174257  0.09739834  0.15918735  1  0  -0.343231  0  3.241515  0  0  -0.307023  0  3.507611  0  0  -0.315063  0  3.523732  0  0  -0.342379  -0.301094  0  3.496735  0
N  N50  1  0.85198766  0.59739287  0.65924218  1  0  -0.345107  0  3.244669  0  0  -0.309254  0  3.510932  0  0  -0.317311  0  3.527078  0  0  -0.343958  -0.303346  0  3.500075  0
N  N51  1  0.10826053  0.90260048  0.84081302  1  0  -0.343135  0  3.241438  0  0  -0.306936  0  3.507494  0  0  -0.314976  0  3.523614  0  0  -0.342342  -0.301011  0  3.496612  0
O  O52  1  0.85379062  0.16594819  0.39039731  1  0  -0.711621  0  2.065459  0  0  -0.666892  0  2.316768  0  0  -0.69194  0  2.304388  0  0  -0.38253  -0.648999  0  2.324552  0
O  O53  1  0.41005157  0.33391947  0.10958819  1  0  -0.710271  0  2.065035  0  0  -0.666197  0  2.315044  0  0  -0.691226  0  2.302697  0  0  -0.382213  -0.648347  0  2.322833  0
O  O54  1  0.14620527  0.83405254  0.60960222  1  0  -0.711593  0  2.065507  0  0  -0.666867  0  2.316832  0  0  -0.691918  0  2.304453  0  0  -0.382495  -0.648972  0  2.32461  0
O  O55  1  0.58994898  0.66608359  0.89041305  1  0  -0.710306  0  2.065028  0  0  -0.666206  0  2.315057  0  0  -0.691238  0  2.302701  0  0  -0.382209  -0.648364  0  2.322852  0
O  O56  1  0.88678427  0.31899711  0.24439047  1  0  -0.684132  0  2.058348  0  0  -0.646995  0  2.310286  0  0  -0.672273  0  2.30144  0  0  -0.374782  -0.629076  0  2.315715  0
O  O57  1  0.45057155  0.18101903  0.25565172  1  0  -0.682703  0  2.059486  0  0  -0.646414  0  2.311006  0  0  -0.67156  0  2.301998  0  0  -0.375375  -0.62846  0  2.316445  0
O  O58  1  0.11320548  0.68100418  0.75561076  1  0  -0.684178  0  2.058405  0  0  -0.647016  0  2.310285  0  0  -0.672293  0  2.301436  0  0  -0.374837  -0.629104  0  2.315715  0
O  O59  1  0.54943323  0.81897978  0.74434865  1  0  -0.682844  0  2.059184  0  0  -0.646536  0  2.31078  0  0  -0.671687  0  2.301764  0  0  -0.375446  -0.628575  0  2.316206  0
O  O60  1  0.66042438  0.24946695  0.61951663  1  0  -0.581481  0  1.973587  0  0  -0.52663  0  2.193837  0  0  -0.554182  0  2.186765  0  0  -0.28543  -0.507128  0  2.198098  0
O  O61  1  0.52944574  0.25055006  0.88056603  1  0  -0.583871  0  1.971359  0  0  -0.527958  0  2.191679  0  0  -0.555448  0  2.184465  0  0  -0.286521  -0.50855  0  2.196048  0
O  O62  1  0.33957892  0.75053228  0.38048629  1  0  -0.58147  0  1.973602  0  0  -0.526578  0  2.193853  0  0  -0.554137  0  2.186805  0  0  -0.285455  -0.507079  0  2.198109  0
O  O63  1  0.47055815  0.74945299  0.11943521  1  0  -0.584024  0  1.971231  0  0  -0.528095  0  2.191686  0  0  -0.555587  0  2.184462  0  0  -0.286543  -0.508688  0  2.196058  0
O  O64  1  0.97739669  0.10453647  0.65113720  1  0  -0.726632  0  2.056184  0  0  -0.684611  0  2.314628  0  0  -0.711348  0  2.301983  0  0  -0.41078  -0.665203  0  2.322569  0
O  O65  1  0.73322584  0.39542074  0.84896865  1  0  -0.727217  0  2.055589  0  0  -0.684917  0  2.314497  0  0  -0.711676  0  2.301889  0  0  -0.410591  -0.665448  0  2.322294  0
O  O66  1  0.02260941  0.89545971  0.34886316  1  0  -0.726643  0  2.056119  0  0  -0.684623  0  2.314607  0  0  -0.711358  0  2.301961  0  0  -0.410763  -0.66522  0  2.322549  0
O  O67  1  0.26676410  0.60458592  0.15103685  1  0  -0.727366  0  2.055386  0  0  -0.684997  0  2.314366  0  0  -0.711762  0  2.301749  0  0  -0.410598  -0.665518  0  2.322151  0
O  O68  1  0.32117424  0.03354493  0.45790903  1  0  -1.160488  0  1.78035  0  0  -1.121599  0  2.01913  0  0  -1.148154  0  1.992922  0  0  -0.841431  -1.10166  0  2.036879  0
O  O69  1  0.81258713  0.46652003  0.04210969  1  0  -1.16269  0  1.778981  0  0  -1.12413  0  2.01727  0  0  -1.1506  0  1.991066  0  0  -0.842392  -1.104364  0  2.034987  0
O  O70  1  0.67882342  0.96645477  0.54209135  1  0  -1.160486  0  1.780365  0  0  -1.121583  0  2.019135  0  0  -1.148139  0  1.992925  0  0  -0.841438  -1.101646  0  2.036884  0
O  O71  1  0.18741342  0.53348054  0.95789069  1  0  -1.162699  0  1.779021  0  0  -1.124141  0  2.017312  0  0  -1.150613  0  1.991106  0  0  -0.842382  -1.104374  0  2.035027  0
O  O72  1  0.39526086  0.09832627  0.73475083  1  0  -0.938489  0  1.928486  0  0  -0.903714  0  2.147431  0  0  -0.922922  0  2.111584  0  0  -0.670024  -0.889532  0  2.172448  0
O  O73  1  0.22839946  0.40165726  0.76523647  1  0  -0.938043  0  1.926597  0  0  -0.902616  0  2.147429  0  0  -0.921871  0  2.11177  0  0  -0.669314  -0.88845  0  2.172188  0
O  O74  1  0.60473581  0.90167374  0.26524785  1  0  -0.938491  0  1.92856  0  0  -0.903737  0  2.147461  0  0  -0.922943  0  2.111615  0  0  -0.670025  -0.889554  0  2.172476  0
O  O75  1  0.77160178  0.59834363  0.23476221  1  0  -0.938102  0  1.926484  0  0  -0.902647  0  2.147362  0  0  -0.921907  0  2.111721  0  0  -0.66934  -0.888476  0  2.172116  0
Yb  Yb76  1  0.32389523  0.97185706  0.63855474  1  0  2.197502  0  1.851327  0  0  2.128977  0  2.19236  0  0  2.17612  0  2.150392  0  0  1.572932  2.092363  0  2.226088  0
Yb  Yb77  1  0.93435825  0.52819069  0.86144788  1  0  2.197649  0  1.85216  0  0  2.129656  0  2.192063  0  0  2.176751  0  2.15028  0  0  1.572921  2.093211  0  2.225451  0
Yb  Yb78  1  0.67610488  0.02814192  0.36144478  1  0  2.197485  0  1.851398  0  0  2.128998  0  2.192364  0  0  2.17613  0  2.150415  0  0  1.572933  2.092397  0  2.226091  0
Yb  Yb79  1  0.06564009  0.47181180  0.13855166  1  0  2.197693  0  1.852099  0  0  2.129662  0  2.192059  0  0  2.176755  0  2.150279  0  0  1.572913  2.093199  0  2.225471  0
