# generated using pymatgen
data_CdH18C27N4O7
_symmetry_space_group_name_H-M   'P 1'
_cell_length_a   7.87094094
_cell_length_b   11.87594368
_cell_length_c   13.95315160
_cell_angle_alpha   109.45399391
_cell_angle_beta   99.16569598
_cell_angle_gamma   94.46064710
_symmetry_Int_Tables_number   1
_chemical_formula_structural   CdH18C27N4O7
_chemical_formula_sum   'Cd2 H36 C54 N8 O14'
_cell_volume   1202.05438699
_cell_formula_units_Z   2
loop_
 _symmetry_equiv_pos_site_id
 _symmetry_equiv_pos_as_xyz
  1  'x, y, z'
loop_
 _atom_site_type_symbol
 _atom_site_label
 _atom_site_symmetry_multiplicity
 _atom_site_fract_x
 _atom_site_fract_y
 _atom_site_fract_z
 _atom_site_occupancy
 _atom_site_hle17_bader_spin_density
 _atom_site_hle17_ddec_charge
 _atom_site_hle17_ddec_spin_density
 _atom_site_hle17_ddec_sum_bond_order
 _atom_site_hle17_magmom
 _atom_site_hse06_10hf_bader_spin_density
 _atom_site_hse06_10hf_ddec_charge
 _atom_site_hse06_10hf_ddec_spin_density
 _atom_site_hse06_10hf_ddec_sum_bond_order
 _atom_site_hse06_10hf_magmom
 _atom_site_hse06_bader_spin_density
 _atom_site_hse06_ddec_charge
 _atom_site_hse06_ddec_spin_density
 _atom_site_hse06_ddec_sum_bond_order
 _atom_site_hse06_magmom
 _atom_site_pbe_bader_spin_density
 _atom_site_pbe_cm5_charge
 _atom_site_pbe_ddec_charge
 _atom_site_pbe_ddec_spin_density
 _atom_site_pbe_ddec_sum_bond_order
 _atom_site_pbe_magmom
Cd  Cd0  1  0.24286081  0.53641899  0.02232026  1  0  1.180214  0  1.710683  0  0  0.996323  0  2.164699  0  0  1.048461  0  2.113592  0  0  0.802458  0.959165  0  2.199736  0
Cd  Cd1  1  0.75713755  0.46357950  0.97767868  1  0  1.180187  0  1.710707  0  0  0.996293  0  2.164704  0  0  1.048432  0  2.113599  0  0  0.802443  0.959137  0  2.199739  0
H  H2  1  0.09280537  0.21623522  0.67263252  1  0  0.399244  0  0.893728  0  0  0.365423  0  0.978749  0  0  0.378396  0  0.963657  0  0  0.29603  0.356309  0  0.988392  0
H  H3  1  0.90719484  0.78376597  0.32736878  1  0  0.399246  0  0.893742  0  0  0.365408  0  0.978792  0  0  0.378382  0  0.963682  0  0  0.296028  0.356293  0  0.988436  0
H  H4  1  0.49382470  0.90315217  0.06221117  1  0  0.10495  0  0.963286  0  0  0.112569  0  1.028931  0  0  0.116765  0  1.02527  0  0  0.104639  0.109525  0  1.031663  0
H  H5  1  0.50617643  0.09684722  0.93778899  1  0  0.10491  0  0.963349  0  0  0.112581  0  1.028932  0  0  0.116777  0  1.025272  0  0  0.10464  0.109537  0  1.031664  0
H  H6  1  0.69362846  0.07925371  0.06191187  1  0  0.090651  0  0.967833  0  0  0.099787  0  1.029774  0  0  0.102777  0  1.028478  0  0  0.099393  0.097624  0  1.030839  0
H  H7  1  0.30637303  0.92074748  0.93808884  1  0  0.090657  0  0.967867  0  0  0.099794  0  1.029806  0  0  0.102784  0  1.02851  0  0  0.099391  0.097632  0  1.030869  0
H  H8  1  0.01617964  0.08584775  0.11427697  1  0  0.109826  0  0.944915  0  0  0.121588  0  1.00429  0  0  0.124812  0  1.002954  0  0  0.107849  0.119302  0  1.005288  0
H  H9  1  0.98382277  0.91415162  0.88572545  1  0  0.109796  0  0.944916  0  0  0.121563  0  1.0043  0  0  0.124788  0  1.002964  0  0  0.107854  0.119277  0  1.005297  0
H  H10  1  0.99205526  0.02165061  0.32515491  1  0  0.117068  0  0.966744  0  0  0.1238  0  1.032466  0  0  0.127602  0  1.030469  0  0  0.104914  0.12108  0  1.033961  0
H  H11  1  0.00794071  0.97834878  0.67484694  1  0  0.117035  0  0.96681  0  0  0.123779  0  1.032514  0  0  0.127581  0  1.030517  0  0  0.104896  0.121057  0  1.034009  0
H  H12  1  0.45468376  0.17012694  0.56030274  1  0  0.104012  0  0.940883  0  0  0.114998  0  0.998819  0  0  0.118699  0  0.996556  0  0  0.104295  0.112302  0  1.000576  0
H  H13  1  0.54531130  0.82987426  0.43969882  1  0  0.104024  0  0.94095  0  0  0.115003  0  0.998878  0  0  0.118704  0  0.996615  0  0  0.1043  0.112308  0  1.000635  0
H  H14  1  0.63704316  0.09146349  0.42843366  1  0  0.110407  0  0.957272  0  0  0.120366  0  1.015389  0  0  0.123564  0  1.013533  0  0  0.10421  0.11804  0  1.016857  0
H  H15  1  0.36295594  0.90853860  0.57156995  1  0  0.110362  0  0.957309  0  0  0.120296  0  1.015468  0  0  0.123495  0  1.013612  0  0  0.104187  0.117973  0  1.01693  0
H  H16  1  0.49527259  0.97405920  0.24428638  1  0  0.113744  0  0.965979  0  0  0.123406  0  1.027889  0  0  0.126413  0  1.026631  0  0  0.103705  0.12123  0  1.028893  0
H  H17  1  0.50472614  0.02594109  0.75571740  1  0  0.113699  0  0.966058  0  0  0.123382  0  1.027937  0  0  0.126388  0  1.026682  0  0  0.103671  0.121191  0  1.028958  0
H  H18  1  0.17780628  0.59773278  0.26079362  1  0  0.112752  0  0.981851  0  0  0.116286  0  1.050676  0  0  0.120637  0  1.045255  0  0  0.134778  0.11304  0  1.0546  0
H  H19  1  0.82219265  0.40226842  0.73920614  1  0  0.112753  0  0.981884  0  0  0.116229  0  1.050769  0  0  0.120576  0  1.045354  0  0  0.134761  0.112988  0  1.054686  0
H  H20  1  0.42125929  0.30161244  0.29600750  1  0  0.116516  0  0.959604  0  0  0.128797  0  1.016495  0  0  0.130948  0  1.016262  0  0  0.124144  0.127263  0  1.016726  0
H  H21  1  0.57874221  0.69838876  0.70399178  1  0  0.116538  0  0.95956  0  0  0.128814  0  1.016461  0  0  0.130959  0  1.016242  0  0  0.124141  0.127279  0  1.016692  0
H  H22  1  0.41169311  0.30351065  0.09779721  1  0  0.104142  0  0.967617  0  0  0.115608  0  1.024303  0  0  0.116697  0  1.025357  0  0  0.117597  0.114782  0  1.02368  0
H  H23  1  0.58830306  0.69648965  0.90220132  1  0  0.104164  0  0.967593  0  0  0.115617  0  1.024283  0  0  0.116707  0  1.025336  0  0  0.117596  0.11479  0  1.02366  0
H  H24  1  0.28652683  0.45315111  0.76998039  1  0  0.112558  0  0.946702  0  0  0.12005  0  1.009814  0  0  0.12274  0  1.006457  0  0  0.13919  0.118061  0  1.012232  0
H  H25  1  0.71347559  0.54684828  0.23001845  1  0  0.112558  0  0.94667  0  0  0.120062  0  1.009768  0  0  0.122751  0  1.006411  0  0  0.139174  0.118072  0  1.012187  0
H  H26  1  0.05365863  0.75223250  0.73513601  1  0  0.113084  0  0.964831  0  0  0.124411  0  1.025741  0  0  0.126584  0  1.025051  0  0  0.121682  0.122848  0  1.026317  0
H  H27  1  0.94634011  0.24776779  0.26486348  1  0  0.113084  0  0.964863  0  0  0.124408  0  1.025768  0  0  0.126581  0  1.02508  0  0  0.121676  0.122846  0  1.026346  0
H  H28  1  0.05847407  0.74719718  0.93410837  1  0  0.111538  0  0.94467  0  0  0.121076  0  1.004638  0  0  0.123028  0  1.004189  0  0  0.120658  0.11964  0  1.005054  0
H  H29  1  0.94152301  0.25280131  0.06589116  1  0  0.111607  0  0.944585  0  0  0.121109  0  1.004609  0  0  0.123054  0  1.004158  0  0  0.12069  0.119672  0  1.005025  0
H  H30  1  0.25182200  0.37756904  0.60464137  1  0  0.10959  0  0.97051  0  0  0.119543  0  1.031254  0  0  0.122352  0  1.029672  0  0  0.109491  0.117487  0  1.032466  0
H  H31  1  0.74818502  0.62243395  0.39535891  1  0  0.109549  0  0.970534  0  0  0.119591  0  1.03118  0  0  0.122406  0  1.029586  0  0  0.109481  0.117523  0  1.032399  0
H  H32  1  0.30541214  0.32158310  0.42856589  1  0  0.098071  0  0.978168  0  0  0.107007  0  1.044178  0  0  0.108766  0  1.04489  0  0  0.103618  0.105742  0  1.043738  0
H  H33  1  0.69459469  0.67841899  0.57143412  1  0  0.098082  0  0.978219  0  0  0.107019  0  1.044217  0  0  0.108779  0  1.044928  0  0  0.103594  0.105743  0  1.043811  0
H  H34  1  0.22404671  0.67851084  0.42828164  1  0  0.124237  0  0.942516  0  0  0.134878  0  1.000194  0  0  0.137914  0  0.998258  0  0  0.116503  0.132661  0  1.001676  0
H  H35  1  0.77595056  0.32148857  0.57171674  1  0  0.124253  0  0.942465  0  0  0.134871  0  1.000168  0  0  0.137909  0  0.998226  0  0  0.116507  0.132652  0  1.001655  0
H  H36  1  0.17172519  0.73373057  0.60269858  1  0  0.113176  0  0.957148  0  0  0.123561  0  1.017466  0  0  0.126413  0  1.015731  0  0  0.110278  0.121499  0  1.018739  0
H  H37  1  0.82827503  0.26627064  0.39729987  1  0  0.113181  0  0.957154  0  0  0.123567  0  1.01747  0  0  0.126419  0  1.015734  0  0  0.110277  0.121505  0  1.018742  0
C  C38  1  0.96831160  0.71323534  0.15221313  1  0  0.71908  0  3.856642  0  0  0.652882  0  4.173768  0  0  0.68975  0  4.160908  0  0  0.222875  0.627621  0  4.181971  0
C  C39  1  0.03168566  0.28676407  0.84778597  1  0  0.719228  0  3.856522  0  0  0.652983  0  4.1737  0  0  0.689853  0  4.16084  0  0  0.222939  0.627719  0  4.18191  0
C  C40  1  0.88093865  0.81430490  0.13123834  1  0  -0.142648  0  3.673878  0  0  -0.136451  0  3.916102  0  0  -0.140728  0  3.933164  0  0  -0.008785  -0.133737  0  3.904931  0
C  C41  1  0.11905990  0.18569450  0.86875944  1  0  -0.142596  0  3.67383  0  0  -0.136376  0  3.916025  0  0  -0.140653  0  3.933086  0  0  -0.008731  -0.133663  0  3.904857  0
C  C42  1  0.70017208  0.81167001  0.10412530  1  0  -0.066917  0  3.740378  0  0  -0.051119  0  3.97465  0  0  -0.056942  0  3.995728  0  0  -0.016433  -0.047477  0  3.96066  0
C  C43  1  0.29982629  0.18832849  0.89587292  1  0  -0.067059  0  3.740332  0  0  -0.051186  0  3.974536  0  0  -0.057009  0  3.995616  0  0  -0.016476  -0.047546  0  3.960549  0
C  C44  1  0.57207564  0.70664593  0.09640811  1  0  0.644441  0  3.931403  0  0  0.594841  0  4.223541  0  0  0.62937  0  4.215942  0  0  0.198203  0.571414  0  4.227912  0
C  C45  1  0.42792531  0.29335256  0.90359035  1  0  0.644605  0  3.931223  0  0  0.594966  0  4.22339  0  0  0.629494  0  4.215794  0  0  0.198248  0.571543  0  4.227764  0
C  C46  1  0.63450420  0.90817112  0.08111045  1  0  -0.089356  0  3.757627  0  0  -0.115891  0  4.010837  0  0  -0.116158  0  4.029287  0  0  -0.091087  -0.115576  0  3.998396  0
C  C47  1  0.36549673  0.09182737  0.91888943  1  0  -0.089264  0  3.757664  0  0  -0.115861  0  4.010858  0  0  -0.116129  0  4.02931  0  0  -0.091051  -0.115544  0  3.998415  0
C  C48  1  0.74527285  0.00587065  0.08201555  1  0  -0.060616  0  3.791911  0  0  -0.073892  0  4.045153  0  0  -0.075205  0  4.065243  0  0  -0.094864  -0.073075  0  4.031554  0
C  C49  1  0.25472975  0.99412963  0.91798643  1  0  -0.060702  0  3.791957  0  0  -0.073987  0  4.045236  0  0  -0.075301  0  4.065327  0  0  -0.094883  -0.073171  0  4.031638  0
C  C50  1  0.92433161  0.01059986  0.11121020  1  0  -0.160211  0  3.761955  0  0  -0.186814  0  4.021504  0  0  -0.189032  0  4.039785  0  0  -0.094877  -0.185175  0  4.009107  0
C  C51  1  0.07566840  0.98940042  0.88879226  1  0  -0.160102  0  3.761858  0  0  -0.1867  0  4.021428  0  0  -0.188919  0  4.039711  0  0  -0.094862  -0.185062  0  4.009034  0
C  C52  1  0.98942659  0.91708234  0.13789397  1  0  0.236335  0  3.785717  0  0  0.222782  0  4.048993  0  0  0.23062  0  4.065342  0  0  0.081079  0.217241  0  4.037985  0
C  C53  1  0.01057178  0.08291615  0.86210568  1  0  0.236252  0  3.785713  0  0  0.222659  0  4.049058  0  0  0.230496  0  4.065411  0  0  0.081018  0.217116  0  4.038051  0
C  C54  1  0.23643108  0.99267340  0.27286474  1  0  0.276829  0  3.790699  0  0  0.269657  0  4.053231  0  0  0.279388  0  4.068549  0  0  0.083533  0.26271  0  4.042941  0
C  C55  1  0.76356598  0.00732508  0.72713908  1  0  0.276799  0  3.790532  0  0  0.269644  0  4.053052  0  0  0.279374  0  4.068371  0  0  0.083523  0.262696  0  4.042758  0
C  C56  1  0.13338143  0.03767474  0.34567074  1  0  -0.213169  0  3.745154  0  0  -0.247998  0  3.998815  0  0  -0.251652  0  4.018287  0  0  -0.107033  -0.245408  0  3.985823  0
C  C57  1  0.86661436  0.96232375  0.65433154  1  0  -0.213033  0  3.7451  0  0  -0.247867  0  3.998739  0  0  -0.251521  0  4.018209  0  0  -0.106999  -0.245276  0  3.985746  0
C  C58  1  0.21298252  0.10142299  0.44940895  1  0  -0.052768  0  3.796127  0  0  -0.027751  0  4.029165  0  0  -0.034072  0  4.052385  0  0  -0.021325  -0.023635  0  4.013517  0
C  C59  1  0.78701493  0.89857731  0.55059256  1  0  -0.052789  0  3.796141  0  0  -0.027774  0  4.029174  0  0  -0.034094  0  4.052392  0  0  -0.021295  -0.023658  0  4.013524  0
C  C60  1  0.09633185  0.14410338  0.52467793  1  0  0.643523  0  3.823171  0  0  0.594999  0  4.122374  0  0  0.627606  0  4.113884  0  0  0.223924  0.572848  0  4.127633  0
C  C61  1  0.90366560  0.85589692  0.47532287  1  0  0.643431  0  3.823353  0  0  0.594914  0  4.12255  0  0  0.627522  0  4.114058  0  0  0.223837  0.572763  0  4.127805  0
C  C62  1  0.39432705  0.12213347  0.47934980  1  0  -0.091216  0  3.743376  0  0  -0.121821  0  3.999256  0  0  -0.122276  0  4.018855  0  0  -0.094193  -0.121358  0  3.985914  0
C  C63  1  0.60567021  0.87786592  0.52065216  1  0  -0.091339  0  3.743447  0  0  -0.121941  0  3.999326  0  0  -0.122396  0  4.018924  0  0  -0.094249  -0.121477  0  3.985984  0
C  C64  1  0.49587180  0.07767760  0.40512679  1  0  -0.059681  0  3.775785  0  0  -0.070642  0  4.030175  0  0  -0.07188  0  4.050321  0  0  -0.091395  -0.069762  0  4.016401  0
C  C65  1  0.50412712  0.92232358  0.59487655  1  0  -0.059563  0  3.775765  0  0  -0.07051  0  4.030166  0  0  -0.071743  0  4.050303  0  0  -0.091365  -0.06963  0  4.016386  0
C  C66  1  0.41802313  0.01238929  0.30221082  1  0  -0.157328  0  3.709908  0  0  -0.180748  0  3.957887  0  0  -0.18307  0  3.974722  0  0  -0.096248  -0.17904  0  3.946512  0
C  C67  1  0.58197560  0.98761100  0.69779224  1  0  -0.157323  0  3.709971  0  0  -0.180755  0  3.957909  0  0  -0.183074  0  3.97474  0  0  -0.096189  -0.179035  0  3.946542  0
C  C68  1  0.24799426  0.51996352  0.24430692  1  0  0.174856  0  3.608768  0  0  0.114519  0  3.872921  0  0  0.128951  0  3.883879  0  0  0.144486  0.105222  0  3.865274  0
C  C69  1  0.75200595  0.48003768  0.75569224  1  0  0.174925  0  3.608772  0  0  0.114628  0  3.872941  0  0  0.129061  0  3.883899  0  0  0.144542  0.105327  0  3.865293  0
C  C70  1  0.26915065  0.49564097  0.41527220  1  0  0.172804  0  3.788087  0  0  0.162376  0  4.038622  0  0  0.167758  0  4.060585  0  0  0.092004  0.158691  0  4.023765  0
C  C71  1  0.73084700  0.50436024  0.58472530  1  0  0.172818  0  3.78814  0  0  0.162445  0  4.038598  0  0  0.167827  0  4.060561  0  0  0.09205  0.158761  0  4.023741  0
C  C72  1  0.36972979  0.36234705  0.25936640  1  0  -0.069417  0  3.677217  0  0  -0.110506  0  3.937158  0  0  -0.109104  0  3.956039  0  0  -0.002224  -0.111368  0  3.924429  0
C  C73  1  0.63027042  0.63765415  0.74063348  1  0  -0.069381  0  3.677156  0  0  -0.110455  0  3.93708  0  0  -0.109054  0  3.955959  0  0  -0.002164  -0.111315  0  3.924347  0
C  C74  1  0.36512775  0.36500840  0.16154594  1  0  0.010125  0  3.752452  0  0  -0.023501  0  4.02033  0  0  -0.021567  0  4.041798  0  0  -0.001128  -0.024824  0  4.005839  0
C  C75  1  0.63486933  0.63499010  0.83845288  1  0  0.009995  0  3.752499  0  0  -0.023622  0  4.020402  0  0  -0.021687  0  4.041865  0  0  -0.001217  -0.024945  0  4.005908  0
C  C76  1  0.22204371  0.53271331  0.78693516  1  0  0.18222  0  3.631453  0  0  0.119457  0  3.902698  0  0  0.134297  0  3.914532  0  0  0.147016  0.109787  0  3.894468  0
C  C77  1  0.77795742  0.46728608  0.21306428  1  0  0.182264  0  3.631406  0  0  0.119487  0  3.902625  0  0  0.134325  0  3.914462  0  0  0.14705  0.109818  0  3.894392  0
C  C78  1  0.10304533  0.69114355  0.77195594  1  0  -0.077756  0  3.677106  0  0  -0.119619  0  3.939529  0  0  -0.118799  0  3.959115  0  0  -0.005814  -0.120075  0  3.926239  0
C  C79  1  0.89695598  0.30885674  0.22804306  1  0  -0.077825  0  3.6771  0  0  -0.119682  0  3.939524  0  0  -0.118864  0  3.95911  0  0  -0.00585  -0.120139  0  3.926235  0
C  C80  1  0.10584367  0.68772255  0.86949740  1  0  0.01708  0  3.73852  0  0  -0.016912  0  4.008837  0  0  -0.014324  0  4.029094  0  0  0.002307  -0.018608  0  3.995096  0
C  C81  1  0.89415489  0.31227685  0.13050109  1  0  0.01707  0  3.738457  0  0  -0.016924  0  4.00881  0  0  -0.014325  0  4.02906  0  0  0.002298  -0.018624  0  3.995077  0
C  C82  1  0.20817037  0.55960939  0.61700207  1  0  0.171033  0  3.795784  0  0  0.161767  0  4.04426  0  0  0.167239  0  4.066726  0  0  0.093444  0.158024  0  4.029066  0
C  C83  1  0.79183261  0.44039271  0.38299760  1  0  0.171015  0  3.795726  0  0  0.161694  0  4.044287  0  0  0.167164  0  4.066756  0  0  0.093424  0.157952  0  4.02909  0
C  C84  1  0.24759479  0.44432162  0.56687126  1  0  -0.129025  0  3.730318  0  0  -0.1503  0  3.984063  0  0  -0.15367  0  4.004854  0  0  -0.089256  -0.147986  0  3.970073  0
C  C85  1  0.75240543  0.55567958  0.43312790  1  0  -0.129005  0  3.730298  0  0  -0.150325  0  3.984019  0  0  -0.153696  0  4.004815  0  0  -0.089263  -0.147996  0  3.970012  0
C  C86  1  0.27785036  0.41248692  0.46644456  1  0  -0.130403  0  3.744307  0  0  -0.151463  0  3.999617  0  0  -0.154431  0  4.020912  0  0  -0.090854  -0.149405  0  3.98524  0
C  C87  1  0.72215519  0.58751517  0.53355534  1  0  -0.130377  0  3.744442  0  0  -0.151464  0  3.999743  0  0  -0.154433  0  4.021038  0  0  -0.090809  -0.149411  0  3.985355  0
C  C88  1  0.23156746  0.61132356  0.46562408  1  0  -0.128542  0  3.720635  0  0  -0.150561  0  3.975781  0  0  -0.154047  0  3.997006  0  0  -0.084709  -0.148144  0  3.961447  0
C  C89  1  0.76842982  0.38867585  0.53437286  1  0  -0.128506  0  3.720623  0  0  -0.150509  0  3.975739  0  0  -0.153992  0  3.996962  0  0  -0.084671  -0.148093  0  3.961404  0
C  C90  1  0.20104388  0.64303389  0.56610058  1  0  -0.132283  0  3.741132  0  0  -0.152603  0  3.994199  0  0  -0.155826  0  4.015368  0  0  -0.087123  -0.150325  0  3.97983  0
C  C91  1  0.79895615  0.35696641  0.43389759  1  0  -0.132281  0  3.741242  0  0  -0.1526  0  3.994333  0  0  -0.155824  0  4.015501  0  0  -0.087128  -0.150323  0  3.979967  0
N  N92  1  0.18000325  0.58877098  0.87736126  1  0  -0.369637  0  3.241118  0  0  -0.29487  0  3.521285  0  0  -0.316267  0  3.539129  0  0  -0.351817  -0.280203  0  3.508707  0
N  N93  1  0.81999769  0.41122750  0.12263862  1  0  -0.369667  0  3.241264  0  0  -0.294844  0  3.521373  0  0  -0.316237  0  3.539203  0  0  -0.351798  -0.280178  0  3.508793  0
N  N94  1  0.17700975  0.59164941  0.71952610  1  0  -0.09721  0  3.600036  0  0  -0.007188  0  3.812778  0  0  -0.022774  0  3.838859  0  0  -0.226019  0.003175  0  3.794978  0
N  N95  1  0.82299157  0.40835089  0.28047362  1  0  -0.097245  0  3.600094  0  0  -0.007214  0  3.812851  0  0  -0.022801  0  3.838935  0  0  -0.226057  0.003149  0  3.795051  0
N  N96  1  0.28867619  0.46316010  0.15331077  1  0  -0.379985  0  3.264258  0  0  -0.303368  0  3.552085  0  0  -0.325067  0  3.569006  0  0  -0.351907  -0.288551  0  3.540216  0
N  N97  1  0.71132255  0.53684020  0.84668800  1  0  -0.380002  0  3.264201  0  0  -0.303386  0  3.55202  0  0  -0.325086  0  3.56894  0  0  -0.351898  -0.28857  0  3.540153  0
N  N98  1  0.29613318  0.46183327  0.31179149  1  0  -0.092587  0  3.609893  0  0  -0.002447  0  3.822251  0  0  -0.017663  0  3.848259  0  0  -0.224756  0.007656  0  3.804493  0
N  N99  1  0.70386961  0.53816792  0.68820862  1  0  -0.092607  0  3.609954  0  0  -0.002495  0  3.822318  0  0  -0.017711  0  3.848325  0  0  -0.224815  0.007609  0  3.804558  0
O  O100  1  0.00255972  0.63377963  0.07266721  1  0  -0.683975  0  2.05407  0  0  -0.612931  0  2.336312  0  0  -0.642283  0  2.32071  0  0  -0.33304  -0.592057  0  2.34628  0
O  O101  1  0.99744251  0.36621885  0.92733350  1  0  -0.684022  0  2.054103  0  0  -0.612986  0  2.336383  0  0  -0.642331  0  2.320759  0  0  -0.333097  -0.592111  0  2.346354  0
O  O102  1  0.00961163  0.71716987  0.24459368  1  0  -0.598277  0  1.98244  0  0  -0.542429  0  2.208275  0  0  -0.56809  0  2.197389  0  0  -0.296737  -0.524433  0  2.21511  0
O  O103  1  0.99038288  0.28282864  0.75540419  1  0  -0.598349  0  1.98236  0  0  -0.54246  0  2.208178  0  0  -0.56812  0  2.197292  0  0  -0.296738  -0.524466  0  2.215017  0
O  O104  1  0.62645404  0.60758549  0.09375013  1  0  -0.678092  0  2.066479  0  0  -0.613612  0  2.326147  0  0  -0.640924  0  2.313806  0  0  -0.336169  -0.59428  0  2.333718  0
O  O105  1  0.37354799  0.39241210  0.90624959  1  0  -0.678159  0  2.066533  0  0  -0.613671  0  2.326218  0  0  -0.640981  0  2.313875  0  0  -0.336204  -0.594342  0  2.333793  0
O  O106  1  0.41347506  0.72247252  0.09052837  1  0  -0.61236  0  1.989428  0  0  -0.556366  0  2.237862  0  0  -0.583491  0  2.227433  0  0  -0.323712  -0.537309  0  2.244151  0
O  O107  1  0.58652588  0.27752598  0.90947008  1  0  -0.612389  0  1.989287  0  0  -0.556413  0  2.237772  0  0  -0.583532  0  2.22733  0  0  -0.323706  -0.537353  0  2.244053  0
O  O108  1  0.16821490  0.92526103  0.16975906  1  0  -0.293227  0  2.328268  0  0  -0.226542  0  2.552576  0  0  -0.243199  0  2.554196  0  0  -0.156323  -0.214613  0  2.551081  0
O  O109  1  0.83178512  0.07473925  0.83024268  1  0  -0.293194  0  2.328242  0  0  -0.226513  0  2.552573  0  0  -0.243171  0  2.554195  0  0  -0.156334  -0.214576  0  2.55107  0
O  O110  1  0.17870244  0.18612015  0.62390623  1  0  -0.56387  0  2.072226  0  0  -0.513915  0  2.291804  0  0  -0.536047  0  2.276171  0  0  -0.340155  -0.498456  0  2.301477  0
O  O111  1  0.82129519  0.81388104  0.37609628  1  0  -0.563818  0  2.072364  0  0  -0.513855  0  2.291965  0  0  -0.535988  0  2.276318  0  0  -0.340091  -0.498393  0  2.301634  0
O  O112  1  0.93857477  0.14152957  0.49709651  1  0  -0.563549  0  1.924437  0  0  -0.520483  0  2.140791  0  0  -0.539953  0  2.132599  0  0  -0.296327  -0.507089  0  2.146162  0
O  O113  1  0.06142139  0.85847072  0.50290632  1  0  -0.563485  0  1.924424  0  0  -0.520446  0  2.140805  0  0  -0.539919  0  2.132615  0  0  -0.296296  -0.50705  0  2.14617  0
