# generated using pymatgen
data_ZnH18C8(SO4)2
_symmetry_space_group_name_H-M   'P 1'
_cell_length_a   7.77096717
_cell_length_b   8.98563424
_cell_length_c   10.60260500
_cell_angle_alpha   89.99995366
_cell_angle_beta   102.68020502
_cell_angle_gamma   90.00007060
_symmetry_Int_Tables_number   1
_chemical_formula_structural   ZnH18C8(SO4)2
_chemical_formula_sum   'Zn2 H36 C16 S4 O16'
_cell_volume   722.29204489
_cell_formula_units_Z   2
loop_
 _symmetry_equiv_pos_site_id
 _symmetry_equiv_pos_as_xyz
  1  'x, y, z'
loop_
 _atom_site_type_symbol
 _atom_site_label
 _atom_site_symmetry_multiplicity
 _atom_site_fract_x
 _atom_site_fract_y
 _atom_site_fract_z
 _atom_site_occupancy
 _atom_site_hle17_bader_spin_density
 _atom_site_hle17_ddec_charge
 _atom_site_hle17_ddec_spin_density
 _atom_site_hle17_ddec_sum_bond_order
 _atom_site_hle17_magmom
 _atom_site_hse06_10hf_bader_spin_density
 _atom_site_hse06_10hf_ddec_charge
 _atom_site_hse06_10hf_ddec_spin_density
 _atom_site_hse06_10hf_ddec_sum_bond_order
 _atom_site_hse06_10hf_magmom
 _atom_site_hse06_bader_spin_density
 _atom_site_hse06_ddec_charge
 _atom_site_hse06_ddec_spin_density
 _atom_site_hse06_ddec_sum_bond_order
 _atom_site_hse06_magmom
 _atom_site_pbe_bader_spin_density
 _atom_site_pbe_cm5_charge
 _atom_site_pbe_ddec_charge
 _atom_site_pbe_ddec_spin_density
 _atom_site_pbe_ddec_sum_bond_order
 _atom_site_pbe_magmom
Zn  Zn0  1  0.99999989  0.00000006  0.99999997  1  0  1.156906  0  1.76608  0  0  1.00629  0  2.2086  0  0  1.053026  0  2.147595  0  0  0.65304  0.972223  0  2.249817  0
Zn  Zn1  1  0.49999995  0.50000146  0.50000009  1  0  1.156967  0  1.76601  0  0  1.006345  0  2.208521  0  0  1.053088  0  2.147514  0  0  0.653087  0.972278  0  2.24974  0
H  H2  1  0.85814651  0.56167213  0.88820676  1  0  0.118224  0  0.959919  0  0  0.127815  0  1.019586  0  0  0.131758  0  1.017184  0  0  0.109907  0.124867  0  1.021586  0
H  H3  1  0.64185803  0.06167405  0.61179268  1  0  0.118371  0  0.959894  0  0  0.127926  0  1.019574  0  0  0.131868  0  1.017175  0  0  0.109934  0.124982  0  1.021571  0
H  H4  1  0.14185997  0.43832746  0.11179353  1  0  0.118207  0  0.959869  0  0  0.127753  0  1.019593  0  0  0.131693  0  1.017196  0  0  0.109901  0.1248  0  1.021598  0
H  H5  1  0.35815109  0.93832887  0.38820897  1  0  0.118327  0  0.959963  0  0  0.127906  0  1.019609  0  0  0.131847  0  1.01721  0  0  0.109939  0.124971  0  1.021599  0
H  H6  1  0.39852582  0.80637800  0.97600580  1  0  0.169254  0  0.94151  0  0  0.184256  0  0.998591  0  0  0.187311  0  0.997817  0  0  0.107452  0.182063  0  0.999164  0
H  H7  1  0.10147055  0.30637773  0.52399374  1  0  0.169231  0  0.941496  0  0  0.184236  0  0.99857  0  0  0.18729  0  0.997797  0  0  0.107444  0.182044  0  0.999145  0
H  H8  1  0.60147143  0.19362048  0.02399397  1  0  0.169228  0  0.941541  0  0  0.184226  0  0.998625  0  0  0.187279  0  0.997853  0  0  0.107434  0.182034  0  0.999192  0
H  H9  1  0.89852538  0.69362074  0.47600582  1  0  0.169258  0  0.941505  0  0  0.184261  0  0.998572  0  0  0.187316  0  0.997798  0  0  0.107454  0.182071  0  0.999138  0
H  H10  1  0.47689602  0.63364832  0.05665941  1  0  0.144625  0  0.941892  0  0  0.164575  0  0.998771  0  0  0.166095  0  0.998901  0  0  0.102582  0.163248  0  0.999076  0
H  H11  1  0.02310014  0.13364980  0.44334000  1  0  0.144609  0  0.941904  0  0  0.164553  0  0.998784  0  0  0.166073  0  0.998913  0  0  0.102568  0.163225  0  0.999098  0
H  H12  1  0.52310124  0.36634904  0.94334037  1  0  0.144607  0  0.941913  0  0  0.164538  0  0.998805  0  0  0.166058  0  0.998934  0  0  0.102557  0.163208  0  0.999115  0
H  H13  1  0.97689711  0.86634979  0.55665883  1  0  0.144639  0  0.941885  0  0  0.164571  0  0.998772  0  0  0.166089  0  0.998902  0  0  0.10257  0.163241  0  0.999083  0
H  H14  1  0.54318751  0.68502552  0.90977669  1  0  0.149843  0  0.944638  0  0  0.166605  0  1.005678  0  0  0.169011  0  1.004516  0  0  0.102143  0.164846  0  1.006541  0
H  H15  1  0.95680928  0.18502446  0.59022144  1  0  0.149843  0  0.94464  0  0  0.166595  0  1.005693  0  0  0.169  0  1.004532  0  0  0.102143  0.164835  0  1.006559  0
H  H16  1  0.45680974  0.31497296  0.09022214  1  0  0.149839  0  0.944646  0  0  0.166592  0  1.005696  0  0  0.168997  0  1.004535  0  0  0.102131  0.16483  0  1.006559  0
H  H17  1  0.04318797  0.81497402  0.40977644  1  0  0.14989  0  0.944602  0  0  0.166634  0  1.00565  0  0  0.169038  0  1.004491  0  0  0.102139  0.164876  0  1.006514  0
H  H18  1  0.70596054  0.96212042  0.27637134  1  0  0.140847  0  0.937377  0  0  0.159415  0  0.996441  0  0  0.160915  0  0.996762  0  0  0.099416  0.158284  0  0.996281  0
H  H19  1  0.79403661  0.46212240  0.22362832  1  0  0.140856  0  0.937345  0  0  0.159394  0  0.996457  0  0  0.160896  0  0.996776  0  0  0.099413  0.158265  0  0.996294  0
H  H20  1  0.29403804  0.03787805  0.72362958  1  0  0.140881  0  0.937355  0  0  0.159423  0  0.996459  0  0  0.160923  0  0.996779  0  0  0.099424  0.158291  0  0.996305  0
H  H21  1  0.20596196  0.53787830  0.77637165  1  0  0.140822  0  0.937387  0  0  0.159392  0  0.996458  0  0  0.160893  0  0.996779  0  0  0.099402  0.158263  0  0.996298  0
H  H22  1  0.56801174  0.80152957  0.27414012  1  0  0.166164  0  0.938964  0  0  0.184507  0  0.993648  0  0  0.186928  0  0.993221  0  0  0.107316  0.182424  0  0.994461  0
H  H23  1  0.93198521  0.30153169  0.22585962  1  0  0.166119  0  0.939002  0  0  0.184501  0  0.993628  0  0  0.186914  0  0.99321  0  0  0.107328  0.18242  0  0.994438  0
H  H24  1  0.43198420  0.19846890  0.72586039  1  0  0.166138  0  0.938999  0  0  0.184517  0  0.993626  0  0  0.186932  0  0.993207  0  0  0.107328  0.182434  0  0.994442  0
H  H25  1  0.06801335  0.69846901  0.77413847  1  0  0.16616  0  0.938957  0  0  0.184519  0  0.993624  0  0  0.186942  0  0.993196  0  0  0.107328  0.182438  0  0.994435  0
H  H26  1  0.48796250  0.96022733  0.17174286  1  0  0.163661  0  0.944325  0  0  0.178497  0  1.004507  0  0  0.181542  0  1.00326  0  0  0.105663  0.176182  0  1.005576  0
H  H27  1  0.01203408  0.46022780  0.32825639  1  0  0.163632  0  0.94432  0  0  0.178478  0  1.004489  0  0  0.181521  0  1.003245  0  0  0.105688  0.17616  0  1.005563  0
H  H28  1  0.51203476  0.03977225  0.82825692  1  0  0.163654  0  0.944346  0  0  0.178495  0  1.004518  0  0  0.181538  0  1.003275  0  0  0.105676  0.176182  0  1.005587  0
H  H29  1  0.98796449  0.53977179  0.67174264  1  0  0.163674  0  0.94432  0  0  0.178517  0  1.004493  0  0  0.181562  0  1.003246  0  0  0.105675  0.176204  0  1.00556  0
H  H30  1  0.17117030  0.07420954  0.23566303  1  0  0.419903  0  0.885927  0  0  0.387262  0  0.953449  0  0  0.398436  0  0.937282  0  0  0.284613  0.379045  0  0.965351  0
H  H31  1  0.32882975  0.57421105  0.26433797  1  0  0.419902  0  0.885925  0  0  0.387254  0  0.953456  0  0  0.398428  0  0.937289  0  0  0.284597  0.379038  0  0.965357  0
H  H32  1  0.82882960  0.92579004  0.76433716  1  0  0.419893  0  0.885942  0  0  0.387252  0  0.953463  0  0  0.398426  0  0.937296  0  0  0.284613  0.379039  0  0.965359  0
H  H33  1  0.67116882  0.42578965  0.73566201  1  0  0.419914  0  0.885909  0  0  0.387271  0  0.953431  0  0  0.398445  0  0.937264  0  0  0.284593  0.379061  0  0.965323  0
H  H34  1  0.14391066  0.89605915  0.21399623  1  0  0.403483  0  0.909921  0  0  0.36959  0  0.983176  0  0  0.381108  0  0.966346  0  0  0.281188  0.361405  0  0.995077  0
H  H35  1  0.35608981  0.39606002  0.28600650  1  0  0.403305  0  0.91013  0  0  0.369457  0  0.983367  0  0  0.380976  0  0.966537  0  0  0.281107  0.361272  0  0.995269  0
H  H36  1  0.85608925  0.10394044  0.78600585  1  0  0.403374  0  0.91009  0  0  0.369488  0  0.983336  0  0  0.381005  0  0.966506  0  0  0.28113  0.361301  0  0.99524  0
H  H37  1  0.64390877  0.60393957  0.71399536  1  0  0.403401  0  0.910062  0  0  0.369516  0  0.983295  0  0  0.381034  0  0.966464  0  0  0.281132  0.361329  0  0.995198  0
C  C38  1  0.93423624  0.47828459  0.95146527  1  0  -0.173736  0  3.673188  0  0  -0.19155  0  3.927746  0  0  -0.196988  0  3.942763  0  0  -0.086946  -0.187756  0  3.916692  0
C  C39  1  0.56578339  0.97828380  0.54854476  1  0  -0.173893  0  3.672554  0  0  -0.191721  0  3.927098  0  0  -0.197157  0  3.942105  0  0  -0.086951  -0.187929  0  3.916052  0
C  C40  1  0.06576759  0.52171611  0.04853177  1  0  -0.173716  0  3.673114  0  0  -0.191514  0  3.927656  0  0  -0.196952  0  3.942675  0  0  -0.086941  -0.187716  0  3.916593  0
C  C41  1  0.43422705  0.02171802  0.45145615  1  0  -0.173879  0  3.672564  0  0  -0.19168  0  3.927101  0  0  -0.197114  0  3.94211  0  0  -0.086962  -0.187885  0  3.916027  0
C  C42  1  0.89586937  0.31835820  0.92199925  1  0  0.669028  0  3.938135  0  0  0.615399  0  4.240597  0  0  0.649209  0  4.233932  0  0  0.204744  0.592975  0  4.243016  0
C  C43  1  0.60413285  0.81835742  0.57799681  1  0  0.66897  0  3.938461  0  0  0.615486  0  4.240693  0  0  0.649295  0  4.234022  0  0  0.204806  0.593064  0  4.243108  0
C  C44  1  0.10413316  0.68164361  0.07800135  1  0  0.668978  0  3.938213  0  0  0.61544  0  4.240535  0  0  0.64925  0  4.233867  0  0  0.204753  0.593033  0  4.242928  0
C  C45  1  0.39587232  0.18164551  0.42200421  1  0  0.668999  0  3.938252  0  0  0.615428  0  4.240602  0  0  0.649236  0  4.233934  0  0  0.204758  0.59301  0  4.243012  0
C  C46  1  0.50794930  0.72653950  0.99809254  1  0  -0.431008  0  3.540552  0  0  -0.498808  0  3.782463  0  0  -0.502895  0  3.787013  0  0  -0.234425  -0.495601  0  3.779529  0
C  C47  1  0.99204886  0.22653856  0.50190578  1  0  -0.430951  0  3.54048  0  0  -0.49874  0  3.782393  0  0  -0.502825  0  3.786943  0  0  -0.234392  -0.495528  0  3.779454  0
C  C48  1  0.49204928  0.27346009  0.00190744  1  0  -0.43095  0  3.540518  0  0  -0.498717  0  3.782425  0  0  -0.502803  0  3.786976  0  0  -0.234362  -0.495505  0  3.77948  0
C  C49  1  0.00794970  0.77345992  0.49809326  1  0  -0.431057  0  3.540497  0  0  -0.498813  0  3.782402  0  0  -0.502897  0  3.786951  0  0  -0.234383  -0.495601  0  3.779465  0
C  C50  1  0.60345682  0.89327161  0.21617896  1  0  -0.437181  0  3.562045  0  0  -0.507193  0  3.808516  0  0  -0.511625  0  3.813879  0  0  -0.236874  -0.503738  0  3.805196  0
C  C51  1  0.89654024  0.39327253  0.28381980  1  0  -0.437116  0  3.562013  0  0  -0.507137  0  3.808494  0  0  -0.51156  0  3.813861  0  0  -0.236902  -0.503678  0  3.805156  0
C  C52  1  0.39653911  0.10672686  0.78381966  1  0  -0.437175  0  3.562017  0  0  -0.50721  0  3.808518  0  0  -0.511628  0  3.81387  0  0  -0.236899  -0.503746  0  3.805174  0
C  C53  1  0.10345833  0.60672817  0.71617924  1  0  -0.437152  0  3.562008  0  0  -0.507197  0  3.80851  0  0  -0.511622  0  3.813854  0  0  -0.236872  -0.503742  0  3.805187  0
S  S54  1  0.69975215  0.81827646  0.09119192  1  0  0.705173  0  3.567761  0  0  0.680761  0  4.003771  0  0  0.696507  0  4.002684  0  0  0.286487  0.669216  0  4.004702  0
S  S55  1  0.80024482  0.31827827  0.40880781  1  0  0.705148  0  3.567607  0  0  0.680733  0  4.003627  0  0  0.696482  0  4.002532  0  0  0.28648  0.669189  0  4.004549  0
S  S56  1  0.30024378  0.18172313  0.90880670  1  0  0.705133  0  3.567513  0  0  0.680732  0  4.003529  0  0  0.696481  0  4.002433  0  0  0.286454  0.669187  0  4.004462  0
S  S57  1  0.19975508  0.68172355  0.59119238  1  0  0.705159  0  3.567673  0  0  0.680763  0  4.00369  0  0  0.696513  0  4.002595  0  0  0.286464  0.66922  0  4.004623  0
O  O58  1  0.80789057  0.28534329  0.80879175  1  0  -0.6315  0  1.962487  0  0  -0.564029  0  2.177083  0  0  -0.590077  0  2.167419  0  0  -0.308874  -0.544946  0  2.182466  0
O  O59  1  0.69211560  0.78534472  0.69121157  1  0  -0.631501  0  1.962388  0  0  -0.564099  0  2.176933  0  0  -0.590143  0  2.167257  0  0  -0.308922  -0.545023  0  2.182342  0
O  O60  1  0.19211065  0.71465630  0.19121053  1  0  -0.631539  0  1.962549  0  0  -0.564093  0  2.177108  0  0  -0.590137  0  2.167431  0  0  -0.308907  -0.545025  0  2.18251  0
O  O61  1  0.30788693  0.21465710  0.30878810  1  0  -0.631472  0  1.962294  0  0  -0.564062  0  2.176889  0  0  -0.590109  0  2.167215  0  0  -0.308911  -0.544978  0  2.182273  0
O  O62  1  0.08127329  0.99429926  0.20667884  1  0  -0.845421  0  1.909937  0  0  -0.790864  0  2.118517  0  0  -0.81239  0  2.082992  0  0  -0.587896  -0.776161  0  2.143767  0
O  O63  1  0.41872730  0.49429908  0.29332384  1  0  -0.84523  0  1.910099  0  0  -0.790693  0  2.118593  0  0  -0.812225  0  2.083086  0  0  -0.587777  -0.775988  0  2.143839  0
O  O64  1  0.91872529  0.00570144  0.79332302  1  0  -0.845311  0  1.910115  0  0  -0.790749  0  2.118623  0  0  -0.812284  0  2.083121  0  0  -0.587829  -0.776045  0  2.143871  0
O  O65  1  0.58127259  0.50570273  0.70667634  1  0  -0.845358  0  1.910075  0  0  -0.790798  0  2.118579  0  0  -0.812338  0  2.083086  0  0  -0.587809  -0.776096  0  2.143822  0
O  O66  1  0.95728517  0.22551380  0.01133286  1  0  -0.651894  0  2.096158  0  0  -0.583923  0  2.359112  0  0  -0.612101  0  2.34751  0  0  -0.31555  -0.563656  0  2.365347  0
O  O67  1  0.54272094  0.72551924  0.48867215  1  0  -0.651868  0  2.096417  0  0  -0.583918  0  2.359243  0  0  -0.612115  0  2.347692  0  0  -0.315615  -0.563655  0  2.365481  0
O  O68  1  0.04271604  0.77448690  0.98866659  1  0  -0.651858  0  2.096149  0  0  -0.583917  0  2.359052  0  0  -0.612107  0  2.347469  0  0  -0.315533  -0.563656  0  2.36528  0
O  O69  1  0.45728160  0.27448480  0.51132940  1  0  -0.651888  0  2.096325  0  0  -0.583891  0  2.359173  0  0  -0.612085  0  2.347615  0  0  -0.315571  -0.563635  0  2.365411  0
O  O70  1  0.73059071  0.95235386  0.00966803  1  0  -0.657922  0  1.977161  0  0  -0.585458  0  2.247803  0  0  -0.609246  0  2.237578  0  0  -0.347486  -0.568823  0  2.254782  0
O  O71  1  0.76940907  0.45235556  0.49033300  1  0  -0.657893  0  1.977025  0  0  -0.585463  0  2.247713  0  0  -0.609249  0  2.237487  0  0  -0.347483  -0.568822  0  2.254679  0
O  O72  1  0.26940787  0.04764350  0.99033384  1  0  -0.657863  0  1.976934  0  0  -0.585432  0  2.247617  0  0  -0.60922  0  2.237389  0  0  -0.347461  -0.568791  0  2.25459  0
O  O73  1  0.23059214  0.54764514  0.50966739  1  0  -0.657908  0  1.977039  0  0  -0.585497  0  2.247752  0  0  -0.609284  0  2.237525  0  0  -0.347469  -0.56885  0  2.254724  0
