# generated using pymatgen
data_Zn2H20C31N2O9
_symmetry_space_group_name_H-M   'P 1'
_cell_length_a   9.75754312
_cell_length_b   11.00773662
_cell_length_c   14.03419031
_cell_angle_alpha   94.10858280
_cell_angle_beta   97.59995645
_cell_angle_gamma   90.94902101
_symmetry_Int_Tables_number   1
_chemical_formula_structural   Zn2H20C31N2O9
_chemical_formula_sum   'Zn2 H20 C31 N2 O9'
_cell_volume   1489.79254682
_cell_formula_units_Z   1
loop_
 _symmetry_equiv_pos_site_id
 _symmetry_equiv_pos_as_xyz
  1  'x, y, z'
loop_
 _atom_site_type_symbol
 _atom_site_label
 _atom_site_symmetry_multiplicity
 _atom_site_fract_x
 _atom_site_fract_y
 _atom_site_fract_z
 _atom_site_occupancy
 _atom_site_pbe_bader_charge
 _atom_site_pbe_bader_spin_density
 _atom_site_pbe_cm5_charge
 _atom_site_pbe_ddec_charge
 _atom_site_pbe_ddec_spin_density
 _atom_site_pbe_ddec_sum_bond_order
 _atom_site_pbe_magmom
Zn  Zn0  1  0.35742970  0.49548958  0.49339099  1  1.287259  0  0.675739  0.821374  0  2.419648  0
Zn  Zn1  1  0.64578023  0.50641260  0.49921528  1  1.286888  0  0.67294  0.822415  0  2.378229  0
H  H2  1  0.34656165  0.49110356  0.97250387  1  0.107679  0  0.120488  0.122634  0  0.957734  0
H  H3  1  0.71387746  0.32609349  0.36810938  1  0.12276  0  0.117019  0.140142  0  1.023275  0
H  H4  1  0.81413082  0.18533836  0.25205687  1  0.062741  0  0.116439  0.112095  0  0.968958  0
H  H5  1  0.06823531  0.18993022  0.24452497  1  0.084473  0  0.11699  0.113479  0  0.966226  0
H  H6  1  0.22339536  0.33151409  0.35583067  1  0.131617  0  0.117381  0.140967  0  1.025426  0
H  H7  1  0.15698127  0.62499379  0.59889823  1  0.136682  0  0.13984  0.120379  0  0.959334  0
H  H8  1  0.66490726  0.50792494  0.02025480  1  0.096506  0  0.119796  0.120804  0  0.960778  0
H  H9  1  0.24374629  0.22392940  0.53132883  1  0.119149  0  0.097979  0.107167  0  1.043487  0
H  H10  1  0.02036712  0.11216103  0.49651993  1  0.078592  0  0.096823  0.094961  0  1.022962  0
H  H11  1  0.01292563  0.88989392  0.44401442  1  0.052147  0  0.097649  0.095806  0  0.998123  0
H  H12  1  0.23145543  0.77814156  0.44965125  1  0.087806  0  0.098175  0.109177  0  1.044482  0
H  H13  1  0.71194236  0.88948583  0.53902298  1  0.091319  0  0.108665  0.126426  0  1.003663  0
H  H14  1  0.89687825  0.63031671  0.59919615  1  0.149874  0  0.138964  0.118452  0  0.959435  0
H  H15  1  0.92944501  0.13265605  0.64647820  1  0.050133  0  0.101894  0.067996  0  0.980952  0
H  H16  1  0.80459312  0.02603160  0.67527293  1  0.040968  0  0.092898  0.049576  0  0.99054  0
H  H17  1  0.78248253  0.30485089  0.69279001  1  0.072165  0  0.091359  0.098099  0  0.981139  0
H  H18  1  0.65265616  0.20198002  0.71542828  1  0.052995  0  0.090052  0.086115  0  0.978979  0
H  H19  1  0.81417561  0.11945553  0.84982323  1  0.017248  0  0.082625  0.105137  0  1.00776  0
H  H20  1  0.79768881  0.27938328  0.86974872  1  0.046953  0  0.08489  0.113275  0  1.011906  0
H  H21  1  0.94833694  0.22017024  0.82714619  1  0.03353  0  0.082828  0.105783  0  1.006817  0
C  C22  1  0.50851687  0.26813071  0.50648799  1  1.562988  0  0.21849  0.608857  0  4.137454  0
C  C23  1  0.44902982  0.49741170  0.20504057  1  0.266633  0  -0.040444  -0.181778  0  3.940306  0
C  C24  1  0.24178421  0.12683303  0.51174430  1  -0.073103  0  -0.100201  -0.135205  0  3.984008  0
C  C25  1  0.11654405  0.06399317  0.49245936  1  -0.035566  0  -0.100033  -0.089627  0  4.05678  0
C  C26  1  0.11215934  0.93812742  0.46514222  1  -0.08204  0  -0.103359  -0.097177  0  4.072255  0
C  C27  1  0.23377309  0.87583954  0.46728370  1  0.031084  0  -0.100005  -0.138224  0  4.000718  0
C  C28  1  0.36468283  0.93661094  0.49363290  1  -0.037065  0  -0.004641  0.050832  0  3.936024  0
C  C29  1  0.36973503  0.06772571  0.50721393  1  0.013322  0  0.000436  0.079155  0  3.919209  0
C  C30  1  0.50138876  0.13379651  0.51936762  1  -0.008554  0  -0.01726  -0.185027  0  3.854079  0
C  C31  1  0.62216089  0.06689021  0.53484315  1  0.54944  0  0.092505  0.253155  0  4.039477  0
C  C32  1  0.61551522  0.93837058  0.52881859  1  -0.022407  0  -0.093703  -0.214909  0  3.994302  0
C  C33  1  0.45822588  0.49953300  0.30863361  1  1.639893  0  0.218594  0.663792  0  4.24184  0
C  C34  1  0.49226000  0.87297537  0.50647410  1  -0.099929  0  -0.006215  -0.038697  0  3.922509  0
C  C35  1  0.82433479  0.32696599  0.36516865  1  0.016046  0  -0.073735  -0.135832  0  3.919081  0
C  C36  1  0.88124967  0.24960563  0.30043141  1  -0.004104  0  -0.066107  -0.049599  0  3.975866  0
C  C37  1  0.02515244  0.25237876  0.29590294  1  0.029806  0  -0.064514  -0.046301  0  3.977046  0
C  C38  1  0.11252369  0.33136441  0.35715829  1  -0.006998  0  -0.075195  -0.14425  0  3.930469  0
C  C39  1  0.05762663  0.41142229  0.42493628  1  0.410914  0  0.128256  0.170846  0  3.931296  0
C  C40  1  0.91072090  0.41106774  0.42775913  1  0.453352  0  0.129859  0.175339  0  3.921277  0
C  C41  1  0.94249249  0.56702485  0.54963464  1  0.533054  0  0.077641  0.06174  0  3.89002  0
C  C42  1  0.08689806  0.56428169  0.54935235  1  0.559665  0  0.077987  0.065313  0  3.887685  0
C  C43  1  0.50054634  0.73646772  0.50294196  1  1.560069  0  0.220817  0.605003  0  4.132601  0
C  C44  1  0.53795185  0.51128986  0.68414786  1  1.673459  0  0.217402  0.665777  0  4.239566  0
C  C45  1  0.55379853  0.51009988  0.78790471  1  0.131147  0  -0.03759  -0.176806  0  3.935413  0
C  C46  1  0.56429157  0.50317184  0.97516821  1  0.055558  0  -0.060055  -0.045736  0  4.057558  0
C  C47  1  0.44690392  0.49576508  0.01790153  1  0.127351  0  -0.061078  -0.048495  0  4.056966  0
C  C48  1  0.44837735  0.49602015  0.11793529  1  -0.546527  0  -0.03399  -0.008516  0  4.162864  0
C  C49  1  0.56060953  0.50679582  0.87518484  1  -0.408983  0  -0.03554  -0.015321  0  4.159689  0
C  C50  1  0.81860700  0.11786050  0.65016163  1  0.397268  0  -0.063607  0.042984  0  3.87944  0
C  C51  1  0.76539957  0.21451607  0.71834424  1  -0.064339  0  -0.174428  -0.139112  0  3.968336  0
C  C52  1  0.83534531  0.20778779  0.82187982  1  -0.095767  0  -0.244413  -0.349659  0  3.990649  0
N  N53  1  0.85683726  0.49218070  0.49064083  1  -1.211601  0  -0.285008  -0.186143  0  3.45545  0
N  N54  1  0.14276317  0.48860331  0.48841068  1  -1.211335  0  -0.28875  -0.194356  0  3.463219  0
O  O55  1  0.39809183  0.31695540  0.46839464  1  -1.1753  0  -0.318248  -0.559733  0  2.420019  0
O  O56  1  0.62268847  0.32696859  0.52890612  1  -1.153357  0  -0.303199  -0.538388  0  2.39956  0
O  O57  1  0.34910433  0.52176574  0.34659608  1  -1.142211  0  -0.310215  -0.536206  0  2.255719  0
O  O58  1  0.57704200  0.47788721  0.35298189  1  -1.15517  0  -0.308192  -0.54923  0  2.3242  0
O  O59  1  0.39573704  0.67671214  0.52226825  1  -1.168343  0  -0.313937  -0.548885  0  2.384928  0
O  O60  1  0.61334157  0.68967814  0.48379879  1  -1.156201  0  -0.319008  -0.544206  0  2.289099  0
O  O61  1  0.41858941  0.47874066  0.64032207  1  -1.148672  0  -0.317407  -0.549544  0  2.244902  0
O  O62  1  0.64367480  0.54358500  0.64657083  1  -1.146878  0  -0.316935  -0.548213  0  2.248873  0
O  O63  1  0.75276410  0.11992090  0.55141023  1  -1.066079  0  -0.20641  -0.239877  0  2.507562  0
