# generated using pymatgen
data_TbH13C14N2O11
_symmetry_space_group_name_H-M   'P 1'
_cell_length_a   7.60424259
_cell_length_b   9.79283673
_cell_length_c   11.66933376
_cell_angle_alpha   105.25594510
_cell_angle_beta   99.88501299
_cell_angle_gamma   102.20837074
_symmetry_Int_Tables_number   1
_chemical_formula_structural   TbH13C14N2O11
_chemical_formula_sum   'Tb2 H26 C28 N4 O22'
_cell_volume   795.23318678
_cell_formula_units_Z   2
loop_
 _symmetry_equiv_pos_site_id
 _symmetry_equiv_pos_as_xyz
  1  'x, y, z'
loop_
 _atom_site_type_symbol
 _atom_site_label
 _atom_site_symmetry_multiplicity
 _atom_site_fract_x
 _atom_site_fract_y
 _atom_site_fract_z
 _atom_site_occupancy
 _atom_site_hle17_bader_spin_density
 _atom_site_hle17_ddec_charge
 _atom_site_hle17_ddec_spin_density
 _atom_site_hle17_ddec_sum_bond_order
 _atom_site_hle17_magmom
 _atom_site_hse06_10hf_bader_spin_density
 _atom_site_hse06_10hf_ddec_charge
 _atom_site_hse06_10hf_ddec_spin_density
 _atom_site_hse06_10hf_ddec_sum_bond_order
 _atom_site_hse06_10hf_magmom
 _atom_site_hse06_bader_spin_density
 _atom_site_hse06_ddec_charge
 _atom_site_hse06_ddec_spin_density
 _atom_site_hse06_ddec_sum_bond_order
 _atom_site_hse06_magmom
 _atom_site_pbe_bader_spin_density
 _atom_site_pbe_cm5_charge
 _atom_site_pbe_ddec_charge
 _atom_site_pbe_ddec_spin_density
 _atom_site_pbe_ddec_sum_bond_order
 _atom_site_pbe_magmom
Tb  Tb0  1  0.31370490  0.88621527  0.26302267  1  0  2.305418  0  1.627164  0  0  2.239573  0  1.961589  0  0  2.283554  0  1.919294  0  0  1.515605  2.139623  0  2.118254  0
Tb  Tb1  1  0.68629535  0.11378464  0.73697825  1  0  2.305425  0  1.627118  0  0  2.239577  0  1.96154  0  0  2.283561  0  1.91924  0  0  1.515632  2.139589  0  2.118216  0
H  H2  1  0.04808356  0.85759009  0.42991158  1  0  0.432851  0  0.866565  0  0  0.40237  0  0.928876  0  0  0.413224  0  0.912909  0  0  0.300891  0.394464  0  0.940294  0
H  H3  1  0.95191398  0.14240978  0.57009072  1  0  0.432714  0  0.866742  0  0  0.402306  0  0.928945  0  0  0.413159  0  0.912979  0  0  0.300866  0.394396  0  0.940367  0
H  H4  1  0.02946240  0.98521678  0.37482511  1  0  0.43349  0  0.858115  0  0  0.40423  0  0.918993  0  0  0.414181  0  0.904322  0  0  0.305971  0.397017  0  0.929463  0
H  H5  1  0.97053914  0.01478309  0.62517767  1  0  0.433473  0  0.858135  0  0  0.404214  0  0.919015  0  0  0.414165  0  0.904343  0  0  0.305962  0.396998  0  0.92949  0
H  H6  1  0.29594582  0.91796931  0.00436558  1  0  0.441172  0  0.85221  0  0  0.40825  0  0.918362  0  0  0.418749  0  0.903037  0  0  0.298918  0.400357  0  0.929851  0
H  H7  1  0.70405213  0.08203169  0.99563532  1  0  0.441221  0  0.852155  0  0  0.408309  0  0.918289  0  0  0.418802  0  0.902972  0  0  0.298956  0.400416  0  0.929779  0
H  H8  1  0.46305801  0.84421965  0.03115984  1  0  0.399482  0  0.921762  0  0  0.357636  0  1.005157  0  0  0.368975  0  0.988735  0  0  0.289721  0.349248  0  1.017209  0
H  H9  1  0.53693791  0.15577919  0.96883860  1  0  0.399469  0  0.921784  0  0  0.35762  0  1.005183  0  0  0.368959  0  0.988762  0  0  0.289707  0.34923  0  1.017239  0
H  H10  1  0.74035978  0.05542081  0.35376633  1  0  0.442617  0  0.846944  0  0  0.414964  0  0.903328  0  0  0.425145  0  0.888438  0  0  0.310585  0.407251  0  0.914522  0
H  H11  1  0.25963995  0.94458136  0.64623162  1  0  0.44265  0  0.846897  0  0  0.414995  0  0.903282  0  0  0.425177  0  0.88839  0  0  0.310584  0.407283  0  0.914477  0
H  H12  1  0.67712011  0.00433681  0.21211076  1  0  0.433809  0  0.866913  0  0  0.402763  0  0.930874  0  0  0.412904  0  0.915948  0  0  0.303679  0.395353  0  0.9416  0
H  H13  1  0.32287884  0.99566313  0.78788830  1  0  0.433857  0  0.866858  0  0  0.402787  0  0.930851  0  0  0.412933  0  0.915917  0  0  0.303683  0.395374  0  0.94158  0
H  H14  1  0.01963672  0.67076176  0.98698052  1  0  0.142897  0  0.958839  0  0  0.148578  0  1.024663  0  0  0.152837  0  1.021217  0  0  0.122055  0.145941  0  1.026136  0
H  H15  1  0.98036494  0.32924598  0.01301552  1  0  0.142949  0  0.958839  0  0  0.148628  0  1.024649  0  0  0.152888  0  1.021199  0  0  0.122081  0.145984  0  1.026118  0
H  H16  1  0.29753599  0.61935640  0.89393652  1  0  0.105607  0  0.90795  0  0  0.124642  0  0.962842  0  0  0.125671  0  0.961805  0  0  0.127392  0.123634  0  0.964046  0
H  H17  1  0.70246214  0.38064127  0.10606534  1  0  0.105622  0  0.907961  0  0  0.124714  0  0.96279  0  0  0.125742  0  0.961752  0  0  0.127413  0.123706  0  0.963995  0
H  H18  1  0.33862526  0.44178255  0.85612088  1  0  0.116437  0  0.930099  0  0  0.126778  0  0.995156  0  0  0.128396  0  0.994456  0  0  0.123806  0.125336  0  0.996129  0
H  H19  1  0.66137766  0.55821737  0.14388036  1  0  0.116393  0  0.930077  0  0  0.126776  0  0.995113  0  0  0.128395  0  0.994412  0  0  0.123813  0.125337  0  0.996086  0
H  H20  1  0.52791289  0.75713361  0.74553183  1  0  0.106137  0  0.956177  0  0  0.108815  0  1.03121  0  0  0.11333  0  1.026708  0  0  0.114316  0.106181  0  1.033175  0
H  H21  1  0.47208515  0.24285970  0.25446730  1  0  0.106136  0  0.956136  0  0  0.108852  0  1.031112  0  0  0.113371  0  1.026604  0  0  0.114321  0.106218  0  1.033081  0
H  H22  1  0.16163986  0.32397179  0.65150307  1  0  0.11998  0  0.95576  0  0  0.131803  0  1.013685  0  0  0.135386  0  1.010383  0  0  0.11722  0.128968  0  1.016465  0
H  H23  1  0.83835108  0.67602813  0.34849503  1  0  0.119982  0  0.9558  0  0  0.131797  0  1.013721  0  0  0.13538  0  1.01042  0  0  0.117224  0.128965  0  1.016509  0
H  H24  1  0.22762845  0.53357754  0.37240795  1  0  0.117418  0  0.949916  0  0  0.12351  0  1.017923  0  0  0.12706  0  1.01508  0  0  0.113596  0.120794  0  1.020292  0
H  H25  1  0.77237749  0.46641919  0.62758777  1  0  0.11743  0  0.949966  0  0  0.123516  0  1.01799  0  0  0.127056  0  1.015172  0  0  0.11356  0.120797  0  1.020353  0
H  H26  1  0.95608357  0.18541309  0.22821463  1  0  0.401321  0  0.882088  0  0  0.365885  0  0.964589  0  0  0.379614  0  0.950344  0  0  0.303787  0.356088  0  0.974937  0
H  H27  1  0.04391543  0.81458688  0.77178273  1  0  0.401321  0  0.882089  0  0  0.365863  0  0.964617  0  0  0.379601  0  0.950364  0  0  0.303781  0.356062  0  0.974964  0
C  C28  1  0.91828916  0.94534542  0.10281217  1  0  0.68776  0  3.857139  0  0  0.632536  0  4.156494  0  0  0.667804  0  4.145241  0  0  0.237155  0.608035  0  4.162565  0
C  C29  1  0.08171043  0.05465663  0.89719174  1  0  0.687969  0  3.857126  0  0  0.632734  0  4.156471  0  0  0.668022  0  4.145204  0  0  0.237264  0.608225  0  4.162548  0
C  C30  1  0.81140879  0.79900041  0.01754183  1  0  0.026604  0  3.755499  0  0  0.019198  0  4.035164  0  0  0.016929  0  4.051515  0  0  0.090734  0.020635  0  4.024594  0
C  C31  1  0.18859295  0.20100391  0.98245943  1  0  0.02667  0  3.755421  0  0  0.019244  0  4.035102  0  0  0.01697  0  4.051452  0  0  0.090727  0.020683  0  4.024519  0
C  C32  1  0.87817820  0.67775996  0.97057707  1  0  -0.141524  0  3.667162  0  0  -0.184554  0  3.939781  0  0  -0.185023  0  3.955313  0  0  -0.076407  -0.183515  0  3.928529  0
C  C33  1  0.12182063  0.32224336  0.02941847  1  0  -0.141705  0  3.667225  0  0  -0.184717  0  3.939836  0  0  -0.185178  0  3.955362  0  0  -0.076471  -0.183665  0  3.928585  0
C  C34  1  0.72218399  0.56475957  0.90208765  1  0  0.009006  0  3.665782  0  0  -0.008728  0  3.9168  0  0  -0.010678  0  3.934008  0  0  0.096969  -0.008315  0  3.906584  0
C  C35  1  0.27781264  0.43524145  0.09791224  1  0  0.009049  0  3.66565  0  0  -0.008701  0  3.916644  0  0  -0.010664  0  3.933875  0  0  0.09696  -0.008307  0  3.906448  0
C  C36  1  0.37750893  0.55161743  0.84671649  1  0  -0.063338  0  3.61737  0  0  -0.143641  0  3.867157  0  0  -0.139985  0  3.876682  0  0  -0.039837  -0.146166  0  3.861635  0
C  C37  1  0.62249130  0.44838246  0.15328528  1  0  -0.063346  0  3.617326  0  0  -0.143748  0  3.867159  0  0  -0.140091  0  3.876685  0  0  -0.039874  -0.146272  0  3.861636  0
C  C38  1  0.70773494  0.40872305  0.84048215  1  0  0.613651  0  4.007536  0  0  0.569903  0  4.309766  0  0  0.604001  0  4.300467  0  0  0.189504  0.547677  0  4.30823  0
C  C39  1  0.29226473  0.59127907  0.15951835  1  0  0.61378  0  4.007306  0  0  0.570052  0  4.309504  0  0  0.604153  0  4.300204  0  0  0.18959  0.547837  0  4.307971  0
C  C40  1  0.34311007  0.54263818  0.71311062  1  0  0.07666  0  3.72727  0  0  0.099578  0  3.975135  0  0  0.095742  0  3.99934  0  0  -0.005394  0.101831  0  3.95921  0
C  C41  1  0.65688603  0.45735733  0.28688879  1  0  0.076507  0  3.727195  0  0  0.099421  0  3.975087  0  0  0.095584  0  3.999294  0  0  -0.005465  0.101677  0  3.959171  0
C  C42  1  0.42904875  0.66033802  0.67796977  1  0  -0.081311  0  3.671086  0  0  -0.122101  0  3.926823  0  0  -0.119395  0  3.944791  0  0  -0.07046  -0.123701  0  3.915021  0
C  C43  1  0.57095265  0.33965747  0.32203198  1  0  -0.081166  0  3.671127  0  0  -0.121999  0  3.926801  0  0  -0.11929  0  3.944756  0  0  -0.070405  -0.123602  0  3.915007  0
C  C44  1  0.22260367  0.41767802  0.62406765  1  0  -0.06479  0  3.62055  0  0  -0.10041  0  3.861692  0  0  -0.096992  0  3.879066  0  0  -0.062641  -0.102582  0  3.850455  0
C  C45  1  0.77739014  0.58231859  0.37593089  1  0  -0.064657  0  3.620582  0  0  -0.100259  0  3.861684  0  0  -0.09684  0  3.87906  0  0  -0.062594  -0.102437  0  3.850465  0
C  C46  1  0.38802767  0.65768742  0.55575026  1  0  -0.074751  0  3.751918  0  0  -0.047947  0  3.984994  0  0  -0.05882  0  4.009786  0  0  -0.014425  -0.041739  0  3.970525  0
C  C47  1  0.61197003  0.34230483  0.44424687  1  0  -0.074777  0  3.752126  0  0  -0.047831  0  3.985069  0  0  -0.058699  0  4.009851  0  0  -0.014337  -0.041618  0  3.970588  0
C  C48  1  0.18272141  0.41293237  0.50078725  1  0  -0.090264  0  3.774033  0  0  -0.066294  0  4.019005  0  0  -0.078349  0  4.044498  0  0  -0.016721  -0.058725  0  4.00219  0
C  C49  1  0.81728122  0.58706652  0.49921029  1  0  -0.090315  0  3.774162  0  0  -0.066387  0  4.019131  0  0  -0.078441  0  4.044624  0  0  -0.016781  -0.058815  0  4.002319  0
C  C50  1  0.47506590  0.79112368  0.52413753  1  0  0.738617  0  3.858629  0  0  0.693747  0  4.148365  0  0  0.72971  0  4.136133  0  0  0.238113  0.668633  0  4.152236  0
C  C51  1  0.52496012  0.20887820  0.47588147  1  0  0.738691  0  3.858927  0  0  0.693723  0  4.148788  0  0  0.729686  0  4.136555  0  0  0.238034  0.668611  0  4.152648  0
C  C52  1  0.26269347  0.53470650  0.46710603  1  0  -0.051502  0  3.666654  0  0  -0.092941  0  3.919591  0  0  -0.089098  0  3.939381  0  0  -0.069021  -0.095198  0  3.906969  0
C  C53  1  0.73732081  0.46529132  0.53289265  1  0  -0.051586  0  3.66671  0  0  -0.093091  0  3.919684  0  0  -0.089254  0  3.939469  0  0  -0.069009  -0.095343  0  3.907047  0
C  C54  1  0.05701237  0.27883196  0.40631759  1  0  0.694078  0  3.759917  0  0  0.634086  0  4.062784  0  0  0.669736  0  4.053113  0  0  0.251574  0.609844  0  4.069298  0
C  C55  1  0.94298139  0.72116460  0.59368350  1  0  0.694039  0  3.759874  0  0  0.634183  0  4.062548  0  0  0.669834  0  4.05287  0  0  0.251608  0.609939  0  4.069065  0
N  N56  1  0.62454248  0.76338045  0.97808689  1  0  -0.236277  0  2.972657  0  0  -0.221826  0  3.226559  0  0  -0.226925  0  3.239621  0  0  -0.191461  -0.218704  0  3.219358  0
N  N57  1  0.37545929  0.23662389  0.02191352  1  0  -0.236258  0  2.97272  0  0  -0.221826  0  3.226647  0  0  -0.226921  0  3.23971  0  0  -0.191444  -0.218701  0  3.219439  0
N  N58  1  0.57224380  0.62155018  0.91062578  1  0  0.081639  0  3.520005  0  0  0.187317  0  3.709492  0  0  0.180937  0  3.732242  0  0  -0.116912  0.191227  0  3.694913  0
N  N59  1  0.42775721  0.37845195  0.08937488  1  0  0.081608  0  3.520124  0  0  0.187317  0  3.709617  0  0  0.180937  0  3.732372  0  0  -0.116919  0.191229  0  3.695041  0
O  O60  1  0.37825884  0.11968961  0.40123227  1  0  -0.764822  0  2.050946  0  0  -0.726779  0  2.308201  0  0  -0.751486  0  2.294519  0  0  -0.412535  -0.69907  0  2.318922  0
O  O61  1  0.62174295  0.88030699  0.59876893  1  0  -0.764662  0  2.051467  0  0  -0.726628  0  2.308667  0  0  -0.751323  0  2.294977  0  0  -0.412485  -0.698915  0  2.319392  0
O  O62  1  0.05043237  0.88680561  0.35485384  1  0  -0.896024  0  1.877424  0  0  -0.859609  0  2.064175  0  0  -0.877019  0  2.031683  0  0  -0.636833  -0.838466  0  2.090798  0
O  O63  1  0.94957049  0.11319425  0.64514995  1  0  -0.895872  0  1.877573  0  0  -0.859508  0  2.064237  0  0  -0.876931  0  2.031763  0  0  -0.636801  -0.838376  0  2.090885  0
O  O64  1  0.36394753  0.88234977  0.06543829  1  0  -0.940605  0  1.928273  0  0  -0.897641  0  2.141336  0  0  -0.916341  0  2.10741  0  0  -0.656095  -0.874897  0  2.169866  0
O  O65  1  0.63604970  0.11764905  0.93456116  1  0  -0.94067  0  1.928291  0  0  -0.897697  0  2.141337  0  0  -0.916404  0  2.107428  0  0  -0.65612  -0.874953  0  2.169869  0
O  O66  1  0.63154333  0.99979052  0.28576846  1  0  -0.919565  0  1.896347  0  0  -0.880266  0  2.089574  0  0  -0.897834  0  2.05714  0  0  -0.653437  -0.857966  0  2.116643  0
O  O67  1  0.36845834  0.00020946  0.71422922  1  0  -0.919616  0  1.896238  0  0  -0.880318  0  2.089536  0  0  -0.897885  0  2.057088  0  0  -0.653441  -0.858005  0  2.116579  0
O  O68  1  0.08647196  0.96495717  0.15191389  1  0  -0.695515  0  2.041083  0  0  -0.654183  0  2.303486  0  0  -0.678298  0  2.291416  0  0  -0.380966  -0.627456  0  2.31284  0
O  O69  1  0.91352839  0.03504283  0.84808277  1  0  -0.695573  0  2.041038  0  0  -0.654262  0  2.303463  0  0  -0.678372  0  2.291378  0  0  -0.381002  -0.627535  0  2.312825  0
O  O70  1  0.39426345  0.80959528  0.42732033  1  0  -0.749154  0  2.07754  0  0  -0.70846  0  2.335743  0  0  -0.733287  0  2.322891  0  0  -0.410108  -0.680061  0  2.34715  0
O  O71  1  0.60573506  0.19039922  0.57267485  1  0  -0.748952  0  2.07827  0  0  -0.708258  0  2.336562  0  0  -0.733046  0  2.323644  0  0  -0.409977  -0.679859  0  2.34796  0
O  O72  1  0.45027639  0.68498382  0.19388078  1  0  -0.666459  0  1.998568  0  0  -0.632273  0  2.239617  0  0  -0.656592  0  2.232855  0  0  -0.371361  -0.6082  0  2.243344  0
O  O73  1  0.54972704  0.31502159  0.80612179  1  0  -0.666408  0  1.998699  0  0  -0.632186  0  2.239713  0  0  -0.656505  0  2.232949  0  0  -0.371311  -0.608119  0  2.243438  0
O  O74  1  0.14358454  0.62827220  0.17295683  1  0  -0.690046  0  1.931189  0  0  -0.6522  0  2.163922  0  0  -0.675847  0  2.15427  0  0  -0.381662  -0.62755  0  2.170235  0
O  O75  1  0.85641587  0.37173211  0.82704427  1  0  -0.690003  0  1.931199  0  0  -0.65215  0  2.163936  0  0  -0.675805  0  2.154299  0  0  -0.381625  -0.627487  0  2.170219  0
O  O76  1  0.83417849  0.04793025  0.12425654  1  0  -0.647942  0  2.029406  0  0  -0.569628  0  2.232671  0  0  -0.596215  0  2.221549  0  0  -0.298226  -0.552121  0  2.241931  0
O  O77  1  0.16582198  0.95207412  0.87574201  1  0  -0.648091  0  2.029571  0  0  -0.569705  0  2.232783  0  0  -0.596343  0  2.221693  0  0  -0.298279  -0.552202  0  2.242044  0
O  O78  1  0.03600444  0.28383828  0.29375301  1  0  -0.521157  0  2.109488  0  0  -0.466639  0  2.335946  0  0  -0.490611  0  2.323516  0  0  -0.306203  -0.450188  0  2.344404  0
O  O79  1  0.96399719  0.71616167  0.70624637  1  0  -0.521074  0  2.109633  0  0  -0.466584  0  2.336047  0  0  -0.49055  0  2.323605  0  0  -0.306164  -0.450132  0  2.344503  0
O  O80  1  0.97645042  0.16867390  0.43241702  1  0  -0.631869  0  2.042776  0  0  -0.560354  0  2.251473  0  0  -0.585406  0  2.240754  0  0  -0.281053  -0.543811  0  2.259907  0
O  O81  1  0.02354592  0.83132608  0.56757916  1  0  -0.631959  0  2.042581  0  0  -0.560462  0  2.251203  0  0  -0.585517  0  2.240488  0  0  -0.281098  -0.543917  0  2.259635  0
