# generated using pymatgen
data_CdH22C26(NO2)3
_symmetry_space_group_name_H-M   'P 1'
_cell_length_a   9.08317627
_cell_length_b   11.18846250
_cell_length_c   15.26400000
_cell_angle_alpha   102.26582651
_cell_angle_beta   92.19141977
_cell_angle_gamma   108.69349103
_symmetry_Int_Tables_number   1
_chemical_formula_structural   CdH22C26(NO2)3
_chemical_formula_sum   'Cd2 H44 C52 N6 O12'
_cell_volume   1426.35077018
_cell_formula_units_Z   2
loop_
 _symmetry_equiv_pos_site_id
 _symmetry_equiv_pos_as_xyz
  1  'x, y, z'
loop_
 _atom_site_type_symbol
 _atom_site_label
 _atom_site_symmetry_multiplicity
 _atom_site_fract_x
 _atom_site_fract_y
 _atom_site_fract_z
 _atom_site_occupancy
 _atom_site_hle17_bader_spin_density
 _atom_site_hle17_ddec_charge
 _atom_site_hle17_ddec_spin_density
 _atom_site_hle17_ddec_sum_bond_order
 _atom_site_hle17_magmom
 _atom_site_hse06_10hf_bader_spin_density
 _atom_site_hse06_10hf_ddec_charge
 _atom_site_hse06_10hf_ddec_spin_density
 _atom_site_hse06_10hf_ddec_sum_bond_order
 _atom_site_hse06_10hf_magmom
 _atom_site_hse06_bader_spin_density
 _atom_site_hse06_ddec_charge
 _atom_site_hse06_ddec_spin_density
 _atom_site_hse06_ddec_sum_bond_order
 _atom_site_hse06_magmom
 _atom_site_pbe_bader_charge
 _atom_site_pbe_bader_spin_density
 _atom_site_pbe_cm5_charge
 _atom_site_pbe_ddec_charge
 _atom_site_pbe_ddec_spin_density
 _atom_site_pbe_ddec_sum_bond_order
 _atom_site_pbe_magmom
Cd  Cd0  1  0.54751665  0.16149641  0.58076431  1  0  1.133872  0  1.725104  0  0  0.941727  0  2.177619  0  0  1.001806  0  2.122491  0  1.28459  0  0.775216  0.898449  0  2.215472  0
Cd  Cd1  1  0.45248471  0.83850402  0.41923552  1  0  1.133933  0  1.725046  0  0  0.94178  0  2.177579  0  0  1.001869  0  2.122431  0  1.284583  0  0.775237  0.898503  0  2.215432  0
H  H2  1  0.96476811  0.14926847  0.45312451  1  0  0.119085  0  0.962743  0  0  0.129254  0  1.023184  0  0  0.131185  0  1.023199  0  0.155731  0  0.125569  0.127761  0  1.023388  0
H  H3  1  0.03523066  0.85073099  0.54687577  1  0  0.119074  0  0.962716  0  0  0.129225  0  1.023185  0  0  0.131155  0  1.023197  0  0.155739  0  0.12558  0.127743  0  1.023375  0
H  H4  1  0.17438124  0.01128867  0.44307649  1  0  0.12034  0  0.968731  0  0  0.125525  0  1.033426  0  0  0.12867  0  1.032044  0  0.161071  0  0.11702  0.12322  0  1.034495  0
H  H5  1  0.82561674  0.98870884  0.55692282  1  0  0.120387  0  0.968743  0  0  0.125562  0  1.033442  0  0  0.128704  0  1.03206  0  0.161101  0  0.117016  0.123257  0  1.034511  0
H  H6  1  0.37915824  0.57904521  0.58169806  1  0  0.128576  0  0.991934  0  0  0.134761  0  1.057812  0  0  0.139201  0  1.055113  0  0.165758  0  0.109383  0.131575  0  1.059882  0
H  H7  1  0.62084053  0.42095425  0.41830091  1  0  0.128559  0  0.991968  0  0  0.134775  0  1.057811  0  0  0.139214  0  1.055112  0  0.16576  0  0.109378  0.131592  0  1.059873  0
H  H8  1  0.60524459  0.74643558  0.67782134  1  0  0.104106  0  0.917681  0  0  0.118487  0  0.967139  0  0  0.121003  0  0.966093  0  0.099146  0  0.115105  0.116605  0  0.968055  0
H  H9  1  0.39475568  0.25356485  0.32217847  1  0  0.104087  0  0.917743  0  0  0.118469  0  0.967198  0  0  0.120986  0  0.966151  0  0.099147  0  0.115098  0.116587  0  0.968112  0
H  H10  1  0.80112940  0.67932810  0.76066028  1  0  0.107661  0  0.950274  0  0  0.116446  0  1.00898  0  0  0.119963  0  1.007751  0  0.118344  0  0.106881  0.113961  0  1.009918  0
H  H11  1  0.19886976  0.32067233  0.23933950  1  0  0.107679  0  0.950265  0  0  0.116474  0  1.00896  0  0  0.119991  0  1.007731  0  0.118416  0  0.106885  0.113988  0  1.009898  0
H  H12  1  0.75932921  0.44110815  0.73597554  1  0  0.079369  0  0.930148  0  0  0.089153  0  0.990095  0  0  0.091173  0  0.988841  0  0.109131  0  0.117285  0.087626  0  0.991125  0
H  H13  1  0.24067215  0.55889227  0.26402430  1  0  0.079379  0  0.930148  0  0  0.089178  0  0.990079  0  0  0.091186  0  0.98884  0  0.10913  0  0.117294  0.087653  0  0.991107  0
H  H14  1  0.07558294  0.24556603  0.68943284  1  0  0.098145  0  0.962134  0  0  0.105732  0  1.026479  0  0  0.108985  0  1.024508  0  0.083624  0  0.102662  0.103431  0  1.027882  0
H  H15  1  0.92441693  0.75443342  0.31056812  1  0  0.098134  0  0.962123  0  0  0.105712  0  1.026494  0  0  0.108967  0  1.024517  0  0.083298  0  0.102655  0.103417  0  1.027883  0
H  H16  1  0.30901467  0.35196532  0.80302322  1  0  0.108216  0  0.967012  0  0  0.117115  0  1.029345  0  0  0.120214  0  1.028722  0  0.079102  0  0.10226  0.114972  0  1.029894  0
H  H17  1  0.69098520  0.64803413  0.19697709  1  0  0.108201  0  0.967025  0  0  0.117091  0  1.029367  0  0  0.120189  0  1.028745  0  0.079086  0  0.102256  0.114948  0  1.029917  0
H  H18  1  0.00715992  0.36175331  0.01446611  1  0  0.11333  0  0.940189  0  0  0.122898  0  1.000765  0  0  0.126839  0  0.998657  0  0.085013  0  0.105551  0.120159  0  1.002302  0
H  H19  1  0.99284034  0.63824712  0.98553436  1  0  0.113292  0  0.940126  0  0  0.122832  0  1.000736  0  0  0.126772  0  0.998631  0  0.085034  0  0.105531  0.120098  0  1.002266  0
H  H20  1  0.77243233  0.25506359  0.89721900  1  0  0.105415  0  0.93288  0  0  0.115523  0  0.989835  0  0  0.119753  0  0.986022  0  0.077886  0  0.105169  0.11246  0  0.992582  0
H  H21  1  0.22756463  0.74493683  0.10278205  1  0  0.105321  0  0.932962  0  0  0.115463  0  0.98989  0  0  0.119695  0  0.986075  0  0.077655  0  0.105129  0.1124  0  0.992637  0
H  H22  1  0.45678702  0.52971579  0.91037260  1  0  0.060938  0  0.907321  0  0  0.074955  0  0.966508  0  0  0.075249  0  0.96611  0  0.046023  0  0.106472  0.074721  0  0.966907  0
H  H23  1  0.54321246  0.47028270  0.08962754  1  0  0.060966  0  0.907273  0  0  0.074984  0  0.966454  0  0  0.075279  0  0.966055  0  0.046004  0  0.106484  0.07475  0  0.966852  0
H  H24  1  0.47458551  0.37908262  0.92270571  1  0  0.067242  0  0.901789  0  0  0.082877  0  0.957907  0  0  0.083337  0  0.956989  0  0.074668  0  0.11041  0.082535  0  0.958614  0
H  H25  1  0.52541475  0.62091781  0.07729410  1  0  0.067241  0  0.901788  0  0  0.082878  0  0.9579  0  0  0.083337  0  0.956983  0  0.074664  0  0.110401  0.082536  0  0.958605  0
H  H26  1  0.25200488  0.67130889  0.69565796  1  0  0.084496  0  0.978614  0  0  0.093814  0  1.044501  0  0  0.096623  0  1.042462  0  0.050911  0  0.098282  0.091672  0  1.046255  0
H  H27  1  0.74799649  0.32869154  0.30434188  1  0  0.084505  0  0.978632  0  0  0.093831  0  1.044497  0  0  0.096641  0  1.042455  0  0.050905  0  0.098289  0.091689  0  1.046251  0
H  H28  1  0.12810445  0.69388332  0.83904272  1  0  0.111284  0  0.939167  0  0  0.124375  0  0.992783  0  0  0.128099  0  0.991234  0  0.084732  0  0.105346  0.121353  0  0.994719  0
H  H29  1  0.87189692  0.30611711  0.16095712  1  0  0.111279  0  0.939191  0  0  0.124377  0  0.992803  0  0  0.128097  0  0.991259  0  0.084722  0  0.105339  0.121354  0  0.99474  0
H  H30  1  0.13228828  0.07401162  0.81769849  1  0  0.100356  0  1.002102  0  0  0.106093  0  1.072933  0  0  0.10842  0  1.073969  0  0.094302  0  0.097098  0.104363  0  1.072548  0
H  H31  1  0.86771198  0.92598881  0.18230132  1  0  0.100361  0  1.002113  0  0  0.106087  0  1.072951  0  0  0.108415  0  1.073987  0  0.094316  0  0.0971  0.104358  0  1.072567  0
H  H32  1  0.25973619  0.05125749  0.67855213  1  0  0.094234  0  0.945839  0  0  0.105046  0  1.006784  0  0  0.107946  0  1.004446  0  0.099471  0  0.103354  0.102817  0  1.008694  0
H  H33  1  0.74026407  0.94874294  0.32144768  1  0  0.094213  0  0.945877  0  0  0.105009  0  1.006841  0  0  0.107927  0  1.004484  0  0.099492  0  0.103336  0.10278  0  1.008751  0
H  H34  1  0.94613458  0.02841983  0.91196266  1  0  0.065089  0  0.911434  0  0  0.079153  0  0.970602  0  0  0.079012  0  0.971  0  0.070644  0  0.107027  0.079246  0  0.970381  0
H  H35  1  0.05386529  0.97157962  0.08803830  1  0  0.065062  0  0.911399  0  0  0.079135  0  0.97059  0  0  0.078993  0  0.970989  0  0.070638  0  0.107019  0.079227  0  0.970368  0
H  H36  1  0.14200428  0.09026567  0.96686318  1  0  0.064351  0  0.906818  0  0  0.078555  0  0.964638  0  0  0.079  0  0.964095  0  0.06454  0  0.107199  0.078225  0  0.965077  0
H  H37  1  0.85799190  0.90973281  0.03313689  1  0  0.064295  0  0.906766  0  0  0.078542  0  0.964578  0  0  0.078988  0  0.964033  0  0.064502  0  0.107202  0.07821  0  0.965017  0
H  H38  1  0.98623404  0.37958673  0.42532075  1  0  0.068627  0  0.956692  0  0  0.0842  0  1.02352  0  0  0.084376  0  1.02516  0  0.03301  0  0.088511  0.084091  0  1.022386  0
H  H39  1  0.01376622  0.62041370  0.57467840  1  0  0.068642  0  0.956729  0  0  0.08423  0  1.023533  0  0  0.084406  0  1.025167  0  0.033011  0  0.088519  0.084122  0  1.022396  0
H  H40  1  0.15963247  0.51615617  0.46477907  1  0  0.080135  0  0.948351  0  0  0.096664  0  1.010338  0  0  0.097424  0  1.011113  0  0.044986  0  0.091251  0.096038  0  1.009944  0
H  H41  1  0.84036890  0.48384426  0.53522076  1  0  0.080144  0  0.948276  0  0  0.096673  0  1.010253  0  0  0.09743  0  1.011024  0  0.045002  0  0.09125  0.096046  0  1.009861  0
H  H42  1  0.97380456  0.34326522  0.58317768  1  0  0.093104  0  0.943335  0  0  0.106407  0  1.008326  0  0  0.107912  0  1.0076  0  0.125178  0  0.111863  0.105194  0  1.009007  0
H  H43  1  0.02619681  0.65673521  0.41682216  1  0  0.093103  0  0.94335  0  0  0.106442  0  1.0083  0  0  0.107948  0  1.007572  0  0.125169  0  0.111874  0.105229  0  1.008982  0
H  H44  1  0.15579748  0.47084121  0.61793854  1  0  0.065455  0  0.949673  0  0  0.081541  0  1.014677  0  0  0.081714  0  1.014911  0  0.055704  0  0.106902  0.081338  0  1.0146  0
H  H45  1  0.84420278  0.52915922  0.38206127  1  0  0.065473  0  0.949663  0  0  0.081562  0  1.014682  0  0  0.081735  0  1.014916  0  0.055699  0  0.106898  0.081358  0  1.014605  0
C  C46  1  0.08616177  0.17836725  0.48035300  1  0  -0.041034  0  3.644378  0  0  -0.083006  0  3.903276  0  0  -0.081977  0  3.923697  0  0.294509  0  0.012091  -0.083614  0  3.889618  0
C  C47  1  0.91383771  0.82163123  0.51964714  1  0  -0.040878  0  3.644397  0  0  -0.082838  0  3.903292  0  0  -0.081806  0  3.923714  0  0.294482  0  0.012129  -0.083457  0  3.889628  0
C  C48  1  0.18985865  0.11108396  0.47689431  1  0  0.014864  0  3.737503  0  0  -0.017337  0  4.004115  0  0  -0.016676  0  4.025681  0  0.426652  0  0.00528  -0.017801  0  3.989462  0
C  C49  1  0.81013933  0.88891355  0.52310761  1  0  0.014704  0  3.737642  0  0  -0.01749  0  4.004259  0  0  -0.016827  0  4.025824  0  0.426674  0  0.005242  -0.017954  0  3.989608  0
C  C50  1  0.31274267  0.30827441  0.55775810  1  0  0.21763  0  3.736663  0  0  0.182077  0  4.002083  0  0  0.193397  0  4.019655  0  0.953085  0  0.208951  0.174748  0  3.989908  0
C  C51  1  0.68725720  0.69172505  0.44224155  1  0  0.217678  0  3.73664  0  0  0.182159  0  4.002015  0  0  0.193479  0  4.019588  0  0.95337  0  0.20898  0.174831  0  3.989839  0
C  C52  1  0.44259476  0.41796647  0.61189624  1  0  0.165949  0  3.797975  0  0  0.165614  0  4.045338  0  0  0.171734  0  4.065334  0  0.512487  0  0.119041  0.16137  0  4.031684  0
C  C53  1  0.55740621  0.58203299  0.38810278  1  0  0.16596  0  3.797955  0  0  0.16559  0  4.045358  0  0  0.17171  0  4.065355  0  0.512489  0  0.119026  0.161344  0  4.031706  0
C  C54  1  0.46014311  0.54887894  0.61900505  1  0  -0.158686  0  3.694117  0  0  -0.182632  0  3.950118  0  0  -0.189062  0  3.969418  0  -0.103051  0  -0.087954  -0.178383  0  3.937181  0
C  C55  1  0.53985786  0.45112051  0.38099462  1  0  -0.158608  0  3.694099  0  0  -0.182572  0  3.95009  0  0  -0.189001  0  3.969391  0  -0.103043  0  -0.08791  -0.178322  0  3.937155  0
C  C56  1  0.58979097  0.64429650  0.67273368  1  0  0.005816  0  3.71803  0  0  -0.013295  0  3.970227  0  0  -0.009592  0  3.987579  0  0.017918  0  -0.064549  -0.015457  0  3.958298  0
C  C57  1  0.41020890  0.35570296  0.32726532  1  0  0.005813  0  3.718093  0  0  -0.013295  0  3.970288  0  0  -0.009593  0  3.987641  0  0.017911  0  -0.064558  -0.015458  0  3.95836  0
C  C58  1  0.69878302  0.60777295  0.71773043  1  0  -0.129195  0  3.736461  0  0  -0.140813  0  3.986392  0  0  -0.146092  0  4.0049  0  -0.077151  0  -0.084456  -0.137487  0  3.973824  0
C  C59  1  0.30121724  0.39222748  0.28226938  1  0  -0.129273  0  3.736485  0  0  -0.140902  0  3.986419  0  0  -0.14618  0  4.004924  0  -0.077207  0  -0.084487  -0.137576  0  3.973853  0
C  C60  1  0.67579925  0.47533453  0.70430250  1  0  0.138643  0  3.72581  0  0  0.1091  0  3.980114  0  0  0.116492  0  3.997101  0  0.464685  0  0.05214  0.104346  0  3.968324  0
C  C61  1  0.32420141  0.52466687  0.29569747  1  0  0.138694  0  3.72583  0  0  0.109138  0  3.980134  0  0  0.116537  0  3.997129  0  0.464682  0  0.05216  0.104381  0  3.968344  0
C  C62  1  0.77250671  0.19548967  0.71584523  1  0  0.610207  0  3.977238  0  0  0.565107  0  4.265237  0  0  0.599219  0  4.260562  0  1.513651  0  0.178691  0.542021  0  4.267633  0
C  C63  1  0.22749466  0.80451076  0.28415526  1  0  0.610246  0  3.977177  0  0  0.565148  0  4.26517  0  0  0.59926  0  4.260495  0  1.51366  0  0.178713  0.542062  0  4.267569  0
C  C64  1  0.91017826  0.24558837  0.78610135  1  0  -0.09809  0  3.806639  0  0  -0.078127  0  4.044231  0  0  -0.08874  0  4.06846  0  -0.015766  0  -0.037396  -0.071357  0  4.027942  0
C  C65  1  0.08982161  0.75441108  0.21389961  1  0  -0.098189  0  3.806748  0  0  -0.07822  0  4.044357  0  0  -0.088833  0  4.068584  0  -0.015748  0  -0.037434  -0.07145  0  4.028069  0
C  C66  1  0.06156111  0.27229771  0.76068285  1  0  -0.045917  0  3.769333  0  0  -0.067091  0  4.016612  0  0  -0.063786  0  4.0357  0  -0.010833  0  -0.088089  -0.06907  0  4.004018  0
C  C67  1  0.93843695  0.72770271  0.23931822  1  0  -0.045817  0  3.769252  0  0  -0.067005  0  4.016542  0  0  -0.063699  0  4.035628  0  -0.010539  0  -0.088039  -0.068982  0  4.003948  0
C  C68  1  0.19255482  0.33226405  0.82464871  1  0  -0.227955  0  3.789629  0  0  -0.244602  0  4.039768  0  0  -0.252758  0  4.060606  0  -0.043099  0  -0.116787  -0.239523  0  4.026552  0
C  C69  1  0.80744355  0.66773443  0.17535141  1  0  -0.228004  0  3.789648  0  0  -0.244644  0  4.039802  0  0  -0.252799  0  4.06064  0  -0.043118  0  -0.116841  -0.239565  0  4.026588  0
C  C70  1  0.17108677  0.36564441  0.91599944  1  0  0.274049  0  3.830767  0  0  0.263791  0  4.092113  0  0  0.276683  0  4.108301  0  0.390306  0  0.081554  0.254996  0  4.08129  0
C  C71  1  0.82891200  0.63435504  0.08400150  1  0  0.274011  0  3.83083  0  0  0.263764  0  4.092148  0  0  0.276658  0  4.108336  0  0.390286  0  0.081577  0.25497  0  4.081326  0
C  C72  1  0.01990496  0.33626395  0.94288261  1  0  -0.185432  0  3.758796  0  0  -0.209912  0  4.023062  0  0  -0.21656  0  4.041951  0  -0.002912  0  -0.104231  -0.205556  0  4.010185  0
C  C73  1  0.98009530  0.66373648  0.05711852  1  0  -0.185385  0  3.758749  0  0  -0.209838  0  4.023021  0  0  -0.216489  0  4.041921  0  -0.0029  0  -0.10423  -0.205485  0  4.010143  0
C  C74  1  0.89089569  0.27689691  0.87812257  1  0  -0.049036  0  3.762672  0  0  -0.07295  0  4.013499  0  0  -0.069536  0  4.031706  0  -0.039583  0  -0.083965  -0.074835  0  4.00083  0
C  C75  1  0.10910198  0.72310255  0.12187834  1  0  -0.048913  0  3.76273  0  0  -0.072857  0  4.013536  0  0  -0.069444  0  4.031743  0  -0.039318  0  -0.083907  -0.074744  0  4.000871  0
C  C76  1  0.44589513  0.46477823  0.95682654  1  0  0.069549  0  3.647551  0  0  0.005824  0  3.926489  0  0  0.01344  0  3.931367  0  0.422634  0  -0.062959  0.000671  0  3.922872  0
C  C77  1  0.55410513  0.53522219  0.04317393  1  0  0.069547  0  3.647491  0  0  0.005833  0  3.926403  0  0  0.013451  0  3.931282  0  0.452877  0  -0.062923  0.000685  0  3.922782  0
C  C78  1  0.33146112  0.84292450  0.59031341  1  0  0.64737  0  3.920786  0  0  0.596354  0  4.210987  0  0  0.632107  0  4.203265  0  1.536078  0  0.20013  0.572107  0  4.215267  0
C  C79  1  0.66854064  0.15707690  0.40968659  1  0  0.647407  0  3.920756  0  0  0.596389  0  4.210954  0  0  0.632146  0  4.203235  0  1.53607  0  0.200162  0.572144  0  4.215234  0
C  C80  1  0.26398645  0.85968850  0.67763861  1  0  -0.106846  0  3.797464  0  0  -0.088297  0  4.038658  0  0  -0.099111  0  4.061637  0  -0.006227  0  -0.035698  -0.0815  0  4.023201  0
C  C81  1  0.73601492  0.14031193  0.32236188  1  0  -0.106787  0  3.797451  0  0  -0.088223  0  4.038617  0  0  -0.099043  0  4.061606  0  -0.006221  0  -0.035683  -0.081435  0  4.02317  0
C  C82  1  0.22547397  0.75907827  0.72330927  1  0  -0.049323  0  3.786902  0  0  -0.072271  0  4.036933  0  0  -0.06879  0  4.056285  0  -0.072157  0  -0.086378  -0.074226  0  4.023694  0
C  C83  1  0.77452519  0.24092216  0.27669051  1  0  -0.049341  0  3.786898  0  0  -0.072289  0  4.036921  0  0  -0.068804  0  4.056269  0  -0.072165  0  -0.086387  -0.074241  0  4.023684  0
C  C84  1  0.15641134  0.77090603  0.80266901  1  0  -0.196679  0  3.771905  0  0  -0.218207  0  4.025815  0  0  -0.225471  0  4.044589  0  -0.021776  0  -0.108219  -0.21335  0  4.013361  0
C  C85  1  0.84358821  0.22909537  0.19733094  1  0  -0.196735  0  3.771895  0  0  -0.218261  0  4.025829  0  0  -0.225523  0  4.044604  0  -0.021796  0  -0.108244  -0.213404  0  4.013374  0
C  C86  1  0.12273227  0.88479807  0.83730734  1  0  0.280091  0  3.83063  0  0  0.271144  0  4.089091  0  0  0.284448  0  4.104361  0  0.436708  0  0.083945  0.262154  0  4.078466  0
C  C87  1  0.87726909  0.11520236  0.16269249  1  0  0.280109  0  3.830594  0  0  0.271117  0  4.089105  0  0  0.284422  0  4.104374  0  0.43674  0  0.083926  0.262126  0  4.07848  0
C  C88  1  0.15939358  0.98592407  0.79246824  1  0  -0.21867  0  3.773643  0  0  -0.237161  0  4.022568  0  0  -0.245032  0  4.043218  0  -0.047478  0  -0.115084  -0.231905  0  4.008573  0
C  C89  1  0.84061188  0.01407830  0.20753264  1  0  -0.218646  0  3.77359  0  0  -0.237112  0  4.022521  0  0  -0.244986  0  4.043178  0  -0.04725  0  -0.11505  -0.231856  0  4.008526  0
C  C90  1  0.23100506  0.97293170  0.71367173  1  0  -0.019081  0  3.745109  0  0  -0.040892  0  3.990087  0  0  -0.036579  0  4.007976  0  -0.014122  0  -0.078623  -0.043254  0  3.977672  0
C  C91  1  0.76899630  0.02706873  0.28632811  1  0  -0.019133  0  3.745164  0  0  -0.040935  0  3.990149  0  0  -0.036638  0  4.008037  0  -0.014353  0  -0.078642  -0.043294  0  3.977735  0
C  C92  1  0.03068302  0.00848350  0.95555109  1  0  0.070706  0  3.633358  0  0  0.008826  0  3.909778  0  0  0.016359  0  3.914631  0  0.405886  0  -0.06287  0.003673  0  3.906424  0
C  C93  1  0.96931536  0.99151498  0.04444968  1  0  0.070856  0  3.633186  0  0  0.008871  0  3.909697  0  0  0.016403  0  3.91455  0  0.431375  0  -0.062838  0.003724  0  3.906335  0
C  C94  1  0.04954184  0.45743117  0.48450626  1  0  -0.127002  0  3.678957  0  0  -0.167702  0  3.939684  0  0  -0.169176  0  3.953144  0  -0.02588  0  -0.168061  -0.166614  0  3.930531  0
C  C95  1  0.95045952  0.54256925  0.51549357  1  0  -0.127075  0  3.67896  0  0  -0.167751  0  3.939698  0  0  -0.169205  0  3.95314  0  0.00329  0  -0.168094  -0.166663  0  3.930546  0
C  C96  1  0.08352244  0.39659647  0.55981093  1  0  0.001212  0  3.611357  0  0  -0.062819  0  3.872865  0  0  -0.058511  0  3.883272  0  0.275861  0  -0.055101  -0.065525  0  3.865751  0
C  C97  1  0.91647743  0.60340298  0.44018872  1  0  0.001183  0  3.611326  0  0  -0.062921  0  3.872907  0  0  -0.058618  0  3.883311  0  0.27585  0  -0.05511  -0.065627  0  3.865797  0
N  N98  1  0.32854689  0.19239796  0.52555718  1  0  -0.409451  0  3.259418  0  0  -0.34243  0  3.541369  0  0  -0.363513  0  3.559808  0  -1.206151  0  -0.354642  -0.327942  0  3.528489  0
N  N99  1  0.67145149  0.80760053  0.47444228  1  0  -0.409538  0  3.259456  0  0  -0.342511  0  3.541391  0  0  -0.363596  0  3.55983  0  -1.206453  0  -0.354666  -0.328023  0  3.528512  0
N  N100  1  0.16385203  0.30229788  0.53148915  1  0  -0.085324  0  3.507875  0  0  0.007108  0  3.726378  0  0  -0.007118  0  3.752113  0  -1.217124  0  -0.231761  0.016401  0  3.708984  0
N  N101  1  0.83614784  0.69770157  0.46851050  1  0  -0.085351  0  3.507879  0  0  0.007082  0  3.726402  0  0  -0.007145  0  3.752139  0  -1.217111  0  -0.23178  0.016373  0  3.709012  0
N  N102  1  0.55236251  0.38301937  0.65266125  1  0  -0.359774  0  3.201931  0  0  -0.296406  0  3.460018  0  0  -0.314208  0  3.477103  0  -1.209225  0  -0.317893  -0.283852  0  3.447954  0
N  N103  1  0.44763776  0.61698105  0.34733791  1  0  -0.359811  0  3.201968  0  0  -0.296438  0  3.460077  0  0  -0.314239  0  3.477158  0  -1.20924  0  -0.317907  -0.283884  0  3.448013  0
O  O104  1  0.63560702  0.17523863  0.73909769  1  0  -0.635444  0  1.907936  0  0  -0.583447  0  2.129511  0  0  -0.610219  0  2.120195  0  -1.153368  0  -0.34438  -0.564996  0  2.135592  0
O  O105  1  0.36439285  0.82476083  0.26090262  1  0  -0.635439  0  1.907971  0  0  -0.583443  0  2.129547  0  0  -0.610216  0  2.120231  0  -1.153376  0  -0.344377  -0.564993  0  2.135628  0
O  O106  1  0.80010746  0.18255849  0.63269399  1  0  -0.650433  0  1.981621  0  0  -0.585549  0  2.223549  0  0  -0.614445  0  2.213783  0  -1.162521  0  -0.338943  -0.565414  0  2.229555  0
O  O107  1  0.19989351  0.81744096  0.36730699  1  0  -0.650467  0  1.981537  0  0  -0.585578  0  2.223442  0  0  -0.614476  0  2.213677  0  -1.162535  0  -0.338956  -0.565444  0  2.229448  0
O  O108  1  0.29175213  0.42726977  0.98345234  1  0  -0.286401  0  2.311589  0  0  -0.217161  0  2.543824  0  0  -0.235243  0  2.544748  0  -1.089667  0  -0.183138  -0.204192  0  2.542473  0
O  O109  1  0.70824813  0.57273066  0.01654747  1  0  -0.286358  0  2.31164  0  0  -0.217123  0  2.543865  0  0  -0.235208  0  2.544793  0  -1.089654  0  -0.183143  -0.204155  0  2.542513  0
O  O110  1  0.39149015  0.94381349  0.55859557  1  0  -0.682834  0  2.112788  0  0  -0.600723  0  2.382497  0  0  -0.633463  0  2.368685  0  -1.182432  0  -0.345317  -0.577185  0  2.390577  0
O  O111  1  0.60851121  0.05618694  0.44140492  1  0  -0.682806  0  2.112732  0  0  -0.600714  0  2.38248  0  0  -0.633439  0  2.368637  0  -1.182416  0  -0.345298  -0.577175  0  2.390558  0
O  O112  1  0.05377493  0.88908839  0.91531228  1  0  -0.285891  0  2.314214  0  0  -0.217184  0  2.548142  0  0  -0.235441  0  2.549423  0  -1.077601  0  -0.181357  -0.20427  0  2.546719  0
O  O113  1  0.94622383  0.11091107  0.08468800  1  0  -0.28588  0  2.314199  0  0  -0.217133  0  2.548168  0  0  -0.23539  0  2.549451  0  -1.077612  0  -0.181336  -0.20422  0  2.546742  0
O  O114  1  0.32321532  0.73078471  0.54721029  1  0  -0.621035  0  1.959386  0  0  -0.565238  0  2.195966  0  0  -0.590705  0  2.187534  0  -1.17833  0  -0.319792  -0.547003  0  2.200893  0
O  O115  1  0.67678534  0.26921669  0.45279033  1  0  -0.621086  0  1.959389  0  0  -0.565303  0  2.195987  0  0  -0.59077  0  2.187552  0  -1.178346  0  -0.319836  -0.547068  0  2.200913  0
