# generated using pymatgen
data_Pr2H14C14N4O15
_symmetry_space_group_name_H-M   'P 1'
_cell_length_a   10.30593121
_cell_length_b   11.55491198
_cell_length_c   22.24446094
_cell_angle_alpha   89.99975405
_cell_angle_beta   98.05543498
_cell_angle_gamma   90.00024456
_symmetry_Int_Tables_number   1
_chemical_formula_structural   Pr2H14C14N4O15
_chemical_formula_sum   'Pr8 H56 C56 N16 O60'
_cell_volume   2622.82479736
_cell_formula_units_Z   4
loop_
 _symmetry_equiv_pos_site_id
 _symmetry_equiv_pos_as_xyz
  1  'x, y, z'
loop_
 _atom_site_type_symbol
 _atom_site_label
 _atom_site_symmetry_multiplicity
 _atom_site_fract_x
 _atom_site_fract_y
 _atom_site_fract_z
 _atom_site_occupancy
 _atom_site_pbe_bader_charge
 _atom_site_pbe_bader_spin_density
 _atom_site_pbe_cm5_charge
 _atom_site_pbe_ddec_charge
 _atom_site_pbe_ddec_spin_density
 _atom_site_pbe_ddec_sum_bond_order
 _atom_site_pbe_magmom
Pr  Pr0  1  0.26552080  0.07018597  0.06425251  1  2.300802  0  1.520647  2.227658  0  2.080326  0
Pr  Pr1  1  0.88912828  0.30901201  0.27045502  1  2.246247  0  1.481422  1.978793  0  2.198147  0
Pr  Pr2  1  0.23448182  0.57018298  0.43574811  1  2.30078  0  1.520653  2.22771  0  2.080282  0
Pr  Pr3  1  0.61088244  0.80901199  0.22954569  1  2.246134  0  1.481365  1.9788  0  2.198232  0
Pr  Pr4  1  0.73447797  0.92981592  0.93574864  1  2.30081  0  1.520688  2.227673  0  2.080239  0
Pr  Pr5  1  0.11087832  0.69099162  0.72954618  1  2.246273  0  1.481364  1.978826  0  2.198255  0
Pr  Pr6  1  0.76551789  0.42981458  0.56425040  1  2.300785  0  1.520675  2.227695  0  2.080266  0
Pr  Pr7  1  0.38912121  0.19098990  0.77045487  1  2.246239  0  1.481414  1.978815  0  2.1982  0
H  H8  1  0.22086690  0.23127779  0.42143542  1  0.118814  0  0.11139  0.173064  0  0.995285  0
H  H9  1  0.07634743  0.14596406  0.41058480  1  0.127224  0  0.116877  0.177117  0  0.971664  0
H  H10  1  0.23208799  0.07801914  0.43096320  1  0.049418  0  0.10006  0.142993  0  0.991892  0
H  H11  1  0.87103305  0.17770921  0.72526064  1  0.038553  0  0.097106  0.142683  0  1.0109  0
H  H12  1  0.98024196  0.06469347  0.70991114  1  0.081211  0  0.107575  0.165882  0  0.990319  0
H  H13  1  0.02830053  0.21038470  0.70365405  1  0.116924  0  0.111325  0.16649  0  1.017647  0
H  H14  1  0.34684648  0.01037405  0.34053182  1  0.498719  0  0.346506  0.313101  0  0.883471  0
H  H15  1  0.86964333  0.11674591  0.84008233  1  0.534292  0  0.326276  0.292642  0  0.955288  0
H  H16  1  0.46508452  0.86822187  0.06059537  1  0.650171  0  0.303867  0.397279  0  0.938606  0
H  H17  1  0.42791199  0.90311909  0.99172250  1  0.650703  0  0.311382  0.404397  0  0.912496  0
H  H18  1  0.53130447  0.20424967  0.09891483  1  0.604472  0  0.338883  0.429277  0  0.851139  0
H  H19  1  0.55858956  0.07972074  0.12778955  1  0.649182  0  0.298891  0.401053  0  0.936487  0
H  H20  1  0.25111261  0.32226506  0.02226848  1  0.610245  0  0.33099  0.413623  0  0.87262  0
H  H21  1  0.21273731  0.29829829  0.08718995  1  0.631616  0  0.304294  0.395151  0  0.929978  0
H  H22  1  0.27912951  0.73127276  0.07856222  1  0.11868  0  0.111397  0.173019  0  0.995317  0
H  H23  1  0.42364762  0.64595862  0.08941159  1  0.127089  0  0.116873  0.177078  0  0.971672  0
H  H24  1  0.26790490  0.57801328  0.06904039  1  0.049386  0  0.100018  0.142966  0  0.991899  0
H  H25  1  0.62896471  0.67771494  0.77474043  1  0.038599  0  0.097071  0.142605  0  1.010887  0
H  H26  1  0.51975436  0.56469867  0.79009189  1  0.081256  0  0.107541  0.165825  0  0.990306  0
H  H27  1  0.47169712  0.71039157  0.79634728  1  0.116921  0  0.111315  0.166497  0  1.017584  0
H  H28  1  0.15316083  0.51037046  0.15947282  1  0.498854  0  0.346525  0.313076  0  0.883512  0
H  H29  1  0.63035418  0.61675520  0.65991976  1  0.534364  0  0.326241  0.292628  0  0.955216  0
H  H30  1  0.03491153  0.36821826  0.43940598  1  0.650146  0  0.30383  0.397253  0  0.938646  0
H  H31  1  0.07208942  0.40311835  0.50827865  1  0.650712  0  0.311319  0.404342  0  0.912579  0
H  H32  1  0.96869304  0.70424786  0.40108259  1  0.604444  0  0.338911  0.429315  0  0.851087  0
H  H33  1  0.94141724  0.57971560  0.37221007  1  0.649657  0  0.298922  0.401061  0  0.936466  0
H  H34  1  0.24889986  0.82226264  0.47772995  1  0.610262  0  0.330976  0.413644  0  0.872587  0
H  H35  1  0.28727309  0.79829050  0.41280796  1  0.631125  0  0.304275  0.395154  0  0.929984  0
H  H36  1  0.77912695  0.76872410  0.57856453  1  0.11879  0  0.111385  0.173004  0  0.995321  0
H  H37  1  0.92364640  0.85404042  0.58941380  1  0.126959  0  0.116887  0.177086  0  0.97169  0
H  H38  1  0.76790491  0.92198361  0.56903938  1  0.049422  0  0.100028  0.142948  0  0.991911  0
H  H39  1  0.12895789  0.82228317  0.27474138  1  0.038718  0  0.097111  0.142668  0  1.010904  0
H  H40  1  0.01975097  0.93529976  0.29009370  1  0.081339  0  0.10755  0.16584  0  0.990346  0
H  H41  1  0.97168940  0.78960680  0.29634611  1  0.116894  0  0.111329  0.166475  0  1.017626  0
H  H42  1  0.65315426  0.98962871  0.65947081  1  0.498777  0  0.346509  0.313094  0  0.883486  0
H  H43  1  0.13035154  0.88325166  0.15992038  1  0.534406  0  0.326228  0.29262  0  0.955243  0
H  H44  1  0.53491031  0.13178002  0.93940464  1  0.650143  0  0.303832  0.397232  0  0.938667  0
H  H45  1  0.57208872  0.09688366  0.00827788  1  0.650741  0  0.311392  0.404403  0  0.912506  0
H  H46  1  0.46869031  0.79575395  0.90108068  1  0.604442  0  0.338915  0.429288  0  0.851162  0
H  H47  1  0.44141700  0.92028721  0.87220894  1  0.649635  0  0.298916  0.401018  0  0.936527  0
H  H48  1  0.74889887  0.67773510  0.97773167  1  0.610218  0  0.330958  0.413622  0  0.872614  0
H  H49  1  0.78726731  0.70170966  0.91280977  1  0.631194  0  0.304262  0.395057  0  0.930116  0
H  H50  1  0.72087703  0.26872567  0.92143448  1  0.118772  0  0.111353  0.17299  0  0.995343  0
H  H51  1  0.57635699  0.35403808  0.91058723  1  0.127012  0  0.116916  0.177103  0  0.971691  0
H  H52  1  0.73209775  0.42198255  0.93095876  1  0.049411  0  0.100086  0.143024  0  0.991941  0
H  H53  1  0.37103992  0.32228089  0.22526019  1  0.038679  0  0.097099  0.142642  0  1.010903  0
H  H54  1  0.48024735  0.43530063  0.20990990  1  0.081301  0  0.107536  0.165815  0  0.990289  0
H  H55  1  0.52830651  0.28960773  0.20365193  1  0.116863  0  0.111304  0.166477  0  1.017605  0
H  H56  1  0.84684870  0.48962711  0.84052765  1  0.498771  0  0.346492  0.313044  0  0.883537  0
H  H57  1  0.36965044  0.38323544  0.34008041  1  0.534448  0  0.326219  0.292716  0  0.955233  0
H  H58  1  0.96508527  0.63177757  0.56059505  1  0.650171  0  0.303846  0.397299  0  0.938582  0
H  H59  1  0.92791619  0.59687921  0.49172204  1  0.650951  0  0.311376  0.404372  0  0.912545  0
H  H60  1  0.03130078  0.29575230  0.59891511  1  0.604507  0  0.33891  0.429321  0  0.851096  0
H  H61  1  0.05858347  0.42028196  0.62778985  1  0.649658  0  0.298905  0.401042  0  0.936513  0
H  H62  1  0.75110576  0.17773406  0.52227118  1  0.610293  0  0.331001  0.413688  0  0.872531  0
H  H63  1  0.71273743  0.20170447  0.58719393  1  0.631529  0  0.304296  0.395116  0  0.930015  0
C  C64  1  0.09538839  0.19204936  0.18053913  1  1.619952  0  0.229509  0.626644  0  4.226339  0
C  C65  1  0.15920765  0.14652833  0.23986718  1  0.472309  0  0.086363  -0.003297  0  4.030455  0
C  C66  1  0.26102641  0.06797832  0.25436047  1  0.369941  0  0.083082  -0.013869  0  3.9442  0
C  C67  1  0.33830770  0.98855939  0.22110918  1  1.613178  0  0.226087  0.613104  0  4.259634  0
C  C68  1  0.19033483  0.13347638  0.33882488  1  1.004507  0  0.241712  0.440808  0  3.949739  0
C  C69  1  0.17998048  0.14777218  0.40419941  1  -0.071822  0  -0.221467  -0.477704  0  3.897585  0
C  C70  1  0.30895383  0.15697418  0.91282713  1  1.586706  0  0.241669  0.635394  0  4.174275  0
C  C71  1  0.17591329  0.15648078  0.87744949  1  0.488162  0  0.091572  0.006495  0  4.000531  0
C  C72  1  0.05290475  0.13824926  0.89522372  1  0.388825  0  0.094852  -0.007716  0  3.910389  0
C  C73  1  0.99936017  0.12262543  0.95314857  1  1.644361  0  0.241615  0.647508  0  4.226476  0
C  C74  1  0.03531186  0.15213811  0.79418276  1  1.028507  0  0.240758  0.439372  0  3.925567  0
C  C75  1  0.97420147  0.15148071  0.72966088  1  -0.061625  0  -0.228597  -0.480126  0  3.900544  0
C  C76  1  0.76885908  0.04453546  0.28270252  1  1.619815  0  0.211996  0.49627  0  4.267154  0
C  C77  1  0.70071262  0.08857141  0.21997456  1  1.575127  0  0.218388  0.483239  0  4.207782  0
C  C78  1  0.40461670  0.69205317  0.31946138  1  1.620381  0  0.229529  0.626851  0  4.226407  0
C  C79  1  0.34079527  0.64653586  0.26013194  1  0.471614  0  0.086408  -0.003223  0  4.030533  0
C  C80  1  0.23898011  0.56798558  0.24564040  1  0.370138  0  0.083034  -0.013974  0  3.944286  0
C  C81  1  0.16169569  0.48856020  0.27889058  1  1.613211  0  0.22609  0.61311  0  4.259568  0
C  C82  1  0.30966804  0.63347856  0.16117518  1  1.004304  0  0.241707  0.44071  0  3.949576  0
C  C83  1  0.32001558  0.64777061  0.09579884  1  -0.071568  0  -0.22142  -0.477553  0  3.897493  0
C  C84  1  0.19104359  0.65696787  0.58717340  1  1.586877  0  0.241712  0.63549  0  4.174303  0
C  C85  1  0.32408219  0.65647987  0.62255227  1  0.487929  0  0.091581  0.006543  0  4.000732  0
C  C86  1  0.44709065  0.63825243  0.60477853  1  0.388914  0  0.094896  -0.007703  0  3.910622  0
C  C87  1  0.50063833  0.62262652  0.54685222  1  1.644572  0  0.241491  0.647327  0  4.226871  0
C  C88  1  0.46468457  0.65214311  0.70581863  1  1.029026  0  0.240697  0.439364  0  3.925709  0
C  C89  1  0.52579520  0.65148955  0.77034017  1  -0.061698  0  -0.228488  -0.479991  0  3.900402  0
C  C90  1  0.73115050  0.54452043  0.21729646  1  1.620011  0  0.211986  0.496312  0  4.267205  0
C  C91  1  0.79929422  0.58855352  0.28002550  1  1.573815  0  0.218272  0.482952  0  4.208254  0
C  C92  1  0.90460744  0.80795254  0.81946184  1  1.619432  0  0.22955  0.626741  0  4.226217  0
C  C93  1  0.84078915  0.85346923  0.76013385  1  0.471881  0  0.086394  -0.003313  0  4.030371  0
C  C94  1  0.73897136  0.93201838  0.74563973  1  0.370002  0  0.083047  -0.013811  0  3.944214  0
C  C95  1  0.66169202  0.01144596  0.77888979  1  1.61325  0  0.226031  0.613086  0  4.259552  0
C  C96  1  0.80966294  0.86652205  0.66117577  1  1.004585  0  0.241713  0.440699  0  3.949745  0
C  C97  1  0.82001533  0.85223058  0.59580066  1  -0.07162  0  -0.221463  -0.477542  0  3.89759  0
C  C98  1  0.69104197  0.84303117  0.08717249  1  1.586772  0  0.241609  0.635344  0  4.174477  0
C  C99  1  0.82407961  0.84352198  0.12255220  1  0.487965  0  0.091599  0.006623  0  4.000795  0
C  C100  1  0.94709011  0.86175436  0.10477899  1  0.388548  0  0.094834  -0.007829  0  3.910858  0
C  C101  1  0.00063467  0.87737732  0.04685144  1  1.644729  0  0.241451  0.647326  0  4.227019  0
C  C102  1  0.96468299  0.84786118  0.20581861  1  1.028964  0  0.240735  0.439408  0  3.925583  0
C  C103  1  0.02579144  0.84851166  0.27034170  1  -0.061955  0  -0.228536  -0.480015  0  3.900444  0
C  C104  1  0.23114946  0.95548374  0.71729700  1  1.620025  0  0.212109  0.496611  0  4.266851  0
C  C105  1  0.29929494  0.91144952  0.78002534  1  1.573817  0  0.218326  0.482893  0  4.208408  0
C  C106  1  0.59538596  0.30794958  0.68053822  1  1.620034  0  0.229482  0.626646  0  4.226385  0
C  C107  1  0.65920541  0.35347295  0.73986573  1  0.472486  0  0.086405  -0.003196  0  4.03046  0
C  C108  1  0.76102449  0.43202063  0.75435797  1  0.37037  0  0.083058  -0.013928  0  3.944302  0
C  C109  1  0.83830498  0.51144342  0.72110665  1  1.612278  0  0.226054  0.613084  0  4.259293  0
C  C110  1  0.69033461  0.36652419  0.83882352  1  1.004563  0  0.241664  0.440633  0  3.94967  0
C  C111  1  0.67998902  0.35222955  0.90419954  1  -0.071533  0  -0.221461  -0.477544  0  3.897606  0
C  C112  1  0.80895811  0.34302017  0.41282749  1  1.587093  0  0.241641  0.635328  0  4.174425  0
C  C113  1  0.67591852  0.34350731  0.37744766  1  0.487892  0  0.091665  0.006677  0  4.000704  0
C  C114  1  0.55291006  0.36173561  0.39522185  1  0.388999  0  0.094856  -0.00771  0  3.910419  0
C  C115  1  0.49936138  0.37736844  0.45314675  1  1.644827  0  0.241598  0.647538  0  4.226759  0
C  C116  1  0.53532005  0.34784926  0.29418109  1  1.02873  0  0.24076  0.439491  0  3.925939  0
C  C117  1  0.47420845  0.34850801  0.22965994  1  -0.061783  0  -0.228478  -0.479962  0  3.900404  0
C  C118  1  0.26885410  0.45546675  0.78270192  1  1.619615  0  0.211989  0.496329  0  4.266849  0
C  C119  1  0.20070648  0.41143193  0.71997443  1  1.575035  0  0.21833  0.483053  0  4.208316  0
N  N120  1  0.11651616  0.18557030  0.29239282  1  -1.232735  0  -0.379586  -0.464322  0  3.360688  0
N  N121  1  0.27848772  0.06289973  0.31698888  1  -1.30595  0  -0.369858  -0.288742  0  3.615682  0
N  N122  1  0.16250115  0.16570393  0.81506799  1  -1.254017  0  -0.389007  -0.465177  0  3.384576  0
N  N123  1  0.96746518  0.13558310  0.84170513  1  -1.283813  0  -0.363468  -0.275113  0  3.603576  0
N  N124  1  0.38348888  0.68557757  0.20760635  1  -1.232284  0  -0.379561  -0.464237  0  3.360675  0
N  N125  1  0.22151586  0.56290312  0.18301362  1  -1.306048  0  -0.369875  -0.28867  0  3.61584  0
N  N126  1  0.33749533  0.66570602  0.68493292  1  -1.254176  0  -0.38897  -0.465174  0  3.384645  0
N  N127  1  0.53253045  0.63558944  0.65829725  1  -1.284331  0  -0.363481  -0.275134  0  3.603618  0
N  N128  1  0.88348258  0.81442726  0.70760699  1  -1.232628  0  -0.379548  -0.464209  0  3.360523  0
N  N129  1  0.72151006  0.93709870  0.68301266  1  -1.30604  0  -0.369854  -0.288734  0  3.61576  0
N  N130  1  0.83749172  0.83429623  0.18493190  1  -1.254116  0  -0.389003  -0.465228  0  3.384624  0
N  N131  1  0.03252871  0.86441879  0.15829797  1  -1.284085  0  -0.36347  -0.275116  0  3.603776  0
N  N132  1  0.61651279  0.31443125  0.79239229  1  -1.233174  0  -0.379571  -0.464276  0  3.360598  0
N  N133  1  0.77848876  0.43710050  0.81698611  1  -1.305928  0  -0.369802  -0.288637  0  3.61573  0
N  N134  1  0.66250929  0.33428722  0.31506725  1  -1.253991  0  -0.389052  -0.465346  0  3.384841  0
N  N135  1  0.46747221  0.36440120  0.34170235  1  -1.284323  0  -0.363496  -0.275302  0  3.603864  0
O  O136  1  0.98394345  0.23703279  0.17902100  1  -1.164419  0  -0.357973  -0.576861  0  2.192917  0
O  O137  1  0.15960632  0.18617771  0.13515050  1  -1.225963  0  -0.412833  -0.710607  0  2.328842  0
O  O138  1  0.30770737  0.97411117  0.16377874  1  -1.218574  0  -0.401027  -0.714041  0  2.29503  0
O  O139  1  0.42848371  0.93500298  0.25424254  1  -1.179704  0  -0.374428  -0.62442  0  2.291383  0
O  O140  1  0.40622983  0.17962286  0.88487775  1  -1.181232  0  -0.355107  -0.59971  0  2.241673  0
O  O141  1  0.32370425  0.13178901  0.96886922  1  -1.215258  0  -0.419372  -0.69492  0  2.335545  0
O  O142  1  0.06939349  0.14265806  0.00334790  1  -1.212232  0  -0.40455  -0.682532  0  2.301252  0
O  O143  1  0.87947449  0.09138224  0.94748192  1  -1.207167  0  -0.418  -0.683264  0  2.287974  0
O  O144  1  0.85114936  0.11265717  0.31153887  1  -1.186744  0  -0.379241  -0.604586  0  2.298913  0
O  O145  1  0.73780550  0.94507096  0.29954139  1  -1.180986  0  -0.383821  -0.579709  0  2.243419  0
O  O146  1  0.72087376  0.19140137  0.20496439  1  -1.175318  0  -0.358908  -0.566673  0  2.310097  0
O  O147  1  0.62722106  0.01682097  0.18746784  1  -1.190416  0  -0.342001  -0.58195  0  2.373964  0
O  O148  1  0.39457200  0.90391318  0.03101511  1  -1.296428  0  -0.639192  -0.85302  0  2.042155  0
O  O149  1  0.50764981  0.12320187  0.09183363  1  -1.24788  0  -0.612514  -0.85611  0  2.026774  0
O  O150  1  0.28753230  0.30287667  0.06380268  1  -1.227561  0  -0.604092  -0.805559  0  1.93673  0
O  O151  1  0.51606794  0.73703685  0.32097947  1  -1.164511  0  -0.358021  -0.577024  0  2.193103  0
O  O152  1  0.34040264  0.68617830  0.36484846  1  -1.226034  0  -0.412879  -0.71078  0  2.328999  0
O  O153  1  0.19229010  0.47411335  0.33622202  1  -1.218611  0  -0.401003  -0.714111  0  2.295071  0
O  O154  1  0.07153216  0.43499767  0.24575541  1  -1.179804  0  -0.374484  -0.624428  0  2.291522  0
O  O155  1  0.09376475  0.67962287  0.61512346  1  -1.18122  0  -0.355137  -0.59979  0  2.241549  0
O  O156  1  0.17629015  0.63177446  0.53113388  1  -1.215356  0  -0.419408  -0.69496  0  2.335738  0
O  O157  1  0.43060065  0.64266050  0.49665564  1  -1.212257  0  -0.404469  -0.682448  0  2.301275  0
O  O158  1  0.62051997  0.59138547  0.55251958  1  -1.207217  0  -0.417944  -0.683173  0  2.2882  0
O  O159  1  0.64885267  0.61265419  0.18845949  1  -1.186505  0  -0.379324  -0.604721  0  2.298376  0
O  O160  1  0.76219793  0.44506588  0.20045677  1  -1.18098  0  -0.383697  -0.579539  0  2.243843  0
O  O161  1  0.77912569  0.69139107  0.29503678  1  -1.174632  0  -0.358935  -0.566683  0  2.309784  0
O  O162  1  0.87278838  0.51681433  0.31252939  1  -1.190401  0  -0.341885  -0.581708  0  2.374464  0
O  O163  1  0.10542516  0.40391305  0.46898489  1  -1.296429  0  -0.63908  -0.85294  0  2.042217  0
O  O164  1  0.99235326  0.62320009  0.40816612  1  -1.248279  0  -0.612567  -0.856174  0  2.026754  0
O  O165  1  0.21247813  0.80286840  0.43619657  1  -1.227071  0  -0.604057  -0.805562  0  1.936638  0
O  O166  1  0.01606020  0.76296997  0.82098001  1  -1.164336  0  -0.35803  -0.576983  0  2.192729  0
O  O167  1  0.84039438  0.81382592  0.86484898  1  -1.225481  0  -0.412854  -0.710635  0  2.32898  0
O  O168  1  0.69229137  0.02589418  0.83622061  1  -1.218588  0  -0.400926  -0.714013  0  2.294813  0
O  O169  1  0.57152773  0.06500843  0.74575491  1  -1.179555  0  -0.374483  -0.624492  0  2.291554  0
O  O170  1  0.59376405  0.82037903  0.11512445  1  -1.181212  0  -0.355126  -0.599768  0  2.241543  0
O  O171  1  0.67628865  0.86821980  0.03113337  1  -1.215262  0  -0.419317  -0.694802  0  2.335728  0
O  O172  1  0.93060139  0.85734123  0.99665617  1  -1.212241  0  -0.404447  -0.682417  0  2.301429  0
O  O173  1  0.12051839  0.90862052  0.05251887  1  -1.207275  0  -0.417925  -0.683172  0  2.288138  0
O  O174  1  0.14884451  0.88734991  0.68846243  1  -1.186447  0  -0.379428  -0.604842  0  2.298105  0
O  O175  1  0.26219810  0.05493439  0.70045512  1  -1.181051  0  -0.383732  -0.579682  0  2.243819  0
O  O176  1  0.27912598  0.80861091  0.79503682  1  -1.17459  0  -0.359009  -0.566746  0  2.309811  0
O  O177  1  0.37278842  0.98318785  0.81252904  1  -1.190492  0  -0.341889  -0.581651  0  2.374562  0
O  O178  1  0.60542380  0.09608612  0.96898451  1  -1.296435  0  -0.639165  -0.852985  0  2.042184  0
O  O179  1  0.49235185  0.87680002  0.90816456  1  -1.248199  0  -0.612565  -0.856121  0  2.026874  0
O  O180  1  0.71247429  0.69712782  0.93619852  1  -1.227107  0  -0.604016  -0.805457  0  1.936774  0
O  O181  1  0.48393962  0.26296764  0.67902044  1  -1.164503  0  -0.357978  -0.576904  0  2.192998  0
O  O182  1  0.65960393  0.31382012  0.63515093  1  -1.226016  0  -0.412833  -0.710636  0  2.328903  0
O  O183  1  0.80770863  0.52589114  0.66377644  1  -1.218223  0  -0.400972  -0.714017  0  2.294753  0
O  O184  1  0.92847829  0.56500336  0.75424108  1  -1.179444  0  -0.374486  -0.624455  0  2.291379  0
O  O185  1  0.90623696  0.32037556  0.38487878  1  -1.181269  0  -0.355086  -0.599677  0  2.241592  0
O  O186  1  0.82370373  0.36820666  0.46886832  1  -1.215532  0  -0.419399  -0.694896  0  2.335689  0
O  O187  1  0.56939126  0.35734312  0.50334554  1  -1.212155  0  -0.404577  -0.682578  0  2.301397  0
O  O188  1  0.37947576  0.40861383  0.44747374  1  -1.207496  0  -0.417951  -0.683283  0  2.288217  0
O  O189  1  0.35113921  0.38734424  0.81153944  1  -1.186636  0  -0.379324  -0.604694  0  2.298756  0
O  O190  1  0.23780274  0.55493514  0.79954045  1  -1.180964  0  -0.383803  -0.5797  0  2.2432  0
O  O191  1  0.22087012  0.30860390  0.70496375  1  -1.175193  0  -0.358892  -0.566609  0  2.310235  0
O  O192  1  0.12721229  0.48318236  0.68746783  1  -1.190516  0  -0.341898  -0.581797  0  2.374143  0
O  O193  1  0.89457260  0.59608625  0.53101441  1  -1.296687  0  -0.639154  -0.852983  0  2.042092  0
O  O194  1  0.00764549  0.37680094  0.59183368  1  -1.248366  0  -0.612563  -0.856173  0  2.026787  0
O  O195  1  0.78752944  0.19712657  0.56380423  1  -1.227516  0  -0.604113  -0.805592  0  1.936683  0
