# generated using pymatgen
data_CdH16C24I2(N4O)2
_symmetry_space_group_name_H-M   'P 1'
_cell_length_a   4.14675197
_cell_length_b   13.49065002
_cell_length_c   22.42655081
_cell_angle_alpha   90.00053108
_cell_angle_beta   88.69558960
_cell_angle_gamma   89.99986511
_symmetry_Int_Tables_number   1
_chemical_formula_structural   CdH16C24I2(N4O)2
_chemical_formula_sum   'Cd2 H32 C48 I4 N16 O4'
_cell_volume   1254.26950232
_cell_formula_units_Z   2
loop_
 _symmetry_equiv_pos_site_id
 _symmetry_equiv_pos_as_xyz
  1  'x, y, z'
loop_
 _atom_site_type_symbol
 _atom_site_label
 _atom_site_symmetry_multiplicity
 _atom_site_fract_x
 _atom_site_fract_y
 _atom_site_fract_z
 _atom_site_occupancy
 _atom_site_hle17_bader_spin_density
 _atom_site_hle17_ddec_charge
 _atom_site_hle17_ddec_spin_density
 _atom_site_hle17_ddec_sum_bond_order
 _atom_site_hle17_magmom
 _atom_site_hse06_10hf_bader_spin_density
 _atom_site_hse06_10hf_ddec_charge
 _atom_site_hse06_10hf_ddec_spin_density
 _atom_site_hse06_10hf_ddec_sum_bond_order
 _atom_site_hse06_10hf_magmom
 _atom_site_hse06_bader_spin_density
 _atom_site_hse06_ddec_charge
 _atom_site_hse06_ddec_spin_density
 _atom_site_hse06_ddec_sum_bond_order
 _atom_site_hse06_magmom
 _atom_site_pbe_bader_spin_density
 _atom_site_pbe_cm5_charge
 _atom_site_pbe_ddec_charge
 _atom_site_pbe_ddec_spin_density
 _atom_site_pbe_ddec_sum_bond_order
 _atom_site_pbe_magmom
Cd  Cd0  1  0.99999330  0.49999936  0.50000173  1  0  0.742162  0  2.017636  0  0  0.587727  0  2.43702  0  0  0.638314  0  2.406127  0  0  0.483717  0.552252  0  2.458624  0
Cd  Cd1  1  0.00001447  0.00000148  0.00000001  1  0  0.74209  0  2.017654  0  0  0.587644  0  2.437037  0  0  0.638229  0  2.406147  0  0  0.483676  0.552158  0  2.458655  0
H  H2  1  0.76082425  0.64177316  0.39684290  1  0  0.058119  0  1.015964  0  0  0.065257  0  1.087991  0  0  0.067995  0  1.085194  0  0  0.08854  0.063258  0  1.090091  0
H  H3  1  0.76085284  0.85822691  0.89684055  1  0  0.05817  0  1.016137  0  0  0.065332  0  1.088169  0  0  0.06807  0  1.085366  0  0  0.088601  0.063347  0  1.09023  0
H  H4  1  0.23917704  0.35822079  0.60315905  1  0  0.058097  0  1.016001  0  0  0.065293  0  1.087965  0  0  0.068032  0  1.085166  0  0  0.088554  0.063292  0  1.09007  0
H  H5  1  0.23919488  0.14177741  0.10315696  1  0  0.058101  0  1.015962  0  0  0.065263  0  1.087971  0  0  0.067998  0  1.085181  0  0  0.088528  0.063264  0  1.090071  0
H  H6  1  0.78527325  0.81401212  0.35592323  1  0  0.116135  0  0.970025  0  0  0.114116  0  1.050153  0  0  0.118916  0  1.046489  0  0  0.105651  0.11066  0  1.052879  0
H  H7  1  0.78528130  0.68599249  0.85592080  1  0  0.116151  0  0.970267  0  0  0.114153  0  1.05034  0  0  0.11895  0  1.046677  0  0  0.10569  0.110695  0  1.053081  0
H  H8  1  0.21472376  0.18598256  0.64407470  1  0  0.11618  0  0.970273  0  0  0.11416  0  1.050364  0  0  0.118956  0  1.046705  0  0  0.105714  0.110707  0  1.053082  0
H  H9  1  0.21474972  0.31401480  0.14407537  1  0  0.116174  0  0.970293  0  0  0.114113  0  1.050453  0  0  0.118923  0  1.046787  0  0  0.105677  0.110657  0  1.053174  0
H  H10  1  0.36449097  0.89158571  0.50788497  1  0  0.118278  0  0.985558  0  0  0.117142  0  1.063431  0  0  0.121777  0  1.060318  0  0  0.108087  0.113791  0  1.065813  0
H  H11  1  0.36447554  0.60841463  0.00788089  1  0  0.118325  0  0.985613  0  0  0.117212  0  1.063474  0  0  0.121844  0  1.060363  0  0  0.108113  0.113866  0  1.065858  0
H  H12  1  0.63549814  0.10841713  0.49211786  1  0  0.11827  0  0.985772  0  0  0.117152  0  1.063628  0  0  0.121785  0  1.060518  0  0  0.108122  0.113802  0  1.066008  0
H  H13  1  0.63551418  0.39158599  0.99211748  1  0  0.118242  0  0.985624  0  0  0.117143  0  1.063479  0  0  0.121781  0  1.060365  0  0  0.108077  0.113797  0  1.065862  0
H  H14  1  0.29430097  0.71728381  0.54356882  1  0  0.076125  0  0.976048  0  0  0.081278  0  1.048715  0  0  0.084289  0  1.045645  0  0  0.096879  0.079039  0  1.051009  0
H  H15  1  0.29433512  0.78271565  0.04356396  1  0  0.076284  0  0.976185  0  0  0.081398  0  1.048868  0  0  0.084414  0  1.045785  0  0  0.096911  0.079162  0  1.051162  0
H  H16  1  0.70567609  0.28271681  0.45643401  1  0  0.07619  0  0.976299  0  0  0.081389  0  1.048902  0  0  0.084396  0  1.04584  0  0  0.09693  0.07921  0  1.051141  0
H  H17  1  0.70567624  0.21728200  0.95643487  1  0  0.076063  0  0.976091  0  0  0.081234  0  1.048724  0  0  0.084242  0  1.04566  0  0  0.096878  0.079049  0  1.050965  0
H  H18  1  0.48076272  0.14595413  0.18003116  1  0  0.060345  0  0.979146  0  0  0.068391  0  1.046689  0  0  0.070781  0  1.044895  0  0  0.098065  0.066653  0  1.048006  0
H  H19  1  0.48076909  0.35403913  0.68003279  1  0  0.060322  0  0.97901  0  0  0.068352  0  1.046587  0  0  0.07075  0  1.044771  0  0  0.098099  0.066614  0  1.047901  0
H  H20  1  0.51921469  0.85405538  0.81996899  1  0  0.060289  0  0.979087  0  0  0.068346  0  1.046627  0  0  0.070725  0  1.044859  0  0  0.098053  0.066607  0  1.047946  0
H  H21  1  0.51925662  0.64595630  0.31996693  1  0  0.060369  0  0.979089  0  0  0.068419  0  1.046639  0  0  0.070804  0  1.044852  0  0  0.098105  0.066681  0  1.047951  0
H  H22  1  0.71326710  0.03509042  0.25539073  1  0  0.111223  0  0.943616  0  0  0.120218  0  1.006119  0  0  0.124167  0  1.003759  0  0  0.107177  0.117367  0  1.007945  0
H  H23  1  0.71326571  0.46490529  0.75539075  1  0  0.111233  0  0.943529  0  0  0.120182  0  1.006078  0  0  0.124146  0  1.003705  0  0  0.10717  0.117331  0  1.007901  0
H  H24  1  0.28669368  0.96491316  0.74460763  1  0  0.111214  0  0.943676  0  0  0.120216  0  1.006165  0  0  0.124172  0  1.003797  0  0  0.10716  0.117367  0  1.007989  0
H  H25  1  0.28674312  0.53509088  0.24460897  1  0  0.111203  0  0.943622  0  0  0.12016  0  1.006143  0  0  0.124124  0  1.00377  0  0  0.107182  0.117307  0  1.007966  0
H  H26  1  0.06260376  0.29723293  0.34525240  1  0  0.111454  0  0.966317  0  0  0.11633  0  1.037358  0  0  0.120278  0  1.035056  0  0  0.097378  0.113387  0  1.039332  0
H  H27  1  0.06262343  0.20276468  0.84525229  1  0  0.111452  0  0.966212  0  0  0.116331  0  1.037271  0  0  0.120278  0  1.034965  0  0  0.097391  0.113387  0  1.039251  0
H  H28  1  0.93739271  0.70276398  0.65474955  1  0  0.111433  0  0.966374  0  0  0.116349  0  1.037389  0  0  0.120296  0  1.035084  0  0  0.097403  0.113406  0  1.039367  0
H  H29  1  0.93737780  0.79723593  0.15475010  1  0  0.111479  0  0.966211  0  0  0.116378  0  1.037242  0  0  0.120324  0  1.034938  0  0  0.097424  0.113434  0  1.03922  0
H  H30  1  0.80633508  0.39762674  0.26617853  1  0  0.06737  0  0.933388  0  0  0.074873  0  0.997869  0  0  0.077903  0  0.994951  0  0  0.1033  0.07263  0  1.000066  0
H  H31  1  0.80635290  0.10237054  0.76617919  1  0  0.067368  0  0.933339  0  0  0.074898  0  0.997787  0  0  0.077932  0  0.994861  0  0  0.10329  0.072653  0  0.999983  0
H  H32  1  0.19366362  0.60237536  0.73382476  1  0  0.067416  0  0.933377  0  0  0.074922  0  0.997841  0  0  0.077956  0  0.994915  0  0  0.103337  0.072679  0  1.000042  0
H  H33  1  0.19365791  0.89762859  0.23382365  1  0  0.067278  0  0.933358  0  0  0.074863  0  0.997757  0  0  0.077896  0  0.994832  0  0  0.103295  0.072619  0  0.999956  0
C  C34  1  0.88978446  0.70035089  0.41989357  1  0  0.121949  0  3.714839  0  0  0.094127  0  3.961351  0  0  0.099419  0  3.981825  0  0  0.035364  0.090659  0  3.947407  0
C  C35  1  0.88979449  0.79965388  0.91988865  1  0  0.121854  0  3.715194  0  0  0.093943  0  3.961758  0  0  0.099234  0  3.982231  0  0  0.035247  0.090487  0  3.947818  0
C  C36  1  0.11021460  0.29964528  0.58010704  1  0  0.121904  0  3.714829  0  0  0.093999  0  3.961359  0  0  0.099287  0  3.981841  0  0  0.035261  0.090533  0  3.947417  0
C  C37  1  0.11023676  0.20035415  0.08010573  1  0  0.121813  0  3.715014  0  0  0.093932  0  3.961544  0  0  0.099222  0  3.982031  0  0  0.035299  0.090469  0  3.947593  0
C  C38  1  0.90667219  0.79600140  0.39716971  1  0  -0.121457  0  3.679754  0  0  -0.143938  0  3.93242  0  0  -0.149147  0  3.952135  0  0  -0.078488  -0.140526  0  3.919267  0
C  C39  1  0.90666093  0.70400375  0.89716648  1  0  -0.121298  0  3.67955  0  0  -0.143839  0  3.932354  0  0  -0.149036  0  3.952058  0  0  -0.078474  -0.140434  0  3.9192  0
C  C40  1  0.09333139  0.20399403  0.60283313  1  0  -0.121397  0  3.679849  0  0  -0.143842  0  3.932506  0  0  -0.149047  0  3.952225  0  0  -0.078446  -0.140429  0  3.919349  0
C  C41  1  0.09337250  0.29600354  0.10282968  1  0  -0.121398  0  3.679659  0  0  -0.143876  0  3.932317  0  0  -0.149098  0  3.952046  0  0  -0.078472  -0.140459  0  3.919156  0
C  C42  1  0.08183312  0.86677025  0.42872396  1  0  0.030117  0  3.794123  0  0  0.04281  0  4.030146  0  0  0.043541  0  4.050434  0  0  0.011  0.042395  0  4.016373  0
C  C43  1  0.08183908  0.63323679  0.92872167  1  0  0.030059  0  3.793876  0  0  0.042831  0  4.029874  0  0  0.043555  0  4.05016  0  0  0.010939  0.042421  0  4.016105  0
C  C44  1  0.91816853  0.13323259  0.57127531  1  0  0.030099  0  3.794011  0  0  0.042809  0  4.030044  0  0  0.043533  0  4.050339  0  0  0.010939  0.042398  0  4.016264  0
C  C45  1  0.91817035  0.36676975  0.07127359  1  0  0.030156  0  3.794159  0  0  0.042983  0  4.030005  0  0  0.043712  0  4.050302  0  0  0.010997  0.042571  0  4.016233  0
C  C46  1  0.22472755  0.83877492  0.48224294  1  0  -0.114163  0  3.65627  0  0  -0.134377  0  3.903114  0  0  -0.140109  0  3.923153  0  0  -0.074334  -0.130575  0  3.889696  0
C  C47  1  0.22472595  0.66122616  0.98224170  1  0  -0.114261  0  3.656453  0  0  -0.134605  0  3.903379  0  0  -0.140324  0  3.923402  0  0  -0.074424  -0.130815  0  3.889979  0
C  C48  1  0.77526000  0.16122051  0.51775365  1  0  -0.11409  0  3.656132  0  0  -0.13437  0  3.90309  0  0  -0.140073  0  3.923069  0  0  -0.074373  -0.130591  0  3.889733  0
C  C49  1  0.77528294  0.33877446  0.01775758  1  0  -0.114198  0  3.656532  0  0  -0.134583  0  3.903483  0  0  -0.140293  0  3.923469  0  0  -0.074397  -0.130797  0  3.890106  0
C  C50  1  0.18721116  0.74181608  0.50208069  1  0  0.135933  0  3.680176  0  0  0.104973  0  3.932222  0  0  0.111447  0  3.95041  0  0  0.041841  0.100749  0  3.919817  0
C  C51  1  0.18724254  0.75818654  0.00207971  1  0  0.135779  0  3.680253  0  0  0.104937  0  3.932196  0  0  0.111409  0  3.950382  0  0  0.04182  0.100714  0  3.919807  0
C  C52  1  0.81276632  0.25818824  0.49791901  1  0  0.135777  0  3.680127  0  0  0.104786  0  3.932241  0  0  0.111255  0  3.950439  0  0  0.04177  0.100522  0  3.919804  0
C  C53  1  0.81278322  0.24181408  0.99791957  1  0  0.136029  0  3.680044  0  0  0.105124  0  3.932069  0  0  0.111599  0  3.950262  0  0  0.041883  0.100863  0  3.919641  0
C  C54  1  0.11818291  0.96766884  0.40741064  1  0  0.356252  0  3.681559  0  0  0.321913  0  3.962678  0  0  0.338475  0  3.969183  0  0  0.230169  0.310849  0  3.958092  0
C  C55  1  0.11817244  0.53233710  0.90741001  1  0  0.356306  0  3.681285  0  0  0.321911  0  3.96243  0  0  0.338467  0  3.968941  0  0  0.230158  0.310851  0  3.95784  0
C  C56  1  0.88180433  0.03233104  0.59258818  1  0  0.356209  0  3.681644  0  0  0.321794  0  3.962819  0  0  0.338343  0  3.969334  0  0  0.230158  0.310732  0  3.958227  0
C  C57  1  0.88183620  0.46766203  0.09259105  1  0  0.356002  0  3.681468  0  0  0.321664  0  3.962543  0  0  0.338219  0  3.969055  0  0  0.230115  0.310603  0  3.957954  0
C  C58  1  0.04214904  0.09692465  0.35353558  1  0  0.348859  0  3.694214  0  0  0.316745  0  3.974224  0  0  0.332728  0  3.982258  0  0  0.225732  0.306074  0  3.968604  0
C  C59  1  0.04215805  0.40307164  0.85353303  1  0  0.348914  0  3.694295  0  0  0.316816  0  3.974236  0  0  0.332766  0  3.98231  0  0  0.225766  0.30615  0  3.968615  0
C  C60  1  0.95782368  0.90307078  0.64646368  1  0  0.349082  0  3.69433  0  0  0.31698  0  3.974234  0  0  0.332931  0  3.9823  0  0  0.22587  0.306289  0  3.968637  0
C  C61  1  0.95784836  0.59692676  0.14646669  1  0  0.349093  0  3.694519  0  0  0.317111  0  3.97435  0  0  0.333025  0  3.982473  0  0  0.225849  0.306436  0  3.968741  0
C  C62  1  0.60832005  0.17803807  0.21739951  1  0  0.114691  0  3.758386  0  0  0.09448  0  4.014133  0  0  0.098234  0  4.034138  0  0  0.036173  0.092104  0  4.000469  0
C  C63  1  0.60833606  0.32195788  0.71740275  1  0  0.114743  0  3.75847  0  0  0.094559  0  4.014185  0  0  0.098313  0  4.034194  0  0  0.036099  0.092187  0  4.000506  0
C  C64  1  0.39166478  0.82196626  0.78259931  1  0  0.114719  0  3.758354  0  0  0.094509  0  4.014111  0  0  0.098262  0  4.034106  0  0  0.036138  0.092132  0  4.000451  0
C  C65  1  0.39167988  0.67803754  0.28259787  1  0  0.114543  0  3.758391  0  0  0.09433  0  4.014146  0  0  0.098086  0  4.034145  0  0  0.036082  0.091957  0  4.000466  0
C  C66  1  0.73983428  0.11516813  0.25957677  1  0  -0.148132  0  3.713459  0  0  -0.173907  0  3.966441  0  0  -0.179292  0  3.987104  0  0  -0.087222  -0.170348  0  3.95252  0
C  C67  1  0.73983843  0.38482614  0.75957545  1  0  -0.148142  0  3.713429  0  0  -0.173885  0  3.966428  0  0  -0.179281  0  3.987083  0  0  -0.087222  -0.170324  0  3.952501  0
C  C68  1  0.26013367  0.88483620  0.74042204  1  0  -0.14816  0  3.71346  0  0  -0.173956  0  3.966448  0  0  -0.179342  0  3.987105  0  0  -0.087277  -0.170397  0  3.952521  0
C  C69  1  0.26017287  0.61517077  0.24042382  1  0  -0.148122  0  3.71361  0  0  -0.173855  0  3.96662  0  0  -0.179246  0  3.987261  0  0  -0.087257  -0.170293  0  3.952692  0
C  C70  1  0.90608635  0.15761115  0.30701783  1  0  0.023217  0  3.822425  0  0  0.035429  0  4.060418  0  0  0.035213  0  4.083217  0  0  0.004534  0.035665  0  4.044898  0
C  C71  1  0.90609757  0.34238742  0.80701984  1  0  0.023152  0  3.822454  0  0  0.035362  0  4.060418  0  0  0.035155  0  4.083214  0  0  0.004517  0.035593  0  4.044912  0
C  C72  1  0.09389384  0.84238946  0.69297965  1  0  0.023163  0  3.822518  0  0  0.035401  0  4.060463  0  0  0.03519  0  4.083263  0  0  0.004589  0.035645  0  4.044948  0
C  C73  1  0.09391120  0.65760801  0.19298033  1  0  0.023076  0  3.822547  0  0  0.035259  0  4.060513  0  0  0.035064  0  4.083316  0  0  0.004489  0.03549  0  4.045004  0
C  C74  1  0.93459406  0.26109246  0.30933008  1  0  -0.117963  0  3.677611  0  0  -0.137793  0  3.920479  0  0  -0.14317  0  3.941657  0  0  -0.076494  -0.134216  0  3.906248  0
C  C75  1  0.93460888  0.23890687  0.80932839  1  0  -0.117893  0  3.678127  0  0  -0.137702  0  3.920908  0  0  -0.143094  0  3.942124  0  0  -0.076451  -0.134123  0  3.906676  0
C  C76  1  0.06539041  0.73890593  0.69067141  1  0  -0.117825  0  3.677863  0  0  -0.137696  0  3.920649  0  0  -0.143088  0  3.941865  0  0  -0.076491  -0.134117  0  3.906415  0
C  C77  1  0.06539729  0.76109153  0.19067311  1  0  -0.117915  0  3.677849  0  0  -0.137774  0  3.920732  0  0  -0.143163  0  3.941946  0  0  -0.076518  -0.134195  0  3.906505  0
C  C78  1  0.79148538  0.31680706  0.26482959  1  0  0.12114  0  3.740878  0  0  0.097146  0  4.004618  0  0  0.102266  0  4.020622  0  0  0.040767  0.093846  0  3.993599  0
C  C79  1  0.79151677  0.18319318  0.76483295  1  0  0.121184  0  3.740915  0  0  0.097186  0  4.004672  0  0  0.102304  0  4.020665  0  0  0.040772  0.09389  0  3.993643  0
C  C80  1  0.20850645  0.68319504  0.73517102  1  0  0.121042  0  3.740941  0  0  0.097066  0  4.004737  0  0  0.102184  0  4.020733  0  0  0.040694  0.093765  0  3.99372  0
C  C81  1  0.20850369  0.81680299  0.23516990  1  0  0.121213  0  3.740871  0  0  0.097172  0  4.004667  0  0  0.102288  0  4.020669  0  0  0.040793  0.093871  0  3.993644  0
I  I82  1  0.48500861  0.45886221  0.40531239  1  0  -0.451059  0  1.18351  0  0  -0.403879  0  1.519232  0  0  -0.424182  0  1.498132  0  0  -0.195159  -0.389199  0  1.535063  0
I  I83  1  0.48503202  0.04113896  0.90531048  1  0  -0.451029  0  1.183516  0  0  -0.403834  0  1.519203  0  0  -0.42413  0  1.498102  0  0  -0.195129  -0.389167  0  1.535072  0
I  I84  1  0.51497555  0.54113396  0.59469134  1  0  -0.451099  0  1.183573  0  0  -0.403906  0  1.519254  0  0  -0.424208  0  1.498148  0  0  -0.195164  -0.38922  0  1.535087  0
I  I85  1  0.51498416  0.95886166  0.09468835  1  0  -0.451075  0  1.183534  0  0  -0.403889  0  1.519274  0  0  -0.42419  0  1.498172  0  0  -0.195156  -0.389189  0  1.535091  0
N  N86  1  0.02571013  0.67300084  0.47119292  1  0  -0.313498  0  3.271149  0  0  -0.233875  0  3.522655  0  0  -0.25453  0  3.546784  0  0  -0.325637  -0.219662  0  3.505751  0
N  N87  1  0.02573714  0.82699356  0.97118593  1  0  -0.313448  0  3.271188  0  0  -0.233775  0  3.5226  0  0  -0.254436  0  3.546739  0  0  -0.325505  -0.219552  0  3.505663  0
N  N88  1  0.97428585  0.32699459  0.52881260  1  0  -0.313401  0  3.271107  0  0  -0.233756  0  3.522688  0  0  -0.254416  0  3.546824  0  0  -0.325546  -0.219535  0  3.505779  0
N  N89  1  0.97429839  0.17300632  0.02881246  1  0  -0.313349  0  3.271074  0  0  -0.233733  0  3.522631  0  0  -0.254387  0  3.54675  0  0  -0.325566  -0.219517  0  3.505729  0
N  N90  1  0.29035486  0.03947497  0.43002850  1  0  -0.253707  0  2.924185  0  0  -0.233669  0  3.211221  0  0  -0.242424  0  3.22325  0  0  -0.207156  -0.227685  0  3.203085  0
N  N91  1  0.29035622  0.46052451  0.93002627  1  0  -0.253731  0  2.924025  0  0  -0.233689  0  3.211089  0  0  -0.242445  0  3.223121  0  0  -0.207146  -0.227706  0  3.202958  0
N  N92  1  0.70963178  0.96052490  0.56997477  1  0  -0.253738  0  2.924484  0  0  -0.233702  0  3.211569  0  0  -0.242458  0  3.2236  0  0  -0.207264  -0.227716  0  3.20343  0
N  N93  1  0.70963808  0.53947833  0.06997389  1  0  -0.253704  0  2.924011  0  0  -0.233686  0  3.211079  0  0  -0.242436  0  3.223104  0  0  -0.207219  -0.227703  0  3.202949  0
N  N94  1  0.24148509  0.12275315  0.39539252  1  0  -0.257892  0  2.889964  0  0  -0.240403  0  3.172877  0  0  -0.249357  0  3.186133  0  0  -0.213714  -0.234317  0  3.163869  0
N  N95  1  0.24150117  0.37724362  0.89539251  1  0  -0.257878  0  2.890065  0  0  -0.240424  0  3.172974  0  0  -0.249364  0  3.186239  0  0  -0.213709  -0.234339  0  3.163968  0
N  N96  1  0.75848021  0.87724377  0.60460807  1  0  -0.257955  0  2.890139  0  0  -0.240512  0  3.173045  0  0  -0.249452  0  3.186303  0  0  -0.21372  -0.234422  0  3.164043  0
N  N97  1  0.75850024  0.62275700  0.10460855  1  0  -0.257938  0  2.890073  0  0  -0.240493  0  3.172942  0  0  -0.249422  0  3.186216  0  0  -0.213668  -0.234408  0  3.16394  0
N  N98  1  0.62888150  0.27739281  0.21946558  1  0  -0.310192  0  3.068531  0  0  -0.275457  0  3.337463  0  0  -0.285499  0  3.353311  0  0  -0.320649  -0.268459  0  3.326458  0
N  N99  1  0.62889138  0.22260167  0.71946559  1  0  -0.310324  0  3.068154  0  0  -0.275644  0  3.337136  0  0  -0.285686  0  3.352983  0  0  -0.32069  -0.268643  0  3.326122  0
N  N100  1  0.37110562  0.72261225  0.78053413  1  0  -0.310153  0  3.068619  0  0  -0.275452  0  3.337588  0  0  -0.285489  0  3.353436  0  0  -0.320586  -0.268455  0  3.326587  0
N  N101  1  0.37112926  0.77739672  0.28053592  1  0  -0.310086  0  3.068144  0  0  -0.275374  0  3.337114  0  0  -0.285412  0  3.352959  0  0  -0.320629  -0.268373  0  3.3261  0
O  O102  1  0.95660259  0.99872593  0.35806654  1  0  -0.254225  0  2.283482  0  0  -0.18181  0  2.499907  0  0  -0.198894  0  2.500863  0  0  -0.093683  -0.170298  0  2.499011  0
O  O103  1  0.95661405  0.50126968  0.85806575  1  0  -0.25431  0  2.283604  0  0  -0.181808  0  2.499946  0  0  -0.19888  0  2.500912  0  0  -0.09365  -0.170299  0  2.499049  0
O  O104  1  0.04337025  0.00127024  0.64193182  1  0  -0.254355  0  2.283669  0  0  -0.181809  0  2.499983  0  0  -0.198862  0  2.500926  0  0  -0.093684  -0.1703  0  2.499097  0
O  O105  1  0.04339953  0.49873316  0.14193442  1  0  -0.254114  0  2.283852  0  0  -0.181745  0  2.500219  0  0  -0.19881  0  2.501203  0  0  -0.093631  -0.170232  0  2.499321  0
