# generated using pymatgen
data_CdH24C36(N2O3)2
_symmetry_space_group_name_H-M   'P 1'
_cell_length_a   11.76296572
_cell_length_b   14.35124630
_cell_length_c   22.61902526
_cell_angle_alpha   89.99887112
_cell_angle_beta   89.99915723
_cell_angle_gamma   90.00064977
_symmetry_Int_Tables_number   1
_chemical_formula_structural   CdH24C36(N2O3)2
_chemical_formula_sum   'Cd4 H96 C144 N16 O24'
_cell_volume   3818.39044414
_cell_formula_units_Z   4
loop_
 _symmetry_equiv_pos_site_id
 _symmetry_equiv_pos_as_xyz
  1  'x, y, z'
loop_
 _atom_site_type_symbol
 _atom_site_label
 _atom_site_symmetry_multiplicity
 _atom_site_fract_x
 _atom_site_fract_y
 _atom_site_fract_z
 _atom_site_occupancy
 _atom_site_pbe_bader_charge
 _atom_site_pbe_bader_spin_density
 _atom_site_pbe_cm5_charge
 _atom_site_pbe_ddec_charge
 _atom_site_pbe_ddec_spin_density
 _atom_site_pbe_ddec_sum_bond_order
 _atom_site_pbe_magmom
Cd  Cd0  1  0.04381844  0.88774235  0.94395890  1  1.280999  0  0.766585  0.884262  0  2.189214  0
Cd  Cd1  1  0.04381890  0.11226198  0.05604063  1  1.28116  0  0.766639  0.884376  0  2.188928  0
Cd  Cd2  1  0.95617620  0.38775071  0.55604757  1  1.281201  0  0.766588  0.884274  0  2.189155  0
Cd  Cd3  1  0.95618890  0.61225364  0.44396077  1  1.281089  0  0.766635  0.884403  0  2.188997  0
H  H4  1  0.16763965  0.39882723  0.72494719  1  0.476348  0  0.324704  0.285499  0  0.923187  0
H  H5  1  0.16763678  0.60116350  0.27503772  1  0.476152  0  0.324752  0.285703  0  0.923094  0
H  H6  1  0.83236026  0.89883672  0.77504025  1  0.476695  0  0.324775  0.285738  0  0.923148  0
H  H7  1  0.83235386  0.10116867  0.22496281  1  0.476249  0  0.324745  0.285706  0  0.92313  0
H  H8  1  0.15683559  0.83945911  0.70747928  1  0.446572  0  0.324498  0.280136  0  0.926486  0
H  H9  1  0.15683149  0.16055104  0.29251677  1  0.446364  0  0.32452  0.280076  0  0.926383  0
H  H10  1  0.84317192  0.33945906  0.79252152  1  0.446538  0  0.324525  0.280158  0  0.926358  0
H  H11  1  0.84317195  0.66054922  0.20748323  1  0.44637  0  0.32448  0.279985  0  0.926493  0
H  H12  1  0.09573087  0.25438859  0.94141579  1  0.114104  0  0.107531  0.125593  0  1.021555  0
H  H13  1  0.09571703  0.74560363  0.05857319  1  0.113871  0  0.107537  0.125536  0  1.021636  0
H  H14  1  0.90427535  0.75439245  0.55857807  1  0.114071  0  0.107519  0.12554  0  1.021608  0
H  H15  1  0.90427834  0.24559544  0.44143108  1  0.113737  0  0.107546  0.125508  0  1.021784  0
H  H16  1  0.15995806  0.39268652  0.88439088  1  0.103331  0  0.116136  0.135343  0  0.972799  0
H  H17  1  0.15995234  0.60730694  0.11559454  1  0.103317  0  0.116179  0.135488  0  0.972966  0
H  H18  1  0.84003836  0.89269419  0.61559347  1  0.103272  0  0.116132  0.135383  0  0.972987  0
H  H19  1  0.84004008  0.10729385  0.38441306  1  0.102997  0  0.116185  0.135498  0  0.972903  0
H  H20  1  0.16232423  0.22895836  0.72438411  1  0.119009  0  0.107699  0.121801  0  0.998006  0
H  H21  1  0.16232732  0.77102467  0.27560173  1  0.119163  0  0.107703  0.121806  0  0.997823  0
H  H22  1  0.83768160  0.72898667  0.77561289  1  0.118869  0  0.107757  0.121805  0  0.998038  0
H  H23  1  0.83766674  0.27102852  0.22439852  1  0.119172  0  0.107705  0.121774  0  0.997841  0
H  H24  1  0.10848554  0.08883200  0.78336220  1  0.089324  0  0.097961  0.09159  0  1.068787  0
H  H25  1  0.10848483  0.91115475  0.21663022  1  0.089096  0  0.09803  0.091643  0  1.068796  0
H  H26  1  0.89151563  0.58885305  0.71664298  1  0.089338  0  0.098068  0.091694  0  1.068876  0
H  H27  1  0.89150539  0.41115285  0.28337246  1  0.088702  0  0.098032  0.091664  0  1.068779  0
H  H28  1  0.10171671  0.54787701  0.73925739  1  0.073334  0  0.104349  0.098771  0  1.052441  0
H  H29  1  0.10173241  0.45212223  0.26072801  1  0.073602  0  0.104306  0.098567  0  1.052567  0
H  H30  1  0.89827959  0.04788136  0.76074299  1  0.07212  0  0.104327  0.098688  0  1.052472  0
H  H31  1  0.89827033  0.95212529  0.23925251  1  0.073349  0  0.104286  0.09866  0  1.052624  0
H  H32  1  0.09081068  0.69481286  0.68365235  1  0.095261  0  0.100127  0.097172  0  1.060523  0
H  H33  1  0.09081572  0.30520092  0.31634418  1  0.095128  0  0.100123  0.09713  0  1.060643  0
H  H34  1  0.90918274  0.19479943  0.81635531  1  0.095306  0  0.100123  0.097099  0  1.060659  0
H  H35  1  0.90918141  0.80520243  0.18364497  1  0.095197  0  0.100114  0.097106  0  1.060655  0
H  H36  1  0.47801620  0.76904432  0.63430790  1  0.11304  0  0.108162  0.121087  0  1.01057  0
H  H37  1  0.47800334  0.23096924  0.36569995  1  0.112852  0  0.108128  0.121123  0  1.01054  0
H  H38  1  0.52198345  0.26902964  0.86569389  1  0.113225  0  0.108121  0.121046  0  1.010546  0
H  H39  1  0.52198245  0.73097593  0.13429861  1  0.112964  0  0.108097  0.1211  0  1.010486  0
H  H40  1  0.66362753  0.69678315  0.65590769  1  0.08737  0  0.09707  0.095235  0  1.046813  0
H  H41  1  0.66363172  0.30322779  0.34409704  1  0.087319  0  0.097062  0.095207  0  1.046829  0
H  H42  1  0.33636592  0.19676747  0.84409113  1  0.08747  0  0.097111  0.095264  0  1.046836  0
H  H43  1  0.33636282  0.80323305  0.15590316  1  0.087334  0  0.097062  0.095207  0  1.046858  0
H  H44  1  0.67575681  0.55653358  0.72058693  1  0.070367  0  0.100113  0.099266  0  1.007005  0
H  H45  1  0.67576503  0.44346911  0.27941373  1  0.070195  0  0.100124  0.099329  0  1.00708  0
H  H46  1  0.32424047  0.05653270  0.77940592  1  0.070497  0  0.10008  0.099278  0  1.006984  0
H  H47  1  0.32423928  0.94346911  0.22058935  1  0.070482  0  0.100079  0.099286  0  1.007002  0
H  H48  1  0.50042148  0.48700315  0.76284321  1  0.105266  0  0.106497  0.118196  0  1.010258  0
H  H49  1  0.50044815  0.51300084  0.23715564  1  0.105264  0  0.106474  0.11825  0  1.010127  0
H  H50  1  0.49957211  0.98700507  0.73714939  1  0.105146  0  0.106496  0.118217  0  1.010074  0
H  H51  1  0.49956836  0.01299473  0.26284680  1  0.105203  0  0.106518  0.118232  0  1.010164  0
H  H52  1  0.07331395  0.97594445  0.73227100  1  0.05195  0  0.101054  0.107693  0  1.017308  0
H  H53  1  0.07330257  0.02406849  0.26772478  1  0.051714  0  0.101107  0.107665  0  1.017518  0
H  H54  1  0.92667947  0.47594863  0.76772914  1  0.051986  0  0.101051  0.107686  0  1.017376  0
H  H55  1  0.92668435  0.52406035  0.23227676  1  0.051707  0  0.101064  0.107712  0  1.017397  0
H  H56  1  0.99443968  0.13098710  0.70031733  1  0.083696  0  0.099695  0.099829  0  1.04316  0
H  H57  1  0.99444013  0.86901478  0.29967967  1  0.083748  0  0.099761  0.09987  0  1.043107  0
H  H58  1  0.00554767  0.63099864  0.79968291  1  0.084022  0  0.099719  0.099857  0  1.043023  0
H  H59  1  0.00554860  0.36900954  0.20032175  1  0.083664  0  0.099776  0.099883  0  1.043039  0
H  H60  1  0.09701430  0.07680224  0.52293989  1  0.074385  0  0.102824  0.102205  0  1.043863  0
H  H61  1  0.09700098  0.92320463  0.47705217  1  0.0752  0  0.102722  0.102104  0  1.043932  0
H  H62  1  0.90298839  0.57679152  0.97705691  1  0.074974  0  0.102775  0.102163  0  1.043884  0
H  H63  1  0.90299878  0.42321656  0.02294739  1  0.074921  0  0.102708  0.102102  0  1.043939  0
H  H64  1  0.18911948  0.92685819  0.55464625  1  0.142403  0  0.107554  0.123594  0  1.030935  0
H  H65  1  0.18909594  0.07315502  0.44534868  1  0.142304  0  0.107505  0.123503  0  1.031123  0
H  H66  1  0.81088765  0.42684968  0.94535308  1  0.142227  0  0.107565  0.123652  0  1.030865  0
H  H67  1  0.81089767  0.57315832  0.05465543  1  0.142262  0  0.107533  0.123562  0  1.031051  0
H  H68  1  0.25297895  0.92765853  0.86161548  1  0.124252  0  0.118071  0.09144  0  0.996258  0
H  H69  1  0.25296957  0.07234686  0.13839004  1  0.124105  0  0.11805  0.091429  0  0.996163  0
H  H70  1  0.74702139  0.42766035  0.63838739  1  0.124084  0  0.118057  0.091466  0  0.996265  0
H  H71  1  0.74703678  0.57234293  0.36161761  1  0.124303  0  0.118072  0.091498  0  0.996119  0
H  H72  1  0.46537357  0.93037007  0.85908585  1  0.092427  0  0.105102  0.111098  0  1.032585  0
H  H73  1  0.46536663  0.06962736  0.14092032  1  0.092366  0  0.105073  0.111083  0  1.032698  0
H  H74  1  0.53462426  0.43037273  0.64091612  1  0.092326  0  0.105083  0.111064  0  1.032643  0
H  H75  1  0.53463968  0.56962946  0.35908910  1  0.092642  0  0.105104  0.111137  0  1.032588  0
H  H76  1  0.46095929  0.85383452  0.04413393  1  0.115462  0  0.108388  0.115143  0  1.02312  0
H  H77  1  0.46096596  0.14617053  0.95587405  1  0.115391  0  0.108405  0.115214  0  1.023105  0
H  H78  1  0.53904367  0.35381753  0.45587327  1  0.115453  0  0.10845  0.115305  0  1.022957  0
H  H79  1  0.53903948  0.64617006  0.54412883  1  0.115342  0  0.108369  0.115095  0  1.023156  0
H  H80  1  0.24944979  0.85459261  0.03839351  1  0.126765  0  0.114751  0.082036  0  1.037352  0
H  H81  1  0.24945714  0.14542529  0.96161733  1  0.126916  0  0.114736  0.082039  0  1.037327  0
H  H82  1  0.75055063  0.35456802  0.46161855  1  0.126735  0  0.114745  0.082016  0  1.037295  0
H  H83  1  0.75055339  0.64541509  0.53839041  1  0.126636  0  0.114751  0.082082  0  1.037348  0
H  H84  1  0.62272355  0.01510214  0.89475068  1  0.095261  0  0.104343  0.110059  0  1.035642  0
H  H85  1  0.62272300  0.98489173  0.10525257  1  0.095165  0  0.104355  0.109966  0  1.035743  0
H  H86  1  0.37728841  0.51510651  0.60524312  1  0.095133  0  0.10437  0.110069  0  1.035737  0
H  H87  1  0.37728959  0.48488877  0.39474911  1  0.095193  0  0.104373  0.109979  0  1.035831  0
H  H88  1  0.83470320  0.01347035  0.89727743  1  0.082929  0  0.112473  0.084847  0  1.020015  0
H  H89  1  0.83469936  0.98651416  0.10271676  1  0.08293  0  0.112467  0.084826  0  1.020115  0
H  H90  1  0.16530703  0.51348284  0.60272124  1  0.082917  0  0.112477  0.084864  0  1.020074  0
H  H91  1  0.16531071  0.48651415  0.39727828  1  0.082895  0  0.112504  0.084829  0  1.02004  0
H  H92  1  0.84023269  0.78429128  0.00839940  1  0.105894  0  0.121216  0.100465  0  0.995156  0
H  H93  1  0.84023681  0.21570094  0.99160050  1  0.106071  0  0.121168  0.100462  0  0.995213  0
H  H94  1  0.15975221  0.28430316  0.49160614  1  0.106068  0  0.121175  0.100448  0  0.995288  0
H  H95  1  0.15977478  0.71569448  0.50839387  1  0.106278  0  0.121261  0.100511  0  0.995081  0
H  H96  1  0.62998712  0.77606730  0.01221069  1  0.14055  0  0.113554  0.132531  0  1.015346  0
H  H97  1  0.62999998  0.22392593  0.98779031  1  0.140774  0  0.113603  0.132546  0  1.015314  0
H  H98  1  0.36999171  0.27606933  0.48779177  1  0.140505  0  0.113648  0.132651  0  1.015319  0
H  H99  1  0.37001343  0.72392102  0.51220802  1  0.140564  0  0.113578  0.132506  0  1.015255  0
C  C100  1  0.06681908  0.07441373  0.89765730  1  1.52411  0  0.191933  0.56092  0  4.239211  0
C  C101  1  0.06680157  0.92558103  0.10233543  1  1.524296  0  0.192039  0.561219  0  4.239139  0
C  C102  1  0.93318017  0.57441808  0.60234967  1  1.55695  0  0.191911  0.560832  0  4.2389  0
C  C103  1  0.93319737  0.42557493  0.39766723  1  1.524145  0  0.19225  0.561627  0  4.238695  0
C  C104  1  0.10044183  0.16148529  0.86569684  1  -0.023748  0  -0.031911  -0.069608  0  4.013291  0
C  C105  1  0.10043651  0.83850906  0.13429343  1  -0.024869  0  -0.031807  -0.069562  0  4.013153  0
C  C106  1  0.89955703  0.66149376  0.63430380  1  -0.024195  0  -0.031854  -0.069456  0  4.012935  0
C  C107  1  0.89956536  0.33850105  0.36570893  1  -0.024978  0  -0.031815  -0.069702  0  4.013116  0
C  C108  1  0.11406363  0.24775925  0.89428107  1  -0.057822  0  -0.082254  -0.088181  0  3.958472  0
C  C109  1  0.11405445  0.75223452  0.10570689  1  -0.057356  0  -0.08226  -0.088013  0  3.958287  0
C  C110  1  0.88593909  0.74776718  0.60571236  1  -0.057651  0  -0.082239  -0.088085  0  3.958207  0
C  C111  1  0.88594442  0.25222403  0.39429649  1  -0.056715  0  -0.082381  -0.088102  0  3.958395  0
C  C112  1  0.14866821  0.32592218  0.86231973  1  -0.058175  0  -0.085417  -0.162731  0  3.935224  0
C  C113  1  0.14866370  0.67407118  0.13766621  1  -0.05815  0  -0.085581  -0.163124  0  3.935317  0
C  C114  1  0.85133144  0.82593145  0.63766871  1  -0.05788  0  -0.085462  -0.162912  0  3.935213  0
C  C115  1  0.85133909  0.17405878  0.36233818  1  -0.058041  0  -0.08554  -0.163002  0  3.93529  0
C  C116  1  0.14966605  0.23386172  0.77205729  1  -0.045188  0  -0.092993  -0.183438  0  3.974253  0
C  C117  1  0.14966536  0.76612608  0.22792953  1  -0.045359  0  -0.093014  -0.183425  0  3.97378  0
C  C118  1  0.85033817  0.73388246  0.72793926  1  -0.045029  0  -0.093152  -0.183452  0  3.974281  0
C  C119  1  0.85033372  0.26612239  0.27207162  1  -0.045282  0  -0.092976  -0.183238  0  3.973804  0
C  C120  1  0.11872465  0.15611827  0.80460264  1  -0.079965  0  -0.090817  -0.092711  0  4.031866  0
C  C121  1  0.11872440  0.84387066  0.19538706  1  -0.078866  0  -0.090903  -0.092762  0  4.031989  0
C  C122  1  0.88127669  0.65613558  0.69539846  1  -0.079357  0  -0.09083  -0.092806  0  4.032069  0
C  C123  1  0.88127670  0.34386604  0.30461529  1  -0.078296  0  -0.090783  -0.092626  0  4.031946  0
C  C124  1  0.28140566  0.46083531  0.78166005  1  1.38687  0  0.241671  0.485617  0  4.121458  0
C  C125  1  0.28142393  0.53916474  0.21832979  1  1.384425  0  0.241802  0.485949  0  4.12089  0
C  C126  1  0.71858839  0.96084366  0.71832597  1  1.385111  0  0.24182  0.485689  0  4.121387  0
C  C127  1  0.71858192  0.03915312  0.28167040  1  1.385606  0  0.241657  0.485648  0  4.121281  0
C  C128  1  0.28364101  0.54310672  0.74079040  1  -0.046241  0  -0.007681  -0.073026  0  3.955355  0
C  C129  1  0.28365428  0.45689336  0.25920075  1  -0.046242  0  -0.007726  -0.073409  0  3.955388  0
C  C130  1  0.71635436  0.04311380  0.75919673  1  -0.046373  0  -0.007802  -0.073055  0  3.955368  0
C  C131  1  0.71634853  0.95689062  0.24079435  1  -0.046658  0  -0.007733  -0.073271  0  3.955701  0
C  C132  1  0.18000695  0.58140027  0.72513711  1  -0.036381  0  -0.08721  -0.103561  0  4.012168  0
C  C133  1  0.18001918  0.41860520  0.27485656  1  -0.036857  0  -0.087028  -0.102985  0  4.012012  0
C  C134  1  0.81998645  0.08140314  0.77485792  1  -0.03545  0  -0.087131  -0.103451  0  4.01205  0
C  C135  1  0.81998136  0.91860215  0.22513417  1  -0.036324  0  -0.086984  -0.10322  0  4.012287  0
C  C136  1  0.17391181  0.66518553  0.69337663  1  -0.081946  0  -0.092759  -0.113561  0  4.014255  0
C  C137  1  0.17392013  0.33482337  0.30662106  1  -0.081563  0  -0.092777  -0.113637  0  4.014372  0
C  C138  1  0.82608032  0.16518382  0.80662180  1  -0.081846  0  -0.092756  -0.113472  0  4.014291  0
C  C139  1  0.82607659  0.83481944  0.19337379  1  -0.081611  0  -0.092775  -0.113543  0  4.014385  0
C  C140  1  0.27140740  0.70898899  0.67351110  1  -0.058811  0  -0.008909  -0.075361  0  3.967796  0
C  C141  1  0.27141192  0.29101795  0.32648809  1  -0.05917  0  -0.009032  -0.075435  0  3.967979  0
C  C142  1  0.72858538  0.20898739  0.82648593  1  -0.059431  0  -0.008974  -0.075417  0  3.967655  0
C  C143  1  0.72858243  0.79101365  0.17351125  1  -0.059171  0  -0.009014  -0.075436  0  3.967774  0
C  C144  1  0.38044151  0.66818152  0.68455808  1  0.020067  0  -0.002343  0.052359  0  3.960199  0
C  C145  1  0.38044697  0.33182564  0.31544253  1  0.019564  0  -0.002281  0.052331  0  3.960249  0
C  C146  1  0.61955321  0.16817825  0.81543769  1  0.02054  0  -0.002174  0.052665  0  3.959991  0
C  C147  1  0.61954885  0.83182187  0.18455940  1  0.019459  0  -0.002261  0.052534  0  3.959998  0
C  C148  1  0.48261110  0.70692768  0.66185378  1  -0.0876  0  -0.091783  -0.140865  0  3.975081  0
C  C149  1  0.48261105  0.29308383  0.33815183  1  -0.086732  0  -0.091737  -0.141053  0  3.974967  0
C  C150  1  0.51738506  0.20691595  0.83814635  1  -0.087896  0  -0.091741  -0.140963  0  3.974786  0
C  C151  1  0.51738078  0.79308400  0.16185060  1  -0.086879  0  -0.091753  -0.141108  0  3.974812  0
C  C152  1  0.58630810  0.66631735  0.67399144  1  -0.048525  0  -0.092199  -0.076009  0  4.01514  0
C  C153  1  0.58631243  0.33368527  0.32600899  1  -0.048576  0  -0.092217  -0.075852  0  4.014968  0
C  C154  1  0.41368744  0.16630894  0.82600521  1  -0.048387  0  -0.092269  -0.075993  0  4.014937  0
C  C155  1  0.41368257  0.83368874  0.17399250  1  -0.048465  0  -0.092205  -0.075855  0  4.014952  0
C  C156  1  0.59285463  0.58669884  0.71052710  1  -0.010999  0  -0.09025  -0.076373  0  4.020312  0
C  C157  1  0.59286294  0.41330175  0.28947196  1  -0.009345  0  -0.090259  -0.076488  0  4.020693  0
C  C158  1  0.40714311  0.08669738  0.78946615  1  -0.011452  0  -0.090233  -0.076402  0  4.020152  0
C  C159  1  0.40714007  0.91330025  0.21053161  1  -0.011432  0  -0.090211  -0.076434  0  4.020356  0
C  C160  1  0.49553584  0.54739246  0.73377605  1  -0.097994  0  -0.089902  -0.138115  0  3.977388  0
C  C161  1  0.49554969  0.45261149  0.26622238  1  -0.100321  0  -0.089946  -0.138346  0  3.977477  0
C  C162  1  0.50445960  0.04739317  0.76621549  1  -0.097496  0  -0.089862  -0.138106  0  3.977191  0
C  C163  1  0.50445561  0.95260459  0.23378200  1  -0.09784  0  -0.089981  -0.138239  0  3.977428  0
C  C164  1  0.38688430  0.58564899  0.72087754  1  0.003626  0  0.000461  0.056381  0  3.952575  0
C  C165  1  0.38689464  0.41435335  0.27911727  1  0.00488  0  0.00051  0.056763  0  3.95227  0
C  C166  1  0.61311172  0.08565265  0.77911261  1  0.003831  0  0.000384  0.056206  0  3.952827  0
C  C167  1  0.61310669  0.91434672  0.22088409  1  0.004138  0  0.000512  0.056565  0  3.952593  0
C  C168  1  0.25639536  0.79754042  0.63906840  1  1.403323  0  0.245059  0.48394  0  4.109196  0
C  C169  1  0.25638647  0.20246778  0.36093090  1  1.403926  0  0.245035  0.483819  0  4.109234  0
C  C170  1  0.74360216  0.29753486  0.86093070  1  1.403264  0  0.244977  0.483773  0  4.109125  0
C  C171  1  0.74359890  0.70246143  0.13907300  1  1.403812  0  0.244925  0.483573  0  4.109291  0
C  C172  1  0.13715518  0.94254945  0.64530108  1  0.310899  0  0.097761  0.25375  0  4.037759  0
C  C173  1  0.13713918  0.05746263  0.35469422  1  0.309097  0  0.09774  0.253914  0  4.037953  0
C  C174  1  0.86285134  0.44254385  0.85469866  1  0.310717  0  0.097726  0.253923  0  4.037842  0
C  C175  1  0.86285335  0.55746110  0.14530859  1  0.309351  0  0.097779  0.253935  0  4.038259  0
C  C176  1  0.08031559  0.99937165  0.68638613  1  -0.030837  0  -0.104479  -0.208863  0  4.000902  0
C  C177  1  0.08029995  0.00064204  0.31360960  1  -0.02961  0  -0.104489  -0.208797  0  4.001251  0
C  C178  1  0.91968669  0.49937241  0.81361353  1  -0.030975  0  -0.104479  -0.20896  0  4.001122  0
C  C179  1  0.91968747  0.50063512  0.18639242  1  -0.029861  0  -0.104436  -0.208886  0  4.001184  0
C  C180  1  0.03519021  0.08444446  0.66884604  1  -0.037136  0  -0.089299  -0.084043  0  4.008895  0
C  C181  1  0.03518023  0.91556467  0.33114957  1  -0.036963  0  -0.089334  -0.084046  0  4.008856  0
C  C182  1  0.96481089  0.58444553  0.83115384  1  -0.037517  0  -0.089296  -0.084002  0  4.008848  0
C  C183  1  0.96480836  0.41556028  0.16885178  1  -0.036992  0  -0.089401  -0.084193  0  4.008774  0
C  C184  1  0.04179933  0.11338236  0.60986335  1  0.038087  0  -0.02479  -0.039414  0  3.977383  0
C  C185  1  0.04178802  0.88662473  0.39013221  1  0.037927  0  -0.024769  -0.039534  0  3.977182  0
C  C186  1  0.95820731  0.61337856  0.89013693  1  0.037991  0  -0.024814  -0.03951  0  3.977414  0
C  C187  1  0.95820438  0.38662650  0.10986918  1  0.038019  0  -0.024754  -0.039414  0  3.977257  0
C  C188  1  0.09480228  0.05467668  0.56889238  1  -0.069805  0  -0.080946  -0.071428  0  3.96959  0
C  C189  1  0.09478470  0.94533504  0.43110102  1  -0.070046  0  -0.080902  -0.07123  0  3.969478  0
C  C190  1  0.90520688  0.55466587  0.93110622  1  -0.069954  0  -0.080892  -0.071295  0  3.969445  0
C  C191  1  0.90520944  0.44533875  0.06889939  1  -0.07011  0  -0.080825  -0.071159  0  3.969409  0
C  C192  1  0.14435768  0.97078986  0.58603898  1  -0.041425  0  -0.093893  -0.177902  0  3.94044  0
C  C193  1  0.14434035  0.02922158  0.41395540  1  -0.041074  0  -0.09382  -0.178027  0  3.940825  0
C  C194  1  0.85565351  0.47078007  0.91395984  1  -0.041063  0  -0.093865  -0.178078  0  3.940455  0
C  C195  1  0.85565429  0.52922344  0.08604746  1  -0.040802  0  -0.093903  -0.178159  0  3.940949  0
C  C196  1  0.99862108  0.20748885  0.59189791  1  1.549161  0  0.181604  0.558161  0  4.2451  0
C  C197  1  0.99862397  0.79251237  0.40809862  1  1.549304  0  0.181703  0.558348  0  4.244914  0
C  C198  1  0.00137848  0.70748778  0.90810310  1  1.549293  0  0.181638  0.558237  0  4.244918  0
C  C199  1  0.00136956  0.29251548  0.09190558  1  1.548829  0  0.181699  0.558228  0  4.244829  0
C  C200  1  0.30313056  0.91129178  0.90084467  1  0.443797  0  0.050054  0.09872  0  3.951147  0
C  C201  1  0.30312769  0.08871613  0.09916225  1  0.443687  0  0.050104  0.098785  0  3.950915  0
C  C202  1  0.69686698  0.41128848  0.59915999  1  0.443761  0  0.050095  0.098693  0  3.951122  0
C  C203  1  0.69688316  0.58870880  0.40084670  1  0.443022  0  0.050057  0.098682  0  3.951305  0
C  C204  1  0.42122666  0.91303082  0.89995118  1  -0.035433  0  -0.080843  -0.169483  0  3.940261  0
C  C205  1  0.42122373  0.08696902  0.10005575  1  -0.03557  0  -0.08082  -0.169463  0  3.940376  0
C  C206  1  0.57877091  0.41303067  0.60005215  1  -0.035602  0  -0.080831  -0.16942  0  3.940398  0
C  C207  1  0.57878709  0.58696562  0.39995231  1  -0.035384  0  -0.080836  -0.169528  0  3.940268  0
C  C208  1  0.48183120  0.89204813  0.95164286  1  0.010898  0  0.01486  0.108476  0  3.976013  0
C  C209  1  0.48183352  0.10794874  0.04836363  1  0.010866  0  0.014882  0.108522  0  3.976057  0
C  C210  1  0.51816605  0.39204210  0.54836183  1  0.011196  0  0.014964  0.108611  0  3.976  0
C  C211  1  0.51817677  0.60794741  0.45164263  1  0.011023  0  0.014858  0.108607  0  3.975989  0
C  C212  1  0.41893066  0.86971432  0.00237497  1  -0.025244  0  -0.07732  -0.164756  0  3.919283  0
C  C213  1  0.41893671  0.13029038  0.99763331  1  -0.024472  0  -0.07733  -0.164876  0  3.919174  0
C  C214  1  0.58106744  0.36970292  0.49763220  1  -0.02465  0  -0.077389  -0.165044  0  3.91921  0
C  C215  1  0.58107359  0.63028573  0.50237225  1  -0.025087  0  -0.077238  -0.164744  0  3.919273  0
C  C216  1  0.30085471  0.87032730  0.99960892  1  0.399454  0  0.05212  0.107706  0  3.933523  0
C  C217  1  0.30086048  0.12968477  0.00039979  1  0.399787  0  0.052095  0.107609  0  3.933462  0
C  C218  1  0.69914307  0.37031513  0.50039935  1  0.399923  0  0.052133  0.107752  0  3.933214  0
C  C219  1  0.69915014  0.62967590  0.49960777  1  0.399181  0  0.052099  0.107671  0  3.933496  0
C  C220  1  0.60727236  0.89440592  0.95244748  1  0.068213  0  0.011122  0.102143  0  3.982856  0
C  C221  1  0.60727382  0.10558852  0.04755810  1  0.06833  0  0.011122  0.102123  0  3.983003  0
C  C222  1  0.39272493  0.39440376  0.54755588  1  0.067342  0  0.011077  0.102201  0  3.982888  0
C  C223  1  0.39273643  0.60558260  0.45244552  1  0.067929  0  0.011048  0.101996  0  3.983198  0
C  C224  1  0.66725397  0.96184794  0.92008197  1  -0.03282  0  -0.085563  -0.177655  0  3.948132  0
C  C225  1  0.66725515  0.03814700  0.07992229  1  -0.032997  0  -0.085557  -0.177434  0  3.948019  0
C  C226  1  0.33274944  0.46185036  0.57991863  1  -0.032845  0  -0.085682  -0.177862  0  3.948373  0
C  C227  1  0.33275833  0.53814107  0.42008056  1  -0.033313  0  -0.085686  -0.177637  0  3.948225  0
C  C228  1  0.78537637  0.96175154  0.92157497  1  0.485219  0  0.043549  0.09175  0  3.964325  0
C  C229  1  0.78537760  0.03823952  0.07842488  1  0.485082  0  0.043637  0.09179  0  3.96439  0
C  C230  1  0.21462619  0.46176072  0.57842518  1  0.485129  0  0.043637  0.091907  0  3.964491  0
C  C231  1  0.21463334  0.53823250  0.42157486  1  0.485125  0  0.043598  0.091921  0  3.964213  0
C  C232  1  0.78838223  0.83445347  0.98426521  1  0.437196  0  0.052148  0.105336  0  3.925039  0
C  C233  1  0.78838638  0.16554110  0.01573772  1  0.437109  0  0.052121  0.105248  0  3.925183  0
C  C234  1  0.21160736  0.33445999  0.51574134  1  0.43725  0  0.052231  0.105423  0  3.925099  0
C  C235  1  0.21162478  0.66553250  0.48426005  1  0.43686  0  0.052014  0.105274  0  3.92487  0
C  C236  1  0.67025635  0.83009234  0.98563043  1  0.011823  0  -0.077528  -0.167527  0  3.912893  0
C  C237  1  0.67026061  0.16990333  0.01437469  1  0.012097  0  -0.077578  -0.167547  0  3.913042  0
C  C238  1  0.32973317  0.33009506  0.51437348  1  0.013041  0  -0.077628  -0.167684  0  3.913101  0
C  C239  1  0.32974976  0.66989356  0.48562838  1  0.012279  0  -0.077452  -0.167395  0  3.912851  0
C  C240  1  0.16669258  0.31900199  0.80106416  1  0.394056  0  0.098639  0.245796  0  4.041374  0
C  C241  1  0.16669317  0.68098735  0.19892032  1  0.39402  0  0.098744  0.245876  0  4.040601  0
C  C242  1  0.83330952  0.81901869  0.69892474  1  0.393656  0  0.098646  0.245752  0  4.041001  0
C  C243  1  0.83330973  0.18097974  0.30108229  1  0.393367  0  0.098621  0.245555  0  4.040912  0
N  N244  1  0.19841866  0.39658522  0.76693032  1  -1.273561  0  -0.403382  -0.400436  0  3.575338  0
N  N245  1  0.19841962  0.60340507  0.23305437  1  -1.272808  0  -0.403458  -0.400767  0  3.575023  0
N  N246  1  0.80158461  0.89660038  0.73305623  1  -1.273735  0  -0.403439  -0.400656  0  3.57528  0
N  N247  1  0.80157785  0.10340267  0.26694704  1  -1.272909  0  -0.403418  -0.400599  0  3.574931  0
N  N248  1  0.18195501  0.85809504  0.66613433  1  -1.244173  0  -0.394069  -0.374411  0  3.576537  0
N  N249  1  0.18194260  0.14191811  0.33386330  1  -1.244393  0  -0.394154  -0.374322  0  3.576289  0
N  N250  1  0.81805193  0.35808958  0.83386688  1  -1.243887  0  -0.39408  -0.374455  0  3.576318  0
N  N251  1  0.81805375  0.64191639  0.16613849  1  -1.243827  0  -0.394151  -0.374159  0  3.576319  0
N  N252  1  0.24343896  0.89080129  0.94985586  1  -1.217854  0  -0.321084  -0.230827  0  3.486432  0
N  N253  1  0.24343954  0.10920960  0.05015194  1  -1.217729  0  -0.32111  -0.230813  0  3.486208  0
N  N254  1  0.75655913  0.39079229  0.55015105  1  -1.217771  0  -0.321174  -0.230859  0  3.486141  0
N  N255  1  0.75657162  0.60920132  0.44985610  1  -1.217068  0  -0.321109  -0.230867  0  3.486573  0
N  N256  1  0.84521239  0.89876821  0.95264511  1  -1.222771  0  -0.322706  -0.230227  0  3.495039  0
N  N257  1  0.84521548  0.10122336  0.04735387  1  -1.223119  0  -0.322721  -0.230243  0  3.494798  0
N  N258  1  0.15478412  0.39877660  0.54736001  1  -1.223063  0  -0.322751  -0.230304  0  3.494849  0
N  N259  1  0.15479725  0.60121891  0.45264136  1  -1.222626  0  -0.322673  -0.230347  0  3.494742  0
O  O260  1  0.05750830  0.99942971  0.86725121  1  -1.167122  0  -0.340815  -0.566891  0  2.193588  0
O  O261  1  0.05750905  0.00056776  0.13274070  1  -1.167065  0  -0.340796  -0.566924  0  2.193407  0
O  O262  1  0.94248888  0.49943350  0.63275817  1  -1.166856  0  -0.340848  -0.566953  0  2.193471  0
O  O263  1  0.94250217  0.50056307  0.36726132  1  -1.166861  0  -0.340906  -0.567125  0  2.193428  0
O  O264  1  0.05016006  0.07598194  0.95319468  1  -1.172747  0  -0.336934  -0.585079  0  2.34352  0
O  O265  1  0.05011271  0.92400780  0.04680171  1  -1.172482  0  -0.337059  -0.585347  0  2.343985  0
O  O266  1  0.94984347  0.57598687  0.54681229  1  -1.205365  0  -0.336899  -0.584987  0  2.34332  0
O  O267  1  0.94987431  0.42400279  0.45320228  1  -1.172866  0  -0.337152  -0.585574  0  2.343843  0
O  O268  1  0.34344713  0.45315693  0.82532042  1  -1.115312  0  -0.291156  -0.461144  0  2.050474  0
O  O269  1  0.34347956  0.54685341  0.17467471  1  -1.113734  0  -0.291279  -0.461301  0  2.050236  0
O  O270  1  0.65654340  0.95315544  0.67466826  1  -1.114073  0  -0.291202  -0.461137  0  2.050532  0
O  O271  1  0.65653406  0.04682339  0.32532989  1  -1.114565  0  -0.291148  -0.461133  0  2.050401  0
O  O272  1  0.30309104  0.81287170  0.59100779  1  -1.1366  0  -0.279311  -0.464914  0  2.118723  0
O  O273  1  0.30306690  0.18713830  0.40899426  1  -1.13644  0  -0.279237  -0.464816  0  2.118861  0
O  O274  1  0.69691181  0.31286434  0.90899172  1  -1.136517  0  -0.279293  -0.46484  0  2.118786  0
O  O275  1  0.69690293  0.68712041  0.09101541  1  -1.136954  0  -0.279123  -0.46466  0  2.118788  0
O  O276  1  0.98670837  0.22492025  0.53669927  1  -1.164604  0  -0.342252  -0.575522  0  2.177648  0
O  O277  1  0.98672211  0.77507809  0.46329867  1  -1.164447  0  -0.342261  -0.575602  0  2.177619  0
O  O278  1  0.01328636  0.72491747  0.96330215  1  -1.164637  0  -0.342273  -0.575573  0  2.177614  0
O  O279  1  0.01329325  0.27508799  0.03670644  1  -1.164287  0  -0.342356  -0.57567  0  2.177407  0
O  O280  1  0.97998279  0.26794159  0.63216757  1  -1.177198  0  -0.358668  -0.581887  0  2.111731  0
O  O281  1  0.97998595  0.73205878  0.36782999  1  -1.177336  0  -0.358772  -0.58202  0  2.111668  0
O  O282  1  0.02001429  0.76794371  0.86783379  1  -1.17719  0  -0.358668  -0.581866  0  2.111713  0
O  O283  1  0.01998711  0.23205832  0.13217564  1  -1.177161  0  -0.358735  -0.581887  0  2.111746  0
