# generated using pymatgen
data_AlH14(C4O)5
_symmetry_space_group_name_H-M   'P 1'
_cell_length_a   6.63787616
_cell_length_b   21.53811798
_cell_length_c   25.49129160
_cell_angle_alpha   95.82126787
_cell_angle_beta   89.99855522
_cell_angle_gamma   89.99961770
_symmetry_Int_Tables_number   1
_chemical_formula_structural   AlH14(C4O)5
_chemical_formula_sum   'Al4 H56 C80 O20'
_cell_volume   3625.62883780
_cell_formula_units_Z   4
loop_
 _symmetry_equiv_pos_site_id
 _symmetry_equiv_pos_as_xyz
  1  'x, y, z'
loop_
 _atom_site_type_symbol
 _atom_site_label
 _atom_site_symmetry_multiplicity
 _atom_site_fract_x
 _atom_site_fract_y
 _atom_site_fract_z
 _atom_site_occupancy
 _atom_site_pbe_bader_charge
 _atom_site_pbe_bader_spin_density
 _atom_site_pbe_cm5_charge
 _atom_site_pbe_ddec_charge
 _atom_site_pbe_ddec_spin_density
 _atom_site_pbe_ddec_sum_bond_order
 _atom_site_pbe_magmom
Al  Al0  1  0.19234041  0.74960511  0.75194776  1  2.50045  0  0.398823  1.637625  0  2.587721  0
Al  Al1  1  0.80767069  0.25039400  0.24805658  1  2.500388  0  0.398769  1.637614  0  2.587763  0
Al  Al2  1  0.69233333  0.75039863  0.74805452  1  2.500302  0  0.398865  1.637701  0  2.58764  0
Al  Al3  1  0.30766722  0.24960116  0.25194785  1  2.500348  0  0.398793  1.637754  0  2.587574  0
H  H4  1  0.97413475  0.62414246  0.41521336  1  0.038565  0  0.100523  0.098808  0  1.015893  0
H  H5  1  0.02586580  0.37585880  0.58478585  1  0.038656  0  0.100523  0.098846  0  1.015802  0
H  H6  1  0.47417656  0.87585842  0.08478677  1  0.038502  0  0.10056  0.098894  0  1.015827  0
H  H7  1  0.52580892  0.12413999  0.91521560  1  0.038516  0  0.100542  0.098877  0  1.01585  0
H  H8  1  0.93933131  0.63362921  0.58592818  1  0.0533  0  0.102082  0.104663  0  1.018234  0
H  H9  1  0.06068882  0.36637171  0.41406827  1  0.052746  0  0.102027  0.104602  0  1.018142  0
H  H10  1  0.43933477  0.86636878  0.91407504  1  0.053189  0  0.102063  0.104684  0  1.018278  0
H  H11  1  0.56066427  0.13362972  0.08592813  1  0.053306  0  0.102009  0.10457  0  1.018177  0
H  H12  1  0.97607223  0.53954901  0.72605796  1  0.092921  0  0.103494  0.107953  0  1.023921  0
H  H13  1  0.02392682  0.46045560  0.27394203  1  0.093192  0  0.103451  0.107889  0  1.023976  0
H  H14  1  0.47604807  0.96044883  0.77394499  1  0.093096  0  0.103496  0.107955  0  1.023946  0
H  H15  1  0.52396001  0.03954735  0.22605818  1  0.092981  0  0.103447  0.107926  0  1.023875  0
H  H16  1  0.95663995  0.62946654  0.51032323  1  0.017602  0  0.100025  0.099284  0  1.017307  0
H  H17  1  0.04336362  0.37053296  0.48967678  1  0.017622  0  0.099996  0.099256  0  1.017287  0
H  H18  1  0.45672549  0.87052954  0.98967632  1  0.017516  0  0.099903  0.099179  0  1.017101  0
H  H19  1  0.54327506  0.12946928  0.01032566  1  0.017573  0  0.099951  0.099256  0  1.017209  0
H  H20  1  0.68664296  0.90406385  0.53495814  1  0.057174  0  0.104581  0.109496  0  0.99158  0
H  H21  1  0.31335308  0.09594000  0.46504698  1  0.05696  0  0.104554  0.109464  0  0.991555  0
H  H22  1  0.18662804  0.59593364  0.96504223  1  0.057129  0  0.104547  0.109485  0  0.991552  0
H  H23  1  0.81336649  0.40406210  0.03495739  1  0.057166  0  0.104561  0.1095  0  0.991571  0
H  H24  1  0.67375486  0.83621060  0.60872394  1  0.109884  0  0.109851  0.114844  0  0.994662  0
H  H25  1  0.32625322  0.16379855  0.39128274  1  0.109318  0  0.1099  0.114888  0  0.994637  0
H  H26  1  0.17375187  0.66378519  0.89127731  1  0.109542  0  0.109894  0.11489  0  0.994728  0
H  H27  1  0.82624718  0.33621107  0.10872270  1  0.109794  0  0.109863  0.114863  0  0.994729  0
H  H28  1  0.25552913  0.97761486  0.59463437  1  0.072732  0  0.102233  0.108722  0  1.001509  0
H  H29  1  0.74446841  0.02239156  0.40536522  1  0.072805  0  0.102206  0.108713  0  1.001407  0
H  H30  1  0.75551937  0.52238272  0.90536470  1  0.072653  0  0.102235  0.108808  0  1.001452  0
H  H31  1  0.24447968  0.47761192  0.09463729  1  0.07289  0  0.102238  0.108764  0  1.001559  0
H  H32  1  0.11863909  0.61163271  0.32984220  1  0.049363  0  0.093703  0.126986  0  0.992119  0
H  H33  1  0.00275678  0.56719264  0.27552716  1  0.048232  0  0.093207  0.128482  0  0.996964  0
H  H34  1  0.85306540  0.60378749  0.32760666  1  0.042028  0  0.093784  0.128013  0  0.991474  0
H  H35  1  0.14693213  0.39621595  0.67239136  1  0.041985  0  0.093783  0.128034  0  0.991351  0
H  H36  1  0.99723473  0.43280909  0.72447205  1  0.048267  0  0.093198  0.128462  0  0.996925  0
H  H37  1  0.88135544  0.38836909  0.67015385  1  0.049564  0  0.093746  0.126988  0  0.992136  0
H  H38  1  0.35307809  0.89621447  0.17239161  1  0.042157  0  0.093838  0.128085  0  0.991378  0
H  H39  1  0.61865414  0.88836911  0.17015663  1  0.049296  0  0.093739  0.126986  0  0.992091  0
H  H40  1  0.50276653  0.93281105  0.22447252  1  0.048242  0  0.093232  0.12852  0  0.996854  0
H  H41  1  0.64692095  0.10378169  0.82760762  1  0.041853  0  0.093816  0.128069  0  0.991429  0
H  H42  1  0.49723553  0.06718442  0.77552868  1  0.04824  0  0.093158  0.128451  0  0.996901  0
H  H43  1  0.38134792  0.11162968  0.82984141  1  0.049321  0  0.093739  0.126968  0  0.992108  0
H  H44  1  0.23502637  0.91782892  0.71875111  1  0.05686  0  0.095832  0.13567  0  1.00395  0
H  H45  1  0.39170066  0.87190984  0.67497002  1  0.097436  0  0.102951  0.155415  0  0.995772  0
H  H46  1  0.38674845  0.95444896  0.67283375  1  0.028714  0  0.086409  0.115971  0  1.009451  0
H  H47  1  0.76497719  0.08217522  0.28124888  1  0.056983  0  0.095841  0.135653  0  1.003999  0
H  H48  1  0.61326415  0.04555501  0.32716860  1  0.028881  0  0.08645  0.11601  0  1.009393  0
H  H49  1  0.60829838  0.12809394  0.32503076  1  0.09742  0  0.102927  0.155432  0  0.995784  0
H  H50  1  0.73502709  0.58216119  0.78124339  1  0.057144  0  0.095838  0.1357  0  1.003897  0
H  H51  1  0.89169399  0.62807969  0.82502372  1  0.097637  0  0.103002  0.155578  0  0.995734  0
H  H52  1  0.88673941  0.54554198  0.82716001  1  0.028857  0  0.086444  0.116026  0  1.009656  0
H  H53  1  0.26495388  0.41783320  0.21875663  1  0.056837  0  0.095858  0.135778  0  1.00388  0
H  H54  1  0.11324758  0.45445132  0.17283488  1  0.028839  0  0.086437  0.11605  0  1.009566  0
H  H55  1  0.10829452  0.37191297  0.17497354  1  0.097311  0  0.10297  0.155516  0  0.995571  0
H  H56  1  0.43499041  0.71260950  0.68652650  1  0.63935  0  0.356038  0.43378  0  0.848265  0
H  H57  1  0.56500864  0.28739122  0.31347587  1  0.639292  0  0.356024  0.433668  0  0.848333  0
H  H58  1  0.93498314  0.78739285  0.81347438  1  0.639324  0  0.356024  0.433673  0  0.848339  0
H  H59  1  0.06501892  0.21260648  0.18652799  1  0.639364  0  0.356017  0.433724  0  0.848315  0
C  C60  1  0.44637540  0.67834287  0.81795364  1  1.551207  0  0.264217  0.641499  0  4.105898  0
C  C61  1  0.55363419  0.32165172  0.18204796  1  1.551176  0  0.264245  0.64156  0  4.105509  0
C  C62  1  0.94636446  0.82165450  0.68204480  1  1.551266  0  0.264392  0.641589  0  4.105228  0
C  C63  1  0.05364513  0.17834906  0.31795795  1  1.551397  0  0.264494  0.641917  0  4.104814  0
C  C64  1  0.44526018  0.84682998  0.80800974  1  1.573872  0  0.278886  0.666157  0  4.069601  0
C  C65  1  0.55475544  0.15316676  0.19199421  1  1.573931  0  0.278734  0.666134  0  4.069709  0
C  C66  1  0.94525458  0.65316718  0.69199067  1  1.573388  0  0.278621  0.665766  0  4.069719  0
C  C67  1  0.05474597  0.34683428  0.30801011  1  1.573524  0  0.278781  0.666015  0  4.069746  0
C  C68  1  0.04581962  0.40789679  0.34172220  1  0.015493  0  -0.014247  -0.019279  0  4.030999  0
C  C69  1  0.95418847  0.59210887  0.65827502  1  0.015428  0  -0.014175  -0.019022  0  4.0306  0
C  C70  1  0.54582368  0.09210639  0.15827666  1  0.015301  0  -0.014112  -0.019127  0  4.030679  0
C  C71  1  0.45417687  0.90789089  0.84172414  1  0.015196  0  -0.014119  -0.01902  0  4.030579  0
C  C72  1  0.01101253  0.52061242  0.34614745  1  0.031436  0  -0.005563  0.133586  0  3.96314  0
C  C73  1  0.98898501  0.47938979  0.65384821  1  0.031438  0  -0.005555  0.133593  0  3.963247  0
C  C74  1  0.51104167  0.97938745  0.15384785  1  0.031517  0  -0.005709  0.133515  0  3.963302  0
C  C75  1  0.48895587  0.02061184  0.84615413  1  0.03169  0  -0.005624  0.133544  0  3.963105  0
C  C76  1  0.02675260  0.46314935  0.31687762  1  -0.07292  0  -0.093814  -0.182928  0  3.970783  0
C  C77  1  0.97324795  0.53685446  0.68311962  1  -0.072267  0  -0.093894  -0.183142  0  3.970608  0
C  C78  1  0.52677007  0.03685042  0.18311943  1  -0.072461  0  -0.093786  -0.182992  0  3.970677  0
C  C79  1  0.47322596  0.96314798  0.81688295  1  -0.072557  0  -0.093827  -0.183083  0  3.97086  0
C  C80  1  0.04624051  0.40990300  0.39609159  1  -0.070345  0  -0.09047  -0.167853  0  3.976062  0
C  C81  1  0.95377511  0.59009978  0.60390485  1  -0.071023  0  -0.090552  -0.167989  0  3.976159  0
C  C82  1  0.54622835  0.09009706  0.10390451  1  -0.070962  0  -0.090517  -0.167967  0  3.976094  0
C  C83  1  0.45376467  0.90990032  0.89609707  1  -0.07094  0  -0.090567  -0.168025  0  3.976152  0
C  C84  1  0.02336552  0.46729029  0.42785655  1  -0.023899  0  -0.000511  0.046308  0  3.960325  0
C  C85  1  0.97664860  0.53271195  0.57214305  1  -0.024095  0  -0.000521  0.046365  0  3.960342  0
C  C86  1  0.52336432  0.03270942  0.07214367  1  -0.024136  0  -0.000559  0.046363  0  3.96055  0
C  C87  1  0.47662870  0.96728903  0.92785910  1  -0.024067  0  -0.000437  0.046365  0  3.960445  0
C  C88  1  0.00733263  0.52329076  0.40233587  1  -0.007294  0  -0.00871  0.014539  0  3.970664  0
C  C89  1  0.99266792  0.47671185  0.59766295  1  -0.007271  0  -0.008715  0.014546  0  3.970912  0
C  C90  1  0.50734874  0.97671064  0.09766419  1  -0.007217  0  -0.00857  0.01469  0  3.970925  0
C  C91  1  0.49263976  0.02328911  0.90233779  1  -0.007133  0  -0.008715  0.014531  0  3.97116  0
C  C92  1  0.01271045  0.47068903  0.48491050  1  0.04253  0  -0.003273  0.033025  0  3.956307  0
C  C93  1  0.98730065  0.52931162  0.51508753  1  -0.019703  0  -0.00331  0.032957  0  3.956235  0
C  C94  1  0.51268575  0.02931216  0.01509020  1  -0.019301  0  -0.003308  0.032795  0  3.956586  0
C  C95  1  0.48729672  0.97068917  0.98491335  1  0.043612  0  -0.003324  0.032852  0  3.956486  0
C  C96  1  0.97479909  0.58397371  0.48801820  1  0.041404  0  -0.094522  -0.131211  0  4.034623  0
C  C97  1  0.02520598  0.41602765  0.51198180  1  0.04265  0  -0.094602  -0.131339  0  4.034572  0
C  C98  1  0.47484097  0.91602550  0.01198351  1  0.041474  0  -0.094443  -0.130989  0  4.034143  0
C  C99  1  0.52515356  0.08397456  0.98801728  1  0.04141  0  -0.094454  -0.131054  0  4.034249  0
C  C100  1  0.98475800  0.58115488  0.43420354  1  -0.087573  0  -0.095763  -0.13196  0  4.03909  0
C  C101  1  0.01524255  0.41884931  0.56579685  1  -0.087754  0  -0.095704  -0.131919  0  4.038924  0
C  C102  1  0.48480258  0.91884671  0.06579888  1  -0.087778  0  -0.095877  -0.132173  0  4.038952  0
C  C103  1  0.51518893  0.08115186  0.93420112  1  -0.087736  0  -0.095825  -0.132067  0  4.039079  0
C  C104  1  0.80811576  0.90498234  0.56380620  1  0.021628  0  -0.088785  -0.141366  0  3.97223  0
C  C105  1  0.19188931  0.09502017  0.43619931  1  0.022444  0  -0.088845  -0.141426  0  3.972305  0
C  C106  1  0.30809439  0.59501652  0.93619326  1  0.021294  0  -0.08875  -0.14132  0  3.972001  0
C  C107  1  0.69190164  0.40498020  0.06380675  1  0.022067  0  -0.088801  -0.141436  0  3.97212  0
C  C108  1  0.80126253  0.86729160  0.60480428  1  -0.092644  0  -0.085479  -0.090628  0  4.023022  0
C  C109  1  0.19874555  0.13271110  0.39520281  1  -0.092294  0  -0.08547  -0.090649  0  4.023201  0
C  C110  1  0.30124896  0.63270465  0.89519642  1  -0.092416  0  -0.085533  -0.090715  0  4.023357  0
C  C111  1  0.69874858  0.36729146  0.10480241  1  -0.093114  0  -0.085486  -0.09057  0  4.023294  0
C  C112  1  0.95840452  0.86711925  0.64172122  1  -0.017532  0  -0.015269  -0.107014  0  3.916008  0
C  C113  1  0.04160206  0.13288357  0.35828311  1  -0.016923  0  -0.015337  -0.10712  0  3.916276  0
C  C114  1  0.45838671  0.63287631  0.85827792  1  -0.017264  0  -0.015309  -0.107045  0  3.916261  0
C  C115  1  0.54160028  0.36712058  0.14171972  1  -0.017362  0  -0.015347  -0.107189  0  3.916085  0
C  C116  1  0.12546935  0.90768718  0.63870510  1  0.008824  0  0.004334  0.173783  0  3.938702  0
C  C117  1  0.87454024  0.09231804  0.36129607  1  0.007766  0  0.004359  0.173824  0  3.938712  0
C  C118  1  0.62545980  0.59230854  0.86129060  1  0.008598  0  0.004349  0.173844  0  3.938467  0
C  C119  1  0.37453623  0.40768933  0.13870744  1  0.008486  0  0.004402  0.173889  0  3.938696  0
C  C120  1  0.12901882  0.94580354  0.59758205  1  -0.036925  0  -0.086611  -0.195723  0  3.902722  0
C  C121  1  0.87098776  0.05420239  0.40242109  1  -0.036805  0  -0.086587  -0.195734  0  3.902416  0
C  C122  1  0.62900297  0.55419125  0.90241757  1  -0.036928  0  -0.086591  -0.195925  0  3.902492  0
C  C123  1  0.37099005  0.44580630  0.09758165  1  -0.036969  0  -0.086632  -0.195815  0  3.902684  0
C  C124  1  0.97486939  0.94478117  0.55942714  1  0.068003  0  -0.00155  0.148622  0  4.143532  0
C  C125  1  0.02513267  0.05522048  0.44057522  1  0.067864  0  -0.001405  0.148802  0  4.143662  0
C  C126  1  0.47485557  0.55521782  0.94057384  1  0.068316  0  -0.00155  0.148761  0  4.143686  0
C  C127  1  0.52513896  0.44477961  0.05942814  1  0.068061  0  -0.00144  0.148884  0  4.143485  0
C  C128  1  0.99031274  0.98330151  0.51782412  1  -0.015637  0  -0.047018  -0.110434  0  4.118591  0
C  C129  1  0.00968179  0.01670254  0.48217508  1  -0.352445  0  -0.047081  -0.110323  0  4.118877  0
C  C130  1  0.49030312  0.51670240  0.98217200  1  -0.015995  0  -0.047007  -0.110373  0  4.118345  0
C  C131  1  0.50968990  0.48329525  0.01782801  1  -0.352084  0  -0.047127  -0.110601  0  4.11827  0
C  C132  1  0.99543528  0.57881012  0.31840004  1  -0.08552  0  -0.234281  -0.407518  0  3.992412  0
C  C133  1  0.00455925  0.42119322  0.68159720  1  -0.085604  0  -0.234294  -0.407486  0  3.992266  0
C  C134  1  0.49543935  0.92119243  0.18159914  1  -0.085637  0  -0.234333  -0.407583  0  3.992175  0
C  C135  1  0.50455969  0.07880661  0.81840086  1  -0.085275  0  -0.234299  -0.407485  0  3.992058  0
C  C136  1  0.29423991  0.91331829  0.67833037  1  -0.08678  0  -0.240365  -0.420834  0  3.960885  0
C  C137  1  0.70576365  0.08668585  0.32166962  1  -0.086971  0  -0.240398  -0.420878  0  3.960919  0
C  C138  1  0.79423848  0.58667078  0.82166093  1  -0.087292  0  -0.240454  -0.421073  0  3.961126  0
C  C139  1  0.20575605  0.41332159  0.17833396  1  -0.086603  0  -0.240454  -0.421143  0  3.960913  0
O  O140  1  0.61371699  0.82408402  0.79213723  1  -1.261073  0  -0.229571  -0.586967  0  2.325967  0
O  O141  1  0.38626398  0.17591595  0.20786278  1  -1.261061  0  -0.229689  -0.587178  0  2.325582  0
O  O142  1  0.11375135  0.67591335  0.70787157  1  -1.261036  0  -0.229564  -0.586959  0  2.325329  0
O  O143  1  0.88626879  0.32409006  0.29213000  1  -1.261002  0  -0.229578  -0.586944  0  2.325622  0
O  O144  1  0.27176884  0.69651323  0.80495812  1  -1.249654  0  -0.241092  -0.601171  0  2.340877  0
O  O145  1  0.72822569  0.30348825  0.19504661  1  -1.24995  0  -0.241126  -0.601182  0  2.341099  0
O  O146  1  0.77178705  0.80350182  0.69505498  1  -1.250307  0  -0.241069  -0.601072  0  2.341392  0
O  O147  1  0.22824966  0.19649895  0.30494778  1  -1.250469  0  -0.24105  -0.601211  0  2.340938  0
O  O148  1  0.27348445  0.82262646  0.79725915  1  -1.255565  0  -0.231711  -0.59036  0  2.306444  0
O  O149  1  0.72650857  0.17736850  0.20274915  1  -1.255611  0  -0.231417  -0.590157  0  2.306879  0
O  O150  1  0.77353037  0.67738043  0.70273305  1  -1.255188  0  -0.231501  -0.590057  0  2.307102  0
O  O151  1  0.22648826  0.32262059  0.29726419  1  -1.255358  0  -0.231625  -0.59023  0  2.306876  0
O  O152  1  0.11283212  0.80258325  0.69928285  1  -1.254182  0  -0.234748  -0.590125  0  2.389348  0
O  O153  1  0.88719254  0.19742182  0.30072464  1  -1.253992  0  -0.234726  -0.590201  0  2.389567  0
O  O154  1  0.61280431  0.69740303  0.80071139  1  -1.254518  0  -0.234529  -0.589904  0  2.39034  0
O  O155  1  0.38717365  0.30259332  0.19928941  1  -1.254231  0  -0.234501  -0.589944  0  2.390063  0
O  O156  1  0.43975696  0.74258949  0.71757907  1  -1.441676  0  -0.447696  -0.988043  0  2.19971  0
O  O157  1  0.56024510  0.25740901  0.28242409  1  -1.441692  0  -0.447692  -0.987921  0  2.199662  0
O  O158  1  0.93974976  0.75740928  0.78242296  1  -1.441631  0  -0.447694  -0.987922  0  2.199682  0
O  O159  1  0.06024778  0.24258871  0.21757981  1  -1.441661  0  -0.447678  -0.987986  0  2.199687  0
