# generated using pymatgen
data_CuH26C18(NO2)2
_symmetry_space_group_name_H-M   'P 1'
_cell_length_a   9.41459561
_cell_length_b   9.41453646
_cell_length_c   11.40412320
_cell_angle_alpha   73.32323575
_cell_angle_beta   73.32182176
_cell_angle_gamma   69.31173909
_symmetry_Int_Tables_number   1
_chemical_formula_structural   CuH26C18(NO2)2
_chemical_formula_sum   'Cu2 H52 C36 N4 O8'
_cell_volume   886.19810880
_cell_formula_units_Z   2
loop_
 _symmetry_equiv_pos_site_id
 _symmetry_equiv_pos_as_xyz
  1  'x, y, z'
loop_
 _atom_site_type_symbol
 _atom_site_label
 _atom_site_symmetry_multiplicity
 _atom_site_fract_x
 _atom_site_fract_y
 _atom_site_fract_z
 _atom_site_occupancy
 _atom_site_hle17_ddec_charge
 _atom_site_hle17_ddec_spin_density
 _atom_site_hle17_ddec_sum_bond_order
 _atom_site_hle17_magmom
 _atom_site_hse06_10hf_ddec_charge
 _atom_site_hse06_10hf_ddec_spin_density
 _atom_site_hse06_10hf_ddec_sum_bond_order
 _atom_site_hse06_10hf_magmom
 _atom_site_hse06_ddec_charge
 _atom_site_hse06_ddec_spin_density
 _atom_site_hse06_ddec_sum_bond_order
 _atom_site_hse06_magmom
 _atom_site_pbe_cm5_charge
 _atom_site_pbe_ddec_charge
 _atom_site_pbe_ddec_spin_density
 _atom_site_pbe_ddec_sum_bond_order
 _atom_site_pbe_magmom
Cu  Cu0  1  0.50000304  0.00000134  0.99999970  1  0.798641  0.672441  1.672786  0.462  0.767932  0.767044  2.045469  0.578  0.85892  0.84511  1.981919  0.66  0.703526  0.711539  0.713506  2.091602  0.527
Cu  Cu1  1  0.50000168  0.00000201  0.50000178  1  0.798549  -0.672388  1.672806  -0.462  0.767733  -0.767011  2.045621  -0.578  0.858828  -0.845081  1.981981  -0.66  0.703532  0.711396  -0.713438  2.091718  -0.527
H  H2  1  0.43558389  0.88252411  0.22745544  1  0.269029  -0.000746  0.930862  -0.001  0.263506  3.8e-05  0.983353  0.0  0.269527  -0.000177  0.981143  -0.001  0.29237  0.259178  0.000211  0.985166  0.0
H  H3  1  0.61747216  0.06441885  0.27254903  1  0.268995  0.000741  0.930894  0.001  0.263475  -3.7e-05  0.983383  0.0  0.269495  0.000177  0.981176  0.001  0.292392  0.259152  -0.000211  0.985193  0.0
H  H4  1  0.56442104  0.11747391  0.77254439  1  0.269082  -0.000743  0.930827  -0.001  0.263558  3.7e-05  0.983314  0.0  0.26958  -0.000177  0.981101  -0.001  0.2924  0.25923  0.000211  0.985129  0.0
H  H5  1  0.38253647  0.93557804  0.72745280  1  0.269  0.000742  0.930825  0.001  0.263504  -3.7e-05  0.983266  0.0  0.26952  0.000177  0.98107  0.001  0.292416  0.259179  -0.000211  0.985076  0.0
H  H6  1  0.24435474  0.83228355  0.08900100  1  0.066809  0.000327  0.921659  0.001  0.084795  0.000268  0.982394  0.0  0.084883  0.000187  0.982702  0.0  0.10252  0.084561  0.000322  0.982167  0.0
H  H7  1  0.66771823  0.25564489  0.41101310  1  0.066737  -0.000326  0.921664  -0.001  0.084713  -0.000269  0.982414  0.0  0.084803  -0.000187  0.982722  0.0  0.102507  0.084475  -0.000322  0.982187  0.0
H  H8  1  0.75564737  0.16772372  0.91099375  1  0.066797  0.000321  0.921748  0.001  0.084796  0.000268  0.982466  0.0  0.084883  0.000187  0.982778  0.0  0.10253  0.08456  0.000322  0.982242  0.0
H  H9  1  0.33228684  0.74436012  0.58898674  1  0.066787  -0.00033  0.921585  -0.001  0.084768  -0.000268  0.982338  0.0  0.084861  -0.000187  0.98264  0.0  0.102535  0.084529  -0.000322  0.982114  0.0
H  H10  1  0.42568801  0.70497906  0.12259606  1  0.066309  0.000318  0.952049  0.001  0.081549  0.000209  1.020639  0.001  0.081646  0.000125  1.020984  0.0  0.10414  0.081241  0.000271  1.020596  0.001
H  H11  1  0.79502184  0.07430150  0.37740704  1  0.066282  -0.000306  0.952011  -0.001  0.08154  -0.00021  1.020583  -0.001  0.081637  -0.000125  1.02093  0.0  0.10412  0.081233  -0.000271  1.020538  -0.001
H  H12  1  0.57431615  0.29502121  0.87739639  1  0.06634  0.000302  0.951981  0.001  0.081567  0.00021  1.020575  0.001  0.081699  0.000125  1.020881  0.0  0.104141  0.081264  0.000271  1.020523  0.001
H  H13  1  0.20498993  0.92570702  0.62258942  1  0.066215  -0.000317  0.952107  -0.001  0.081482  -0.00021  1.02069  -0.001  0.081558  -0.000125  1.02106  0.0  0.104122  0.08118  -0.000271  1.020643  -0.001
H  H14  1  0.20087989  0.62462789  0.27586182  1  0.06375  0.000832  0.972333  0.001  0.081439  0.000657  1.036803  0.001  0.080432  0.000456  1.040414  0.0  0.085068  0.0815  0.000748  1.035314  0.001
H  H15  1  0.87537064  0.29911104  0.22414738  1  0.063682  -0.000836  0.972441  -0.001  0.081406  -0.000658  1.036889  -0.001  0.080401  -0.000457  1.0405  0.0  0.08507  0.081462  -0.000748  1.035406  -0.001
H  H16  1  0.79912429  0.37537239  0.72413150  1  0.063745  0.000835  0.972287  0.001  0.081423  0.000657  1.03676  0.001  0.080412  0.000457  1.040368  0.0  0.085067  0.081484  0.000748  1.035276  0.001
H  H17  1  0.12462652  0.70090555  0.77585156  1  0.063781  -0.000826  0.972384  -0.001  0.081502  -0.000658  1.036827  -0.001  0.080496  -0.000457  1.040435  0.0  0.085078  0.081545  -0.000748  1.035362  -0.001
H  H18  1  0.31669209  0.67048265  0.34995907  1  0.072151  -0.000287  0.93036  0.0  0.092177  -9.9e-05  0.987366  0.0  0.093296  -7.6e-05  0.986988  0.0  0.089316  0.091267  -9.6e-05  0.987649  0.0
H  H19  1  0.82952458  0.18330320  0.15004972  1  0.072065  0.000274  0.930513  0.0  0.092143  9.9e-05  0.987492  0.0  0.093265  7.6e-05  0.987113  0.0  0.08928  0.091226  9.6e-05  0.987781  0.0
H  H20  1  0.68331022  0.32951646  0.65003587  1  0.072121  -0.000281  0.93033  0.0  0.09219  -9.8e-05  0.987281  0.0  0.093307  -7.7e-05  0.986896  0.0  0.089304  0.091275  -9.6e-05  0.987564  0.0
H  H21  1  0.17048095  0.81670760  0.84994683  1  0.072102  0.000294  0.930575  0.0  0.092165  9.8e-05  0.987544  0.0  0.093286  7.6e-05  0.987165  0.0  0.089314  0.091258  9.6e-05  0.987825  0.0
H  H22  1  0.03657040  0.79307104  0.43324970  1  0.064489  0.000542  0.94846  0.001  0.082146  0.000199  1.012144  0.0  0.082467  8.9e-05  1.012847  0.0  0.086478  0.081998  0.000312  1.011636  0.001
H  H23  1  0.70694519  0.46342530  0.06675918  1  0.064501  -0.000546  0.948422  -0.001  0.082086  -0.000198  1.012197  0.0  0.08241  -8.9e-05  1.012898  0.0  0.086464  0.081933  -0.000312  1.011692  -0.001
H  H24  1  0.96343490  0.20692926  0.56674509  1  0.064393  0.000544  0.948566  0.001  0.082049  0.000198  1.012267  0.0  0.08237  8.9e-05  1.012976  0.0  0.086442  0.081899  0.000312  1.011756  0.001
H  H25  1  0.29304516  0.53658424  0.93323876  1  0.064599  -0.000547  0.948388  -0.001  0.082159  -0.000198  1.012173  0.0  0.082483  -8.9e-05  1.012877  0.0  0.086506  0.082005  -0.000312  1.011666  -0.001
H  H26  1  0.00596546  0.88174170  0.28060878  1  0.06789  4.1e-05  0.930822  0.0  0.086454  9e-06  0.991428  0.0  0.087027  9e-06  0.992206  0.0  0.087944  0.085983  8e-06  0.990655  0.0
H  H27  1  0.61826788  0.49403365  0.21940037  1  0.067935  -4.9e-05  0.930789  0.0  0.086492  -8e-06  0.991367  0.0  0.087057  -9e-06  0.992157  0.0  0.087997  0.086028  -8e-06  0.990577  0.0
H  H28  1  0.99403575  0.11825741  0.71938643  1  0.067921  4.4e-05  0.930856  0.0  0.08645  9e-06  0.991506  0.0  0.087036  9e-06  0.992274  0.0  0.087945  0.085975  8e-06  0.990733  0.0
H  H29  1  0.38172764  0.50597363  0.78060125  1  0.067999  -5.1e-05  0.930923  0.0  0.086546  -8e-06  0.991493  0.0  0.087113  -9e-06  0.992286  0.0  0.088017  0.086087  -8e-06  0.990697  0.0
H  H30  1  0.21688407  0.94579212  0.40925196  1  0.072321  -0.000162  0.944782  0.0  0.089198  4.4e-05  1.010849  0.0  0.089438  4.7e-05  1.011149  0.0  0.091119  0.08866  1.9e-05  1.011073  0.0
H  H31  1  0.55422247  0.28311013  0.09075741  1  0.072217  0.000165  0.944786  0.0  0.089094  -4.5e-05  1.010865  0.0  0.089375  -4.7e-05  1.011115  0.0  0.091093  0.088554  -1.9e-05  1.011087  0.0
H  H32  1  0.78312408  0.05420239  0.59074356  1  0.072315  -0.000168  0.944882  0.0  0.089141  4.5e-05  1.01094  0.0  0.089408  4.8e-05  1.011202  0.0  0.09109  0.088604  1.9e-05  1.011161  0.0
H  H33  1  0.44577406  0.71689022  0.90924916  1  0.072306  0.000172  0.944759  0.0  0.089131  -4.4e-05  1.010871  0.0  0.089414  -4.8e-05  1.011123  0.0  0.091102  0.088592  -1.9e-05  1.01109  0.0
H  H34  1  0.03839274  0.07493038  0.37395777  1  0.06739  0.000871  0.949217  0.001  0.08878  0.000697  1.008249  0.001  0.088513  0.00049  1.010259  0.0  0.091097  0.088486  0.000833  1.007841  0.001
H  H35  1  0.42509379  0.46159852  0.12604481  1  0.067428  -0.000865  0.9493  -0.001  0.088824  -0.000698  1.008297  -0.001  0.088559  -0.00049  1.010306  0.0  0.091118  0.088529  -0.000833  1.007889  -0.001
H  H36  1  0.96161589  0.92506995  0.62603709  1  0.067386  0.000861  0.949249  0.001  0.088765  0.000698  1.008234  0.001  0.088493  0.00049  1.010246  0.0  0.091082  0.088456  0.000833  1.007845  0.001
H  H37  1  0.57489636  0.53839712  0.87396185  1  0.067496  -0.000865  0.949288  -0.001  0.088877  -0.000699  1.008286  -0.001  0.088611  -0.00049  1.0103  0.0  0.091173  0.088579  -0.000834  1.007882  -0.001
H  H38  1  0.14725054  0.08749472  0.14609428  1  0.061946  6.3e-05  0.926157  0.0  0.080607  5.3e-05  0.987068  0.0  0.080626  2.7e-05  0.987789  0.0  0.103371  0.080607  9.2e-05  0.986378  0.0
H  H39  1  0.41250102  0.35276021  0.35391300  1  0.062061  -6.1e-05  0.92607  0.0  0.080696  -5.3e-05  0.986991  0.0  0.080713  -2.7e-05  0.987716  0.0  0.103402  0.080697  -9.3e-05  0.986296  0.0
H  H40  1  0.85275801  0.91250210  0.85389969  1  0.061969  6.4e-05  0.926071  0.0  0.0806  5.3e-05  0.987026  0.0  0.080618  2.8e-05  0.987747  0.0  0.103343  0.080604  9.2e-05  0.986333  0.0
H  H41  1  0.58750607  0.64723091  0.64609588  1  0.062039  -4.8e-05  0.925949  0.0  0.080631  -5.4e-05  0.986949  0.0  0.080648  -2.8e-05  0.987671  0.0  0.103336  0.080633  -9.2e-05  0.986256  0.0
H  H42  1  0.26221796  0.14184372  0.21327476  1  0.052388  0.000324  0.960727  0.001  0.069989  0.000227  1.024273  0.001  0.069406  0.000133  1.024952  0.0  0.099674  0.070307  0.000318  1.023847  0.001
H  H43  1  0.35815833  0.23778749  0.28672814  1  0.052439  -0.000315  0.960685  -0.001  0.070013  -0.000227  1.024277  -0.001  0.069451  -0.000134  1.024925  0.0  0.099671  0.070305  -0.000318  1.023884  -0.001
H  H44  1  0.73778880  0.85815544  0.78672083  1  0.05235  0.000321  0.960735  0.001  0.069942  0.000227  1.024286  0.001  0.069373  0.000133  1.02495  0.0  0.099652  0.070239  0.000318  1.023889  0.001
H  H45  1  0.64184654  0.76220362  0.71328041  1  0.052432  -0.000308  0.960657  -0.001  0.070011  -0.000227  1.024211  -0.001  0.06945  -0.000133  1.024859  0.0  0.099683  0.070307  -0.000318  1.023815  -0.001
H  H46  1  0.99676205  0.62460751  0.01746952  1  0.094226  -6.2e-05  0.961975  0.0  0.10582  -1.4e-05  1.024374  0.0  0.108305  -7e-06  1.023871  0.0  0.104023  0.104031  -3.8e-05  1.024748  0.0
H  H47  1  0.87542751  0.50321071  0.48248623  1  0.09403  7e-05  0.96203  0.0  0.105523  1.4e-05  1.024531  0.0  0.108013  8e-06  1.024023  0.0  0.10395  0.103735  3.8e-05  1.024905  0.0
H  H48  1  0.00321549  0.37538915  0.98253120  1  0.094209  -6.7e-05  0.962033  0.0  0.105781  -1.3e-05  1.024455  0.0  0.108276  -7e-06  1.023943  0.0  0.104028  0.103993  -3.8e-05  1.024829  0.0
H  H49  1  0.12457912  0.49677804  0.51751808  1  0.093984  7.4e-05  0.962134  0.0  0.105499  1.3e-05  1.024602  0.0  0.107989  7e-06  1.024096  0.0  0.103934  0.103711  3.8e-05  1.024977  0.0
H  H50  1  0.16931698  0.39446691  0.13228338  1  0.091189  4.3e-05  0.965624  0.0  0.10051  4.8e-05  1.03194  0.0  0.103783  3.1e-05  1.029894  0.0  0.101513  0.098108  6.3e-05  1.033783  0.0
H  H51  1  0.10554497  0.33067120  0.36764597  1  0.090953  -4e-05  0.965965  0.0  0.100398  -4.9e-05  1.032154  0.0  0.103664  -3.1e-05  1.030114  0.0  0.101443  0.097998  -6.2e-05  1.033995  0.0
H  H52  1  0.83066750  0.60552858  0.86771067  1  0.091132  4e-05  0.965672  0.0  0.100479  4.8e-05  1.031976  0.0  0.103751  3.1e-05  1.029931  0.0  0.10152  0.098075  6.3e-05  1.033821  0.0
H  H53  1  0.89445165  0.66932088  0.63234857  1  0.090927  -5.1e-05  0.966025  0.0  0.100416  -4.8e-05  1.032161  0.0  0.103686  -3.1e-05  1.03012  0.0  0.101444  0.098015  -6.2e-05  1.034003  0.0
C  C54  1  0.31896153  0.79043153  0.15799416  1  0.020582  -0.000502  3.619029  -0.002  -0.039097  0.000713  3.89138  -0.001  -0.033587  -8.4e-05  3.903948  -0.002  -0.077833  -0.042633  0.001304  3.883051  0.0
C  C55  1  0.70957397  0.18104319  0.34201134  1  0.02053  0.000465  3.619058  0.002  -0.039161  -0.00071  3.891451  0.001  -0.033656  8.3e-05  3.90404  0.002  -0.077813  -0.04269  -0.001307  3.883122  0.0
C  C56  1  0.68104191  0.20956760  0.84200138  1  0.020462  -0.000457  3.619166  -0.002  -0.039235  0.000711  3.891546  -0.001  -0.033754  -8.3e-05  3.904102  -0.002  -0.077936  -0.04277  0.001304  3.883216  0.0
C  C57  1  0.29043006  0.81896530  0.65798790  1  0.020701  0.000503  3.618998  0.002  -0.038992  -0.000711  3.891394  0.001  -0.033479  8.7e-05  3.903985  0.002  -0.077813  -0.042527  -0.001307  3.883059  0.0
C  C58  1  0.23517659  0.71999527  0.28580609  1  -0.136037  0.006822  3.676314  0.007  -0.174136  0.00408  3.930549  0.004  -0.175925  0.002932  3.945235  0.003  -0.170619  -0.172427  0.004862  3.920375  0.005
C  C59  1  0.78000822  0.26481727  0.21420006  1  -0.13587  -0.006776  3.676424  -0.007  -0.17409  -0.004081  3.930685  -0.004  -0.175888  -0.00293  3.945392  -0.003  -0.170631  -0.17238  -0.004863  3.920513  -0.005
C  C60  1  0.76482427  0.28000500  0.71418893  1  -0.136007  0.0068  3.67621  0.007  -0.174105  0.004082  3.930424  0.004  -0.175873  0.002929  3.945103  0.003  -0.170596  -0.172395  0.004861  3.920242  0.005
C  C61  1  0.21999030  0.73519465  0.78579618  1  -0.136141  -0.00685  3.676667  -0.007  -0.174359  -0.004078  3.93097  -0.004  -0.176142  -0.002932  3.945654  -0.003  -0.170691  -0.172649  -0.004863  3.920816  -0.005
C  C62  1  0.09299867  0.84275331  0.33941936  1  -0.106074  -0.000759  3.683068  -0.001  -0.143858  -0.000248  3.941956  0.0  -0.144343  -0.000232  3.95622  0.0  -0.169937  -0.143252  -0.000214  3.931587  0.0
C  C63  1  0.65725453  0.40699944  0.16058916  1  -0.106021  0.000768  3.68269  0.001  -0.143708  0.000244  3.941447  0.0  -0.144198  0.000231  3.955738  0.0  -0.169891  -0.143103  0.000214  3.931071  0.0
C  C64  1  0.90700594  0.15724932  0.66057591  1  -0.105856  -0.000772  3.683126  -0.001  -0.143693  -0.000247  3.942001  0.0  -0.144211  -0.000231  3.956284  0.0  -0.169813  -0.14307  -0.000214  3.931611  0.0
C  C65  1  0.34273870  0.59300434  0.83941300  1  -0.106171  0.000795  3.682833  0.001  -0.143809  0.000243  3.941548  0.0  -0.144308  0.000233  3.955837  0.0  -0.169936  -0.143202  0.000214  3.931169  0.0
C  C66  1  0.14002435  0.98120307  0.34259651  1  -0.13598  0.006736  3.672595  0.007  -0.176825  0.004148  3.929288  0.004  -0.178453  0.003048  3.944311  0.003  -0.168452  -0.17551  0.004922  3.919381  0.005
C  C67  1  0.51881257  0.35997563  0.15741059  1  -0.135921  -0.006747  3.672503  -0.007  -0.176719  -0.004144  3.929052  -0.004  -0.178365  -0.003049  3.944076  -0.003  -0.168433  -0.175402  -0.004923  3.91914  -0.005
C  C68  1  0.85998460  0.01879607  0.65739592  1  -0.136031  0.00677  3.672714  0.007  -0.176691  0.004143  3.929127  0.004  -0.178315  0.003047  3.944128  0.003  -0.168383  -0.175373  0.004922  3.91923  0.005
C  C69  1  0.48118467  0.64002240  0.84259726  1  -0.136053  -0.00676  3.672528  -0.007  -0.176816  -0.004146  3.929108  -0.004  -0.178468  -0.003048  3.94413  -0.003  -0.168511  -0.175503  -0.004924  3.919214  -0.005
C  C70  1  0.22460225  0.04441179  0.21289045  1  0.038172  5e-06  3.630587  -0.002  -0.018769  0.001092  3.898072  -0.001  -0.013458  0.000307  3.912747  -0.001  -0.076054  -0.021936  0.001828  3.887909  0.0
C  C71  1  0.45558666  0.27541108  0.28711254  1  0.037904  -2.4e-05  3.630503  0.002  -0.01905  -0.00109  3.898016  0.001  -0.013754  -0.000308  3.912708  0.001  -0.076115  -0.022206  -0.001831  3.887879  0.0
C  C72  1  0.77540596  0.95558620  0.78710420  1  0.038173  4e-06  3.630461  -0.002  -0.018772  0.001095  3.897871  -0.001  -0.013478  0.000307  3.912548  -0.001  -0.076088  -0.021935  0.001829  3.887731  0.0
C  C73  1  0.54441896  0.72458119  0.71289466  1  0.03799  -6.9e-05  3.630227  0.002  -0.018895  -0.001091  3.897707  0.001  -0.013601  -0.000309  3.912394  0.001  -0.076057  -0.02206  -0.001832  3.887574  0.0
C  C74  1  0.73305675  0.83170292  0.11639565  1  0.633005  -0.004026  3.927739  -0.007  0.586551  -0.000609  4.229585  -0.003  0.62296  -0.001098  4.220984  -0.003  0.200712  0.561924  -0.000193  4.23457  -0.003
C  C75  1  0.66828277  0.76692047  0.38360224  1  0.633057  0.003997  3.927358  0.007  0.586512  0.00061  4.229358  0.003  0.622938  0.001091  4.220732  0.003  0.200687  0.561899  0.000186  4.234339  0.003
C  C76  1  0.26693355  0.16829972  0.88361189  1  0.633123  -0.00401  3.927697  -0.007  0.586583  -0.000611  4.229672  -0.003  0.623007  -0.001097  4.221037  -0.003  0.200708  0.561956  -0.000193  4.234658  -0.003
C  C77  1  0.33170707  0.23307980  0.61640073  1  0.633286  0.004031  3.927335  0.007  0.586762  0.000608  4.229301  0.003  0.623186  0.001093  4.220667  0.003  0.20082  0.562146  0.000187  4.23429  0.003
C  C78  1  0.83988045  0.69307442  0.18421726  1  -0.052935  0.006155  3.721366  0.007  -0.036218  0.003728  3.945978  0.004  -0.040291  0.002799  3.96455  0.003  -0.006455  -0.033432  0.004146  3.932837  0.005
C  C79  1  0.80692302  0.66011796  0.31576829  1  -0.052827  -0.006133  3.721347  -0.006  -0.036073  -0.003731  3.945938  -0.004  -0.040149  -0.002799  3.964508  -0.003  -0.006407  -0.033303  -0.004147  3.932803  -0.005
C  C80  1  0.16011012  0.30692356  0.81578960  1  -0.052997  0.006107  3.721612  0.006  -0.036239  0.003731  3.946228  0.004  -0.040315  0.002795  3.964791  0.003  -0.00643  -0.033453  0.004146  3.933088  0.005
C  C81  1  0.19306898  0.33987885  0.68423675  1  -0.052783  -0.006109  3.721431  -0.006  -0.036049  -0.003732  3.946026  -0.004  -0.040117  -0.002798  3.96458  -0.003  -0.006411  -0.033281  -0.004147  3.932893  -0.005
C  C82  1  0.97088542  0.59733760  0.11944151  1  -0.080572  0.000457  3.73227  0.0  -0.101716  0.0003  3.976334  0.0  -0.10241  0.000125  3.995717  0.0  -0.085218  -0.101203  0.000113  3.963185  0.0
C  C83  1  0.90268096  0.52911378  0.38052231  1  -0.080414  -0.000487  3.731919  0.0  -0.101491  -0.000299  3.976046  0.0  -0.102178  -0.000126  3.995402  0.0  -0.08513  -0.100982  -0.000113  3.962912  0.0
C  C84  1  0.02910467  0.40265798  0.88055903  1  -0.080646  0.000492  3.732343  0.0  -0.101785  0.000298  3.976442  0.0  -0.102486  0.000126  3.995822  0.0  -0.085282  -0.101271  0.000113  3.963291  0.0
C  C85  1  0.09731659  0.47088306  0.61948224  1  -0.080391  -0.00053  3.732081  0.0  -0.101474  -0.000297  3.976198  0.0  -0.102165  -0.000127  3.995555  0.0  -0.085148  -0.100964  -0.000113  3.963064  0.0
C  C86  1  0.06762669  0.46791842  0.18452870  1  -0.081124  -0.00034  3.778811  0.0  -0.098165  -8.6e-05  4.037232  0.0  -0.098775  3e-06  4.055721  0.0  -0.09249  -0.097862  -0.000626  4.026148  -0.001
C  C87  1  0.03209034  0.43237174  0.31541912  1  -0.080845  0.000338  3.778593  0.0  -0.097958  8.5e-05  4.036901  0.0  -0.098567  -2e-06  4.055396  0.0  -0.092539  -0.097661  0.000626  4.025817  0.001
C  C88  1  0.93235928  0.53207594  0.81546877  1  -0.080963  -0.000345  3.778529  0.0  -0.098019  -8.4e-05  4.036908  0.0  -0.098628  3e-06  4.0554  0.0  -0.092455  -0.097714  -0.000626  4.025818  -0.001
C  C89  1  0.96790085  0.56762384  0.68458028  1  -0.080876  0.000391  3.778698  0.0  -0.09804  8.3e-05  4.037013  0.0  -0.098652  -1e-06  4.055508  0.0  -0.092509  -0.097743  0.000625  4.025927  0.001
N  N90  1  0.36324587  0.92441467  0.16399707  1  -0.393566  0.093201  3.222153  0.112  -0.345241  0.06263  3.497737  0.08  -0.376946  0.05234  3.514904  0.071  -0.500906  -0.325609  0.067468  3.487659  0.083
N  N91  1  0.57559198  0.13676968  0.33599677  1  -0.393326  -0.093225  3.222027  -0.112  -0.344949  -0.062658  3.497481  -0.08  -0.376682  -0.05236  3.514688  -0.071  -0.500893  -0.325313  -0.067497  3.487401  -0.083
N  N92  1  0.63676120  0.07557986  0.83600221  1  -0.393587  0.093178  3.222125  0.112  -0.345231  0.06263  3.497611  0.08  -0.376944  0.052337  3.514798  0.071  -0.500872  -0.325595  0.067465  3.487532  0.083
N  N93  1  0.42441846  0.86322491  0.66400606  1  -0.39342  -0.093217  3.221938  -0.112  -0.345095  -0.062658  3.497518  -0.08  -0.376818  -0.052359  3.514696  -0.071  -0.500941  -0.325442  -0.067496  3.487411  -0.083
O  O94  1  0.66864306  0.80309031  0.04357413  1  -0.590055  0.086659  2.027065  0.11  -0.555896  0.061844  2.305488  0.085  -0.59568  0.05086  2.298028  0.074  -0.321296  -0.529465  0.067616  2.310798  0.09
O  O95  1  0.69688659  0.83135678  0.45641109  1  -0.590105  -0.086636  2.027011  -0.11  -0.555838  -0.061835  2.305286  -0.085  -0.595646  -0.050854  2.297812  -0.074  -0.321255  -0.529407  -0.067607  2.3106  -0.09
O  O96  1  0.33136088  0.19691466  0.95642337  1  -0.590161  0.086656  2.027018  0.11  -0.55596  0.061838  2.305435  0.085  -0.595768  0.05086  2.298002  0.074  -0.321329  -0.529532  0.067612  2.310751  0.09
O  O97  1  0.30311652  0.16864010  0.54359384  1  -0.590252  -0.086621  2.027286  -0.11  -0.555946  -0.061817  2.305555  -0.085  -0.595742  -0.05084  2.298052  -0.074  -0.32133  -0.529519  -0.067588  2.310874  -0.09
O  O98  1  0.70801588  0.96488505  0.13476233  1  -0.624647  -0.000341  1.946953  0.001  -0.587646  -7.3e-05  2.18292  0.001  -0.611993  -0.000812  2.171979  0.0  -0.321832  -0.570384  0.00048  2.189817  0.002
O  O99  1  0.53510504  0.79191377  0.36525388  1  -0.624693  0.000348  1.946697  -0.001  -0.587635  7.3e-05  2.182667  -0.001  -0.611995  0.000814  2.17173  0.0  -0.32185  -0.570355  -0.000481  2.189532  -0.002
O  O100  1  0.29197107  0.03511413  0.86525126  1  -0.624635  -0.000349  1.946775  0.001  -0.587632  -7.4e-05  2.182813  0.001  -0.611979  -0.000812  2.171867  0.0  -0.321827  -0.570366  0.00048  2.189702  0.002
O  O101  1  0.46489119  0.20809121  0.63474989  1  -0.624831  0.000332  1.946561  -0.001  -0.587803  7.3e-05  2.182552  -0.001  -0.612166  0.000812  2.171612  0.0  -0.321922  -0.570514  -0.000482  2.189403  -0.002
