# generated using pymatgen
data_DyCuH16C16(NO)8
_symmetry_space_group_name_H-M   'P 1'
_cell_length_a   9.24494465
_cell_length_b   10.86871381
_cell_length_c   10.86872974
_cell_angle_alpha   87.81782733
_cell_angle_beta   72.51915365
_cell_angle_gamma   72.51927177
_symmetry_Int_Tables_number   1
_chemical_formula_structural   DyCuH16C16(NO)8
_chemical_formula_sum   'Dy2 Cu2 H32 C32 N16 O16'
_cell_volume   991.92131297
_cell_formula_units_Z   2
loop_
 _symmetry_equiv_pos_site_id
 _symmetry_equiv_pos_as_xyz
  1  'x, y, z'
loop_
 _atom_site_type_symbol
 _atom_site_label
 _atom_site_symmetry_multiplicity
 _atom_site_fract_x
 _atom_site_fract_y
 _atom_site_fract_z
 _atom_site_occupancy
 _atom_site_pbe_bader_spin_density
 _atom_site_pbe_cm5_charge
 _atom_site_pbe_ddec_charge
 _atom_site_pbe_ddec_spin_density
 _atom_site_pbe_ddec_sum_bond_order
 _atom_site_pbe_magmom
Dy  Dy0  1  0.24999980  0.96738272  0.03261691  1  0  1.490855  2.156981  0  2.063442  0
Dy  Dy1  1  0.75000105  0.03261608  0.96738239  1  0  1.490851  2.156985  0  2.06343  0
Cu  Cu2  1  0.99999852  0.00000097  0.49999961  1  0  0.573722  0.350234  0  1.988341  0
Cu  Cu3  1  0.50000007  0.49999945  0.99999973  1  0  0.573726  0.35024  0  1.988328  0
H  H4  1  0.35436119  0.32262866  0.38523681  1  0  0.103562  0.096569  0  1.030674  0
H  H5  1  0.14563973  0.61475968  0.67737140  1  0  0.103565  0.09655  0  1.030588  0
H  H6  1  0.64563592  0.67737398  0.61476235  1  0  0.103546  0.0965  0  1.03067  0
H  H7  1  0.85435960  0.38523717  0.32262838  1  0  0.103567  0.096557  0  1.030679  0
H  H8  1  0.06391387  0.36056489  0.44770086  1  0  0.098609  0.098291  0  1.019146  0
H  H9  1  0.43608589  0.55229920  0.63943549  1  0  0.098622  0.098312  0  1.019169  0
H  H10  1  0.93608358  0.63943389  0.55229931  1  0  0.098605  0.098295  0  1.019133  0
H  H11  1  0.56391421  0.44769865  0.36056589  1  0  0.098606  0.098289  0  1.019138  0
H  H12  1  0.93248463  0.25110576  0.63733289  1  0  0.104095  0.109057  0  1.012659  0
H  H13  1  0.56751721  0.36266946  0.74889508  1  0  0.104095  0.109037  0  1.012702  0
H  H14  1  0.06751509  0.74889305  0.36266854  1  0  0.104082  0.109018  0  1.012677  0
H  H15  1  0.43248178  0.63733130  0.25110828  1  0  0.104094  0.109026  0  1.012715  0
H  H16  1  0.38449855  0.06912970  0.69816404  1  0  0.113994  0.120998  0  1.00826  0
H  H17  1  0.11550470  0.30183334  0.93087045  1  0  0.113969  0.120964  0  1.008234  0
H  H18  1  0.61550310  0.93087298  0.30183578  1  0  0.113962  0.12095  0  1.008303  0
H  H19  1  0.88449502  0.69816547  0.06913097  1  0  0.113971  0.120957  0  1.008262  0
H  H20  1  0.38729842  0.07116567  0.20862233  1  0  0.293775  0.394333  0  0.944625  0
H  H21  1  0.11270238  0.79137672  0.92883342  1  0  0.293813  0.39447  0  0.944439  0
H  H22  1  0.61270207  0.92883410  0.79137701  1  0  0.293812  0.394448  0  0.94447  0
H  H23  1  0.88729960  0.20862208  0.07116466  1  0  0.293751  0.394307  0  0.944666  0
H  H24  1  0.31316305  0.97176608  0.29250829  1  0  0.289589  0.359709  0  0.994222  0
H  H25  1  0.18683626  0.70749188  0.02823385  1  0  0.289592  0.359729  0  0.994199  0
H  H26  1  0.68683594  0.02823466  0.70749232  1  0  0.28959  0.359722  0  0.994205  0
H  H27  1  0.81316459  0.29250692  0.97176544  1  0  0.289595  0.359728  0  0.994198  0
H  H28  1  0.08231655  0.23579840  0.16294208  1  0  0.295847  0.360279  0  0.992484  0
H  H29  1  0.41768249  0.83705682  0.76420169  1  0  0.295848  0.360285  0  0.992461  0
H  H30  1  0.91768316  0.76420038  0.83705659  1  0  0.295839  0.360259  0  0.992501  0
H  H31  1  0.58231799  0.16294294  0.23579673  1  0  0.295821  0.360266  0  0.992504  0
H  H32  1  0.96471128  0.15443306  0.22510647  1  0  0.298442  0.347531  0  1.012873  0
H  H33  1  0.53528871  0.77489292  0.84556704  1  0  0.298427  0.347507  0  1.012908  0
H  H34  1  0.03528957  0.84556574  0.77489283  1  0  0.298433  0.347502  0  1.012917  0
H  H35  1  0.46471214  0.22510588  0.15443225  1  0  0.298449  0.347552  0  1.012848  0
C  C36  1  0.56269654  0.16550992  0.49257718  1  0  0.220621  0.234279  0  4.051123  0
C  C37  1  0.93730338  0.50742209  0.83449017  1  0  0.220625  0.234307  0  4.05113  0
C  C38  1  0.43730285  0.83449276  0.50742415  1  0  0.220597  0.234299  0  4.051159  0
C  C39  1  0.06269674  0.49257864  0.16550922  1  0  0.220613  0.234264  0  4.051166  0
C  C40  1  0.39005584  0.19167043  0.53583918  1  0  -0.00529  0.02179  0  4.009396  0
C  C41  1  0.10994626  0.46415977  0.80832944  1  0  -0.005264  0.021781  0  4.009396  0
C  C42  1  0.60994544  0.80833323  0.46416161  1  0  -0.005246  0.021788  0  4.009311  0
C  C43  1  0.89005495  0.53583804  0.19166797  1  0  -0.005271  0.021795  0  4.009414  0
C  C44  1  0.29740175  0.27514589  0.46727866  1  0  -0.07922  -0.090813  0  3.929815  0
C  C45  1  0.20260063  0.53272010  0.72485516  1  0  -0.079204  -0.090769  0  3.929801  0
C  C46  1  0.70259687  0.72485581  0.53272108  1  0  -0.079186  -0.090654  0  3.929648  0
C  C47  1  0.79740022  0.46727871  0.27514506  1  0  -0.079219  -0.090795  0  3.929831  0
C  C48  1  0.13360636  0.29689378  0.50290717  1  0  -0.091587  -0.074819  0  4.013308  0
C  C49  1  0.36639458  0.49709444  0.70310728  1  0  -0.091641  -0.074877  0  4.013378  0
C  C50  1  0.86639149  0.70310695  0.49709373  1  0  -0.091594  -0.074876  0  4.013226  0
C  C51  1  0.63360404  0.50290726  0.29689337  1  0  -0.091661  -0.074893  0  4.013348  0
C  C52  1  0.06042209  0.23547417  0.60703731  1  0  -0.088849  -0.110452  0  4.008074  0
C  C53  1  0.43958023  0.39296511  0.76452824  1  0  -0.088864  -0.110456  0  4.008053  0
C  C54  1  0.93957840  0.76452562  0.39296387  1  0  -0.08884  -0.110416  0  4.00798  0
C  C55  1  0.56041839  0.60703662  0.23547609  1  0  -0.08881  -0.110401  0  4.00813  0
C  C56  1  0.15119207  0.15383094  0.67782113  1  0  -0.022059  -0.052495  0  3.987483  0
C  C57  1  0.34881083  0.32218016  0.84617058  1  0  -0.022041  -0.052451  0  3.987388  0
C  C58  1  0.84880881  0.84617079  0.32217986  1  0  -0.022047  -0.052472  0  3.987431  0
C  C59  1  0.65118816  0.67782060  0.15383279  1  0  -0.022059  -0.052403  0  3.987411  0
C  C60  1  0.31530544  0.13253981  0.64260151  1  0  -0.072364  -0.104264  0  3.896692  0
C  C61  1  0.18469699  0.35739798  0.86746169  1  0  -0.072337  -0.104201  0  3.896555  0
C  C62  1  0.68469507  0.86746287  0.35739861  1  0  -0.072384  -0.104254  0  3.896598  0
C  C63  1  0.81530236  0.64260180  0.13253979  1  0  -0.072354  -0.104231  0  3.896546  0
C  C64  1  0.06878459  0.08887705  0.78848708  1  0  0.225103  0.631398  0  4.191964  0
C  C65  1  0.43121702  0.21151225  0.91112333  1  0  0.225125  0.631417  0  4.191913  0
C  C66  1  0.93121702  0.91112272  0.21151197  1  0  0.225126  0.631422  0  4.191911  0
C  C67  1  0.56878383  0.78848656  0.08887780  1  0  0.225098  0.63134  0  4.191989  0
N  N68  1  0.66395169  0.11034227  0.56016140  1  0  -0.200202  -0.240983  0  3.21012  0
N  N69  1  0.83604858  0.43983786  0.88965718  1  0  -0.200233  -0.241046  0  3.210144  0
N  N70  1  0.33604920  0.88965945  0.43983958  1  0  -0.200171  -0.24101  0  3.210134  0
N  N71  1  0.16395154  0.56016288  0.11034222  1  0  -0.200212  -0.241036  0  3.210155  0
N  N72  1  0.80846189  0.10275871  0.47892369  1  0  -0.174878  -0.033363  0  3.728732  0
N  N73  1  0.69153909  0.52107485  0.89724104  1  0  -0.174798  -0.03323  0  3.728646  0
N  N74  1  0.19153859  0.89724105  0.52107565  1  0  -0.174809  -0.033263  0  3.728626  0
N  N75  1  0.30846140  0.47892491  0.10275739  1  0  -0.174869  -0.033313  0  3.728706  0
N  N76  1  0.79678537  0.15250629  0.36733227  1  0  -0.079619  -0.047669  0  3.294952  0
N  N77  1  0.70321320  0.63266637  0.84749451  1  0  -0.07966  -0.047725  0  3.294984  0
N  N78  1  0.20321398  0.84749346  0.63266645  1  0  -0.079576  -0.047538  0  3.295007  0
N  N79  1  0.29678502  0.36733338  0.15250542  1  0  -0.079597  -0.047661  0  3.294971  0
N  N80  1  0.64388848  0.19151769  0.37321960  1  0  -0.198205  -0.248747  0  3.261786  0
N  N81  1  0.85611165  0.62677934  0.80847977  1  0  -0.198181  -0.248738  0  3.261763  0
N  N82  1  0.35611127  0.80848402  0.62678076  1  0  -0.198283  -0.24891  0  3.261998  0
N  N83  1  0.14388770  0.37322041  0.19151895  1  0  -0.198212  -0.24874  0  3.261805  0
O  O84  1  0.13766444  0.03815709  0.87152191  1  0  -0.410312  -0.698071  0  2.366061  0
O  O85  1  0.36233741  0.12847692  0.96184315  1  0  -0.410314  -0.698079  0  2.366002  0
O  O86  1  0.86233754  0.96184170  0.12847618  1  0  -0.410311  -0.698077  0  2.365988  0
O  O87  1  0.63766494  0.87152094  0.03815764  1  0  -0.410302  -0.698055  0  2.366049  0
O  O88  1  0.93018473  0.08761976  0.79267973  1  0  -0.399994  -0.657248  0  2.342293  0
O  O89  1  0.56981683  0.20731864  0.91237999  1  0  -0.400012  -0.657267  0  2.342316  0
O  O90  1  0.06981725  0.91237905  0.20732019  1  0  -0.400025  -0.657279  0  2.342309  0
O  O91  1  0.43018479  0.79268114  0.08761998  1  0  -0.399985  -0.657244  0  2.342354  0
O  O92  1  0.29988420  0.03172474  0.22260476  1  0  -0.649661  -0.853538  0  2.147836  0
O  O93  1  0.20011540  0.77739517  0.96827500  1  0  -0.64969  -0.853677  0  2.14765  0
O  O94  1  0.70011515  0.96827503  0.77739488  1  0  -0.649689  -0.853651  0  2.147658  0
O  O95  1  0.79988545  0.22260364  0.03172522  1  0  -0.64965  -0.853546  0  2.147826  0
O  O96  1  0.03685669  0.16986747  0.14085475  1  0  -0.603707  -0.81539  0  2.260056  0
O  O97  1  0.46314541  0.85914398  0.83013257  1  0  -0.603698  -0.81541  0  2.260099  0
O  O98  1  0.96314452  0.83013036  0.85914358  1  0  -0.603693  -0.815411  0  2.260158  0
O  O99  1  0.53685657  0.14085483  0.16986644  1  0  -0.603688  -0.815409  0  2.260088  0
