# generated using pymatgen
data_TbH5C6N2O7
_symmetry_space_group_name_H-M   'P 1'
_cell_length_a   9.70412497
_cell_length_b   9.70415134
_cell_length_c   9.70412935
_cell_angle_alpha   79.56879192
_cell_angle_beta   79.56887432
_cell_angle_gamma   79.56831257
_symmetry_Int_Tables_number   1
_chemical_formula_structural   TbH5C6N2O7
_chemical_formula_sum   'Tb3 H15 C18 N6 O21'
_cell_volume   873.43561144
_cell_formula_units_Z   3
loop_
 _symmetry_equiv_pos_site_id
 _symmetry_equiv_pos_as_xyz
  1  'x, y, z'
loop_
 _atom_site_type_symbol
 _atom_site_label
 _atom_site_symmetry_multiplicity
 _atom_site_fract_x
 _atom_site_fract_y
 _atom_site_fract_z
 _atom_site_occupancy
 _atom_site_pbe_bader_spin_density
 _atom_site_pbe_cm5_charge
 _atom_site_pbe_ddec_charge
 _atom_site_pbe_ddec_spin_density
 _atom_site_pbe_ddec_sum_bond_order
 _atom_site_pbe_magmom
Tb  Tb0  1  0.50000255  0.99089732  0.00910747  1  0  1.509064  2.00511  0  2.203668  0
Tb  Tb1  1  0.00910953  0.49999883  0.99090007  1  0  1.509089  2.005141  0  2.203654  0
Tb  Tb2  1  0.99089902  0.00910766  0.50000246  1  0  1.509064  2.005145  0  2.203647  0
H  H3  1  0.58749722  0.41251039  0.99999838  1  0  0.126421  0.164688  0  0.987284  0
H  H4  1  0.99999817  0.58749455  0.41251438  1  0  0.126421  0.164732  0  0.987296  0
H  H5  1  0.41251352  0.99999768  0.58749799  1  0  0.126396  0.16472  0  0.987246  0
H  H6  1  0.23430856  0.14512211  0.92509779  1  0  0.304664  0.405457  0  0.920455  0
H  H7  1  0.92509642  0.23430831  0.14512506  1  0  0.304681  0.405543  0  0.920342  0
H  H8  1  0.14512411  0.92509487  0.23430978  1  0  0.304664  0.405495  0  0.920401  0
H  H9  1  0.07490883  0.85487958  0.76569867  1  0  0.304702  0.405569  0  0.920302  0
H  H10  1  0.85488083  0.76569647  0.07490932  1  0  0.304689  0.405526  0  0.92036  0
H  H11  1  0.76569736  0.07490525  0.85488275  1  0  0.304673  0.405517  0  0.920379  0
H  H12  1  0.23270109  0.97614557  0.93667338  1  0  0.297192  0.392221  0  0.947784  0
H  H13  1  0.93667301  0.23269859  0.97614770  1  0  0.297193  0.392223  0  0.947784  0
H  H14  1  0.97614672  0.93667192  0.23269999  1  0  0.29719  0.392228  0  0.947785  0
H  H15  1  0.06333166  0.02385724  0.76730716  1  0  0.29722  0.392202  0  0.947826  0
H  H16  1  0.02385844  0.76730449  0.06333265  1  0  0.297206  0.392179  0  0.947863  0
H  H17  1  0.76730695  0.06333090  0.02385973  1  0  0.297232  0.392219  0  0.947802  0
C  C18  1  0.33039412  0.33424714  0.99846896  1  0  0.245127  0.612585  0  4.151836  0
C  C19  1  0.99846371  0.33039163  0.33424921  1  0  0.245167  0.612656  0  4.151688  0
C  C20  1  0.33424729  0.99846082  0.33039042  1  0  0.245212  0.612692  0  4.151513  0
C  C21  1  0.00154360  0.66575445  0.66961219  1  0  0.245096  0.612573  0  4.152007  0
C  C22  1  0.66575636  0.66961154  0.00153991  1  0  0.245094  0.612648  0  4.151849  0
C  C23  1  0.66961344  0.00153888  0.66575749  1  0  0.245085  0.6126  0  4.15169  0
C  C24  1  0.36128396  0.48060418  0.00134748  1  0  0.132882  0.173626  0  4.020591  0
C  C25  1  0.00134194  0.36128181  0.48060701  1  0  0.133006  0.173732  0  4.020418  0
C  C26  1  0.48060641  0.00134026  0.36128177  1  0  0.133046  0.173753  0  4.020389  0
C  C27  1  0.99866136  0.51940033  0.63872153  1  0  0.133147  0.173926  0  4.020319  0
C  C28  1  0.51940303  0.63872001  0.99865989  1  0  0.133122  0.173795  0  4.020596  0
C  C29  1  0.63872045  0.99866000  0.51940139  1  0  0.133101  0.173912  0  4.020365  0
C  C30  1  0.50000894  0.49999702  0.00000257  1  0  -0.085797  -0.231208  0  3.903485  0
C  C31  1  0.00000028  0.50000664  0.49999937  1  0  -0.085886  -0.231439  0  3.903304  0
C  C32  1  0.49999851  0.99999835  0.50000794  1  0  -0.085876  -0.231464  0  3.90339  0
C  C33  1  0.27811777  0.72188705  0.00000257  1  0  0.341873  0.664107  0  4.053368  0
C  C34  1  0.00000359  0.27811652  0.72188656  1  0  0.341998  0.664293  0  4.05306  0
C  C35  1  0.72188727  0.00000463  0.27811733  1  0  0.342024  0.664318  0  4.052921  0
N  N36  1  0.25166143  0.58654080  0.00000015  1  0  -0.363567  -0.499604  0  3.303068  0
N  N37  1  0.99999939  0.25166035  0.58654257  1  0  -0.363638  -0.499682  0  3.303115  0
N  N38  1  0.58654359  0.99999970  0.25165985  1  0  -0.363603  -0.499647  0  3.303097  0
N  N39  1  0.00000702  0.41346394  0.74834359  1  0  -0.363573  -0.499615  0  3.302962  0
N  N40  1  0.41346563  0.74834180  0.00000714  1  0  -0.363501  -0.499506  0  3.303146  0
N  N41  1  0.74834367  0.00000916  0.41346538  1  0  -0.363553  -0.499646  0  3.302972  0
O  O42  1  0.42576499  0.23130798  0.02626414  1  0  -0.377803  -0.610037  0  2.28776  0
O  O43  1  0.02625470  0.42576638  0.23131422  1  0  -0.377789  -0.610017  0  2.287755  0
O  O44  1  0.23131119  0.02625281  0.42576171  1  0  -0.377821  -0.610018  0  2.287748  0
O  O45  1  0.97375327  0.76869211  0.57424114  1  0  -0.377747  -0.610003  0  2.287876  0
O  O46  1  0.76869442  0.57423848  0.97375067  1  0  -0.377755  -0.610031  0  2.287673  0
O  O47  1  0.57424294  0.97374776  0.76869483  1  0  -0.377759  -0.609996  0  2.287714  0
O  O48  1  0.21093443  0.32599633  0.96513791  1  0  -0.375331  -0.647838  0  2.324016  0
O  O49  1  0.96513877  0.21093087  0.32599589  1  0  -0.375342  -0.647886  0  2.323897  0
O  O50  1  0.32599430  0.96513277  0.21092718  1  0  -0.375362  -0.647911  0  2.323763  0
O  O51  1  0.03487157  0.67400564  0.78907270  1  0  -0.375323  -0.647859  0  2.323949  0
O  O52  1  0.67400762  0.78906922  0.03487114  1  0  -0.375329  -0.647886  0  2.324008  0
O  O53  1  0.78907338  0.03486644  0.67401056  1  0  -0.375315  -0.647884  0  2.323954  0
O  O54  1  0.17549708  0.82450774  0.00000350  1  0  -0.29087  -0.541775  0  2.186953  0
O  O55  1  0.00000427  0.17549522  0.82450882  1  0  -0.290938  -0.541863  0  2.186884  0
O  O56  1  0.82450961  0.00001054  0.17549584  1  0  -0.290997  -0.541887  0  2.186806  0
O  O57  1  0.29241199  0.05394842  0.90621582  1  0  -0.663687  -0.857006  0  2.100031  0
O  O58  1  0.90621643  0.29241232  0.05394987  1  0  -0.663704  -0.857099  0  2.099907  0
O  O59  1  0.05394906  0.90621546  0.29241296  1  0  -0.663673  -0.857048  0  2.09996  0
O  O60  1  0.09379080  0.94605400  0.70759508  1  0  -0.663756  -0.857137  0  2.099823  0
O  O61  1  0.94605633  0.70759320  0.09379108  1  0  -0.663731  -0.857058  0  2.099894  0
O  O62  1  0.70759455  0.09379061  0.94605667  1  0  -0.663714  -0.857081  0  2.099838  0
