# generated using pymatgen
data_NaH4(CO)4
_symmetry_space_group_name_H-M   'P 1'
_cell_length_a   8.67623174
_cell_length_b   8.90313052
_cell_length_c   12.53063541
_cell_angle_alpha   90.00001222
_cell_angle_beta   89.99999834
_cell_angle_gamma   89.99997541
_symmetry_Int_Tables_number   1
_chemical_formula_structural   NaH4(CO)4
_chemical_formula_sum   'Na8 H32 C32 O32'
_cell_volume   967.93674584
_cell_formula_units_Z   8
loop_
 _symmetry_equiv_pos_site_id
 _symmetry_equiv_pos_as_xyz
  1  'x, y, z'
loop_
 _atom_site_type_symbol
 _atom_site_label
 _atom_site_symmetry_multiplicity
 _atom_site_fract_x
 _atom_site_fract_y
 _atom_site_fract_z
 _atom_site_occupancy
 _atom_site_hle17_bader_spin_density
 _atom_site_hle17_ddec_charge
 _atom_site_hle17_ddec_spin_density
 _atom_site_hle17_ddec_sum_bond_order
 _atom_site_hle17_magmom
 _atom_site_hse06_10hf_bader_spin_density
 _atom_site_hse06_10hf_ddec_charge
 _atom_site_hse06_10hf_ddec_spin_density
 _atom_site_hse06_10hf_ddec_sum_bond_order
 _atom_site_hse06_10hf_magmom
 _atom_site_hse06_bader_spin_density
 _atom_site_hse06_ddec_charge
 _atom_site_hse06_ddec_spin_density
 _atom_site_hse06_ddec_sum_bond_order
 _atom_site_hse06_magmom
 _atom_site_pbe_bader_spin_density
 _atom_site_pbe_cm5_charge
 _atom_site_pbe_ddec_charge
 _atom_site_pbe_ddec_spin_density
 _atom_site_pbe_ddec_sum_bond_order
 _atom_site_pbe_magmom
Na  Na0  1  0.93215581  0.08088714  0.36909142  1  0  0.913545  0  0.354311  0  0  0.86981  0  0.504412  0  0  0.881782  0  0.481784  0  0  0.671075  0.860546  0  0.521289  0
Na  Na1  1  0.56784203  0.41911327  0.86909163  1  0  0.913541  0  0.354308  0  0  0.869808  0  0.504399  0  0  0.881783  0  0.481771  0  0  0.67107  0.860549  0  0.521278  0
Na  Na2  1  0.93215678  0.91911361  0.13090883  1  0  0.91354  0  0.35431  0  0  0.869804  0  0.504408  0  0  0.881774  0  0.481781  0  0  0.671074  0.86054  0  0.521285  0
Na  Na3  1  0.56784200  0.58088779  0.63090899  1  0  0.913546  0  0.354305  0  0  0.869807  0  0.504405  0  0  0.881784  0  0.481774  0  0  0.671071  0.860546  0  0.521285  0
Na  Na4  1  0.06784375  0.91911274  0.63090902  1  0  0.913546  0  0.354309  0  0  0.869812  0  0.504416  0  0  0.881781  0  0.481785  0  0  0.671074  0.860546  0  0.521289  0
Na  Na5  1  0.43215753  0.58088662  0.13090880  1  0  0.913537  0  0.354314  0  0  0.869805  0  0.504403  0  0  0.881781  0  0.481773  0  0  0.671063  0.860541  0  0.521283  0
Na  Na6  1  0.06784278  0.08088739  0.86909161  1  0  0.913536  0  0.354323  0  0  0.869796  0  0.504433  0  0  0.881769  0  0.481801  0  0  0.671068  0.860537  0  0.52131  0
Na  Na7  1  0.43215756  0.41911322  0.36909145  1  0  0.913535  0  0.35432  0  0  0.869804  0  0.504412  0  0  0.881778  0  0.481784  0  0  0.671067  0.860539  0  0.521292  0
H  H8  1  0.49576575  0.74663284  0.43434435  1  0  0.123394  0  0.931088  0  0  0.134596  0  0.99627  0  0  0.138038  0  0.994517  0  0  0.118384  0.132263  0  0.997431  0
H  H9  1  0.00423437  0.75336661  0.93434453  1  0  0.123398  0  0.931075  0  0  0.13461  0  0.996259  0  0  0.138048  0  0.994504  0  0  0.118387  0.13228  0  0.997415  0
H  H10  1  0.49576471  0.25336584  0.06565510  1  0  0.1234  0  0.931077  0  0  0.134607  0  0.996262  0  0  0.138046  0  0.994506  0  0  0.118379  0.132274  0  0.99742  0
H  H11  1  0.00423449  0.24663356  0.56565529  1  0  0.123395  0  0.931079  0  0  0.134606  0  0.996261  0  0  0.138044  0  0.994506  0  0  0.118385  0.132275  0  0.997419  0
H  H12  1  0.50423381  0.25336704  0.56565609  1  0  0.123403  0  0.931077  0  0  0.13461  0  0.996261  0  0  0.138049  0  0.994504  0  0  0.118393  0.132282  0  0.997416  0
H  H13  1  0.99576519  0.24663327  0.06565510  1  0  0.123418  0  0.931107  0  0  0.134624  0  0.996286  0  0  0.13806  0  0.994529  0  0  0.11839  0.132292  0  0.997444  0
H  H14  1  0.50423485  0.74663292  0.93434453  1  0  0.123401  0  0.931079  0  0  0.134604  0  0.996262  0  0  0.138046  0  0.99451  0  0  0.118381  0.132275  0  0.997417  0
H  H15  1  0.99576507  0.75336633  0.43434434  1  0  0.123402  0  0.931087  0  0  0.134618  0  0.996248  0  0  0.138057  0  0.994492  0  0  0.118392  0.132284  0  0.99741  0
H  H16  1  0.43093688  0.87915365  0.34175927  1  0  0.12843  0  0.919914  0  0  0.14477  0  0.97344  0  0  0.14715  0  0.973151  0  0  0.11578  0.143015  0  0.973739  0
H  H17  1  0.06906324  0.62084578  0.84175943  1  0  0.128422  0  0.919912  0  0  0.144771  0  0.97344  0  0  0.147146  0  0.97315  0  0  0.115778  0.143012  0  0.973739  0
H  H18  1  0.43093705  0.12084507  0.15824098  1  0  0.128437  0  0.919895  0  0  0.144781  0  0.97342  0  0  0.147158  0  0.97313  0  0  0.115783  0.143023  0  0.973719  0
H  H19  1  0.06906330  0.37915548  0.65824039  1  0  0.128412  0  0.919928  0  0  0.144746  0  0.97347  0  0  0.147122  0  0.973181  0  0  0.115769  0.142987  0  0.973771  0
H  H20  1  0.56906268  0.12084511  0.65824196  1  0  0.12844  0  0.919886  0  0  0.144788  0  0.973404  0  0  0.147164  0  0.973113  0  0  0.115786  0.143031  0  0.973704  0
H  H21  1  0.93093632  0.37915410  0.15824100  1  0  0.128473  0  0.919863  0  0  0.144795  0  0.97341  0  0  0.147168  0  0.973117  0  0  0.115797  0.143042  0  0.973705  0
H  H22  1  0.56906250  0.87915482  0.84175865  1  0  0.128457  0  0.919883  0  0  0.144797  0  0.973406  0  0  0.147177  0  0.973118  0  0  0.115791  0.14304  0  0.973706  0
H  H23  1  0.93093626  0.62084552  0.34175845  1  0  0.128546  0  0.919774  0  0  0.144806  0  0.973395  0  0  0.147183  0  0.973103  0  0  0.115797  0.14305  0  0.973689  0
H  H24  1  0.61174251  0.07321576  0.42131942  1  0  0.078826  0  0.931676  0  0  0.08772  0  0.995805  0  0  0.090657  0  0.994099  0  0  0.109131  0.08559  0  0.997114  0
H  H25  1  0.88825647  0.42678467  0.92131883  1  0  0.078823  0  0.9317  0  0  0.087721  0  0.995822  0  0  0.090658  0  0.994117  0  0  0.109136  0.08559  0  0.997132  0
H  H26  1  0.61174233  0.92678513  0.07868083  1  0  0.078809  0  0.931699  0  0  0.087716  0  0.995838  0  0  0.090653  0  0.994132  0  0  0.109135  0.085586  0  0.997146  0
H  H27  1  0.88825645  0.57321513  0.57868019  1  0  0.078817  0  0.931676  0  0  0.087742  0  0.995797  0  0  0.090681  0  0.994093  0  0  0.109138  0.085611  0  0.997106  0
H  H28  1  0.38825705  0.92678525  0.57868102  1  0  0.078812  0  0.931696  0  0  0.087725  0  0.995831  0  0  0.090661  0  0.994126  0  0  0.109137  0.085595  0  0.997139  0
H  H29  1  0.11174308  0.57321522  0.07868081  1  0  0.078816  0  0.931695  0  0  0.087719  0  0.99583  0  0  0.090654  0  0.994127  0  0  0.109133  0.085589  0  0.997139  0
H  H30  1  0.38825723  0.07321588  0.92131960  1  0  0.07882  0  0.931673  0  0  0.087713  0  0.995813  0  0  0.090649  0  0.994109  0  0  0.109133  0.085583  0  0.997124  0
H  H31  1  0.11174311  0.42678475  0.42131945  1  0  0.078825  0  0.9317  0  0  0.087721  0  0.995819  0  0  0.090658  0  0.994112  0  0  0.109132  0.085591  0  0.997128  0
H  H32  1  0.71772849  0.68296302  0.18997605  1  0  0.384402  0  0.924861  0  0  0.351728  0  1.007134  0  0  0.36576  0  0.992809  0  0  0.294162  0.341896  0  1.017215  0
H  H33  1  0.78227144  0.81703839  0.68997624  1  0  0.384387  0  0.924882  0  0  0.351709  0  1.007164  0  0  0.365742  0  0.992839  0  0  0.294159  0.341878  0  1.017247  0
H  H34  1  0.71772856  0.31703782  0.31002420  1  0  0.38438  0  0.924887  0  0  0.351704  0  1.007167  0  0  0.365736  0  0.992842  0  0  0.294162  0.341873  0  1.017248  0
H  H35  1  0.78227158  0.18296257  0.81002357  1  0  0.384388  0  0.92488  0  0  0.35171  0  1.00716  0  0  0.365742  0  0.992836  0  0  0.294159  0.341878  0  1.017244  0
H  H36  1  0.28227107  0.31703798  0.81002439  1  0  0.384377  0  0.924895  0  0  0.351701  0  1.007174  0  0  0.365734  0  0.992849  0  0  0.294152  0.34187  0  1.017257  0
H  H37  1  0.21772812  0.18296261  0.31002419  1  0  0.384403  0  0.924861  0  0  0.351727  0  1.00714  0  0  0.365758  0  0.992816  0  0  0.294159  0.341895  0  1.017222  0
H  H38  1  0.28227100  0.68296206  0.68997623  1  0  0.384387  0  0.924885  0  0  0.351713  0  1.007159  0  0  0.365746  0  0.992834  0  0  0.29416  0.341882  0  1.017242  0
H  H39  1  0.21772798  0.81703844  0.18997606  1  0  0.384406  0  0.924853  0  0  0.351728  0  1.007135  0  0  0.365761  0  0.992809  0  0  0.294162  0.341897  0  1.017218  0
C  C40  1  0.65792484  0.80663753  0.31388358  1  0  0.745353  0  3.72452  0  0  0.703256  0  4.019153  0  0  0.73498  0  4.011088  0  0  0.243951  0.681715  0  4.024187  0
C  C41  1  0.84207393  0.69336168  0.81388295  1  0  0.745226  0  3.724649  0  0  0.703161  0  4.01924  0  0  0.73487  0  4.011192  0  0  0.243948  0.681621  0  4.024274  0
C  C42  1  0.65792729  0.19336221  0.18611667  1  0  0.745243  0  3.724705  0  0  0.703177  0  4.019299  0  0  0.734895  0  4.011232  0  0  0.243938  0.681635  0  4.024334  0
C  C43  1  0.84207401  0.30663814  0.68611686  1  0  0.745219  0  3.724674  0  0  0.703154  0  4.019269  0  0  0.734875  0  4.011198  0  0  0.243941  0.681613  0  4.024301  0
C  C44  1  0.34207356  0.19336348  0.68611685  1  0  0.745312  0  3.724578  0  0  0.70326  0  4.019148  0  0  0.734977  0  4.011083  0  0  0.243979  0.681719  0  4.024184  0
C  C45  1  0.15792563  0.30663933  0.18611668  1  0  0.745294  0  3.724632  0  0  0.703229  0  4.019203  0  0  0.734953  0  4.011123  0  0  0.24395  0.681688  0  4.024236  0
C  C46  1  0.34207573  0.80663767  0.81388376  1  0  0.745353  0  3.724525  0  0  0.70327  0  4.019143  0  0  0.734991  0  4.011084  0  0  0.243985  0.681729  0  4.024179  0
C  C47  1  0.15792554  0.69336175  0.31388357  1  0  0.745265  0  3.724605  0  0  0.703179  0  4.019219  0  0  0.734889  0  4.011168  0  0  0.243932  0.681638  0  4.024251  0
C  C48  1  0.53120161  0.84805558  0.39083499  1  0  -0.28777  0  3.6421  0  0  -0.328989  0  3.883521  0  0  -0.335054  0  3.89097  0  0  -0.151765  -0.325007  0  3.878492  0
C  C49  1  0.96879830  0.65194477  0.89083515  1  0  -0.287741  0  3.64201  0  0  -0.329006  0  3.883454  0  0  -0.335048  0  3.890881  0  0  -0.151788  -0.325022  0  3.87842  0
C  C50  1  0.53120177  0.15194421  0.10916526  1  0  -0.287746  0  3.642036  0  0  -0.328983  0  3.883495  0  0  -0.335029  0  3.890923  0  0  -0.151761  -0.324995  0  3.878458  0
C  C51  1  0.96879838  0.34805611  0.60916545  1  0  -0.287709  0  3.642099  0  0  -0.328936  0  3.883555  0  0  -0.334982  0  3.890981  0  0  -0.151761  -0.32495  0  3.87852  0
C  C52  1  0.46879794  0.15194542  0.60916544  1  0  -0.287768  0  3.642014  0  0  -0.328992  0  3.883449  0  0  -0.335035  0  3.890872  0  0  -0.151775  -0.325009  0  3.878416  0
C  C53  1  0.03120125  0.34805511  0.10916528  1  0  -0.287831  0  3.642074  0  0  -0.329039  0  3.883499  0  0  -0.335071  0  3.890901  0  0  -0.151793  -0.325061  0  3.878471  0
C  C54  1  0.46879778  0.84805567  0.89083517  1  0  -0.287798  0  3.642051  0  0  -0.329024  0  3.883491  0  0  -0.335091  0  3.890943  0  0  -0.151772  -0.325043  0  3.87846  0
C  C55  1  0.03120118  0.65194377  0.39083418  1  0  -0.287864  0  3.642046  0  0  -0.329032  0  3.883428  0  0  -0.335074  0  3.890853  0  0  -0.151801  -0.325048  0  3.878398  0
C  C56  1  0.57190013  0.97596790  0.46765073  1  0  -0.107103  0  3.621575  0  0  -0.118119  0  3.86001  0  0  -0.12247  0  3.873137  0  0  -0.083013  -0.114962  0  3.850918  0
C  C57  1  0.92809979  0.52403136  0.96765088  1  0  -0.107097  0  3.621585  0  0  -0.118108  0  3.859998  0  0  -0.122466  0  3.873124  0  0  -0.083026  -0.114954  0  3.850909  0
C  C58  1  0.57190035  0.02403188  0.03234951  1  0  -0.107059  0  3.621548  0  0  -0.118144  0  3.860095  0  0  -0.122499  0  3.873218  0  0  -0.083023  -0.114989  0  3.851005  0
C  C59  1  0.92809981  0.47596842  0.53234973  1  0  -0.107077  0  3.621586  0  0  -0.118194  0  3.860132  0  0  -0.122556  0  3.87326  0  0  -0.083036  -0.11504  0  3.851041  0
C  C60  1  0.42809943  0.02403199  0.53234970  1  0  -0.107038  0  3.621508  0  0  -0.118137  0  3.860055  0  0  -0.122493  0  3.873179  0  0  -0.083025  -0.114983  0  3.850968  0
C  C61  1  0.07189977  0.47596853  0.03234955  1  0  -0.107073  0  3.621553  0  0  -0.118138  0  3.860035  0  0  -0.122498  0  3.873156  0  0  -0.083016  -0.114982  0  3.850945  0
C  C62  1  0.42809921  0.97596800  0.96765092  1  0  -0.107063  0  3.621534  0  0  -0.118085  0  3.859969  0  0  -0.122436  0  3.873097  0  0  -0.083011  -0.114932  0  3.850881  0
C  C63  1  0.07189975  0.52403146  0.46765071  1  0  -0.107129  0  3.621585  0  0  -0.118102  0  3.85997  0  0  -0.122457  0  3.873092  0  0  -0.083011  -0.114947  0  3.850879  0
C  C64  1  0.70252367  0.92945840  0.54324785  1  0  0.694926  0  3.815096  0  0  0.655804  0  4.108234  0  0  0.687326  0  4.101086  0  0  0.219641  0.634376  0  4.112262  0
C  C65  1  0.79747627  0.57054185  0.04324764  1  0  0.694902  0  3.815134  0  0  0.655783  0  4.108258  0  0  0.687305  0  4.10111  0  0  0.219621  0.634357  0  4.112285  0
C  C66  1  0.70252500  0.07054260  0.95675276  1  0  0.694873  0  3.81508  0  0  0.655731  0  4.108281  0  0  0.687252  0  4.101133  0  0  0.219604  0.634304  0  4.11231  0
C  C67  1  0.79747629  0.42945783  0.45675260  1  0  0.694946  0  3.81501  0  0  0.655822  0  4.108177  0  0  0.687344  0  4.101028  0  0  0.219651  0.634394  0  4.112207  0
C  C68  1  0.29747589  0.07054149  0.45675258  1  0  0.694961  0  3.81499  0  0  0.655837  0  4.108171  0  0  0.687358  0  4.101023  0  0  0.219666  0.634408  0  4.112202  0
C  C69  1  0.20252444  0.42945915  0.95675279  1  0  0.694996  0  3.814941  0  0  0.655859  0  4.108128  0  0  0.687382  0  4.100979  0  0  0.219654  0.634436  0  4.112156  0
C  C70  1  0.29747571  0.92945841  0.04324767  1  0  0.694885  0  3.815162  0  0  0.65577  0  4.108291  0  0  0.687292  0  4.101143  0  0  0.219619  0.634342  0  4.112318  0
C  C71  1  0.20252442  0.57054205  0.54324783  1  0  0.694972  0  3.815061  0  0  0.655815  0  4.10824  0  0  0.687336  0  4.101092  0  0  0.219658  0.634388  0  4.112269  0
O  O72  1  0.78269789  0.87414409  0.30951030  1  0  -0.660453  0  1.997177  0  0  -0.619604  0  2.242069  0  0  -0.640301  0  2.23295  0  0  -0.371358  -0.6055  0  2.248361  0
O  O73  1  0.71730434  0.62585624  0.80951047  1  0  -0.660396  0  1.997278  0  0  -0.619551  0  2.242149  0  0  -0.640248  0  2.233042  0  0  -0.371359  -0.60545  0  2.248445  0
O  O74  1  0.78269575  0.12585672  0.19048835  1  0  -0.660376  0  1.997394  0  0  -0.619517  0  2.242249  0  0  -0.640224  0  2.233152  0  0  -0.371329  -0.605416  0  2.248542  0
O  O75  1  0.71730440  0.37414251  0.69048855  1  0  -0.660375  0  1.997309  0  0  -0.619529  0  2.242181  0  0  -0.640234  0  2.233073  0  0  -0.371336  -0.605427  0  2.248474  0
O  O76  1  0.21730397  0.12585579  0.69048933  1  0  -0.660421  0  1.997276  0  0  -0.619579  0  2.242141  0  0  -0.640279  0  2.233028  0  0  -0.371361  -0.605474  0  2.248432  0
O  O77  1  0.28269637  0.37414365  0.19048917  1  0  -0.660418  0  1.997289  0  0  -0.619572  0  2.242151  0  0  -0.640281  0  2.233048  0  0  -0.371365  -0.60547  0  2.248443  0
O  O78  1  0.21730265  0.87414429  0.80951049  1  0  -0.660462  0  1.997212  0  0  -0.619617  0  2.242106  0  0  -0.640315  0  2.232991  0  0  -0.37138  -0.605513  0  2.2484  0
O  O79  1  0.28269632  0.62585625  0.30951029  1  0  -0.660404  0  1.997235  0  0  -0.619558  0  2.242115  0  0  -0.640258  0  2.233014  0  0  -0.371358  -0.605455  0  2.248407  0
O  O80  1  0.62485060  0.69411643  0.24881025  1  0  -0.622291  0  2.089721  0  0  -0.57824  0  2.330257  0  0  -0.599682  0  2.313373  0  0  -0.369296  -0.563338  0  2.342021  0
O  O81  1  0.87514932  0.80588388  0.74881044  1  0  -0.622209  0  2.089705  0  0  -0.578163  0  2.330224  0  0  -0.599599  0  2.313346  0  0  -0.369269  -0.563258  0  2.341985  0
O  O82  1  0.62485069  0.30588333  0.25118999  1  0  -0.622246  0  2.089723  0  0  -0.578207  0  2.330252  0  0  -0.599646  0  2.313371  0  0  -0.3693  -0.563302  0  2.342016  0
O  O83  1  0.87514946  0.19411592  0.75119016  1  0  -0.622229  0  2.089731  0  0  -0.578184  0  2.330257  0  0  -0.599625  0  2.313373  0  0  -0.369273  -0.563279  0  2.34202  0
O  O84  1  0.37514780  0.30588570  0.75118938  1  0  -0.622275  0  2.089712  0  0  -0.578238  0  2.330228  0  0  -0.59968  0  2.313347  0  0  -0.369304  -0.563334  0  2.341994  0
O  O85  1  0.12485024  0.19411713  0.25118999  1  0  -0.622256  0  2.08971  0  0  -0.578216  0  2.330237  0  0  -0.599658  0  2.313354  0  0  -0.36927  -0.563313  0  2.341999  0
O  O86  1  0.37514887  0.69411656  0.74881044  1  0  -0.622274  0  2.08971  0  0  -0.578233  0  2.330248  0  0  -0.599673  0  2.313367  0  0  -0.369309  -0.563329  0  2.342014  0
O  O87  1  0.12485010  0.80588396  0.24881027  1  0  -0.622245  0  2.089674  0  0  -0.578189  0  2.330195  0  0  -0.599628  0  2.313317  0  0  -0.369266  -0.563285  0  2.341958  0
O  O88  1  0.83316447  0.99016286  0.53633839  1  0  -0.712927  0  1.92916  0  0  -0.675065  0  2.174228  0  0  -0.695707  0  2.162289  0  0  -0.417591  -0.660269  0  2.182025  0
O  O89  1  0.66683546  0.50983851  0.03633817  1  0  -0.712909  0  1.929204  0  0  -0.675035  0  2.174241  0  0  -0.695681  0  2.162305  0  0  -0.417551  -0.66024  0  2.182039  0
O  O90  1  0.83316468  0.00983921  0.96366142  1  0  -0.712886  0  1.92918  0  0  -0.675004  0  2.174245  0  0  -0.695647  0  2.162309  0  0  -0.417558  -0.66021  0  2.182043  0
O  O91  1  0.66683546  0.49016235  0.46366127  1  0  -0.712941  0  1.929149  0  0  -0.675067  0  2.174203  0  0  -0.695713  0  2.162267  0  0  -0.417596  -0.660272  0  2.182002  0
O  O92  1  0.16683509  0.00983815  0.46366124  1  0  -0.712957  0  1.929157  0  0  -0.675081  0  2.174215  0  0  -0.695722  0  2.162276  0  0  -0.4176  -0.660284  0  2.182012  0
O  O93  1  0.33316409  0.49016249  0.96366146  1  0  -0.712968  0  1.929154  0  0  -0.675095  0  2.174213  0  0  -0.695741  0  2.162275  0  0  -0.417597  -0.660304  0  2.182014  0
O  O94  1  0.16683603  0.99016180  0.03633742  1  0  -0.712912  0  1.929204  0  0  -0.675038  0  2.174246  0  0  -0.695682  0  2.162309  0  0  -0.41758  -0.660241  0  2.182043  0
O  O95  1  0.33316410  0.50983866  0.53633756  1  0  -0.712937  0  1.92918  0  0  -0.675058  0  2.174243  0  0  -0.695702  0  2.162307  0  0  -0.417595  -0.660265  0  2.182043  0
O  O96  1  0.66841326  0.82765602  0.61278143  1  0  -0.678354  0  2.016381  0  0  -0.627679  0  2.255612  0  0  -0.652484  0  2.24435  0  0  -0.379089  -0.61034  0  2.262916  0
O  O97  1  0.83158667  0.67234537  0.11278123  1  0  -0.678362  0  2.01635  0  0  -0.62769  0  2.255578  0  0  -0.652497  0  2.244321  0  0  -0.379115  -0.610349  0  2.26288  0
O  O98  1  0.66841339  0.17234611  0.88721918  1  0  -0.678368  0  2.016336  0  0  -0.627682  0  2.255582  0  0  -0.652495  0  2.244337  0  0  -0.379112  -0.61034  0  2.262886  0
O  O99  1  0.83158674  0.32765430  0.38721901  1  0  -0.678365  0  2.016351  0  0  -0.627683  0  2.255584  0  0  -0.652493  0  2.244336  0  0  -0.37911  -0.610342  0  2.262886  0
O  O100  1  0.33158630  0.17234611  0.38721900  1  0  -0.678384  0  2.016307  0  0  -0.627712  0  2.255556  0  0  -0.652525  0  2.244312  0  0  -0.379122  -0.610369  0  2.262857  0
O  O101  1  0.16841404  0.32765451  0.88721920  1  0  -0.678379  0  2.016313  0  0  -0.627699  0  2.255559  0  0  -0.652499  0  2.244286  0  0  -0.379102  -0.610361  0  2.262865  0
O  O102  1  0.33158616  0.82765602  0.11278125  1  0  -0.678343  0  2.016371  0  0  -0.627678  0  2.255608  0  0  -0.652481  0  2.244341  0  0  -0.379086  -0.610338  0  2.262912  0
O  O103  1  0.16841397  0.67234559  0.61278142  1  0  -0.678368  0  2.016359  0  0  -0.62769  0  2.255618  0  0  -0.652501  0  2.244368  0  0  -0.379107  -0.610347  0  2.262917  0
