# generated using pymatgen
data_CuH3C4(IN)2
_symmetry_space_group_name_H-M   'P 1'
_cell_length_a   4.16703038
_cell_length_b   12.90317840
_cell_length_c   13.79922167
_cell_angle_alpha   89.99958499
_cell_angle_beta   90.00082676
_cell_angle_gamma   92.72273482
_symmetry_Int_Tables_number   1
_chemical_formula_structural   CuH3C4(IN)2
_chemical_formula_sum   'Cu4 H12 C16 I8 N8'
_cell_volume   741.11808225
_cell_formula_units_Z   4
loop_
 _symmetry_equiv_pos_site_id
 _symmetry_equiv_pos_as_xyz
  1  'x, y, z'
loop_
 _atom_site_type_symbol
 _atom_site_label
 _atom_site_symmetry_multiplicity
 _atom_site_fract_x
 _atom_site_fract_y
 _atom_site_fract_z
 _atom_site_occupancy
 _atom_site_hle17_bader_spin_density
 _atom_site_hle17_ddec_charge
 _atom_site_hle17_ddec_spin_density
 _atom_site_hle17_ddec_sum_bond_order
 _atom_site_hle17_magmom
 _atom_site_hse06_10hf_bader_spin_density
 _atom_site_hse06_10hf_ddec_charge
 _atom_site_hse06_10hf_ddec_spin_density
 _atom_site_hse06_10hf_ddec_sum_bond_order
 _atom_site_hse06_10hf_magmom
 _atom_site_hse06_bader_spin_density
 _atom_site_hse06_ddec_charge
 _atom_site_hse06_ddec_spin_density
 _atom_site_hse06_ddec_sum_bond_order
 _atom_site_hse06_magmom
 _atom_site_pbe_bader_spin_density
 _atom_site_pbe_cm5_charge
 _atom_site_pbe_ddec_charge
 _atom_site_pbe_ddec_spin_density
 _atom_site_pbe_ddec_sum_bond_order
 _atom_site_pbe_magmom
Cu  Cu0  1  0.51445816  0.17599577  0.67480966  1  0  0.359511  0  2.025342  0  0  0.252654  0  2.502411  0  0  0.251656  0  2.459844  0  0  0.382377  0.257155  0  2.528539  0
Cu  Cu1  1  0.51445448  0.67599426  0.82519181  1  0  0.359539  0  2.02537  0  0  0.252789  0  2.50243  0  0  0.251737  0  2.459975  0  0  0.382437  0.257306  0  2.528538  0
Cu  Cu2  1  0.48554423  0.82400494  0.32518985  1  0  0.359509  0  2.025329  0  0  0.252741  0  2.502378  0  0  0.251739  0  2.459825  0  0  0.382418  0.257249  0  2.528503  0
Cu  Cu3  1  0.48555031  0.32400646  0.17480553  1  0  0.359525  0  2.025194  0  0  0.252718  0  2.502247  0  0  0.251692  0  2.459733  0  0  0.382375  0.257228  0  2.528366  0
H  H4  1  0.74979376  0.37658271  0.59350348  1  0  0.080124  0  0.997509  0  0  0.08394  0  1.073053  0  0  0.0882  0  1.069537  0  0  0.089762  0.080747  0  1.075847  0
H  H5  1  0.74979564  0.87657752  0.90650640  1  0  0.080095  0  0.997464  0  0  0.083928  0  1.07294  0  0  0.088187  0  1.069419  0  0  0.089738  0.080734  0  1.075738  0
H  H6  1  0.25020143  0.62341800  0.40649892  1  0  0.080064  0  0.997557  0  0  0.083879  0  1.073087  0  0  0.088136  0  1.069572  0  0  0.089737  0.080686  0  1.075885  0
H  H7  1  0.25020653  0.12342164  0.09349238  1  0  0.08011  0  0.997518  0  0  0.08392  0  1.072998  0  0  0.088187  0  1.069472  0  0  0.089752  0.080726  0  1.075797  0
H  H8  1  0.28238950  0.47525571  0.90097304  1  0  0.086257  0  0.990484  0  0  0.091083  0  1.061967  0  0  0.095554  0  1.058576  0  0  0.094207  0.087761  0  1.064653  0
H  H9  1  0.28241933  0.97525814  0.59903185  1  0  0.086278  0  0.99051  0  0  0.091081  0  1.062025  0  0  0.095549  0  1.058639  0  0  0.094216  0.087758  0  1.064709  0
H  H10  1  0.71761334  0.52474811  0.09903009  1  0  0.086301  0  0.990518  0  0  0.091094  0  1.062051  0  0  0.095561  0  1.058663  0  0  0.0942  0.087774  0  1.064737  0
H  H11  1  0.71758524  0.02474103  0.40096910  1  0  0.086327  0  0.990587  0  0  0.091142  0  1.062084  0  0  0.095599  0  1.058705  0  0  0.094238  0.087818  0  1.064765  0
H  H12  1  0.30441138  0.28959382  0.85362902  1  0  0.073168  0  1.007134  0  0  0.076482  0  1.085085  0  0  0.08065  0  1.08093  0  0  0.090272  0.073313  0  1.088409  0
H  H13  1  0.30442640  0.78959513  0.64637216  1  0  0.073214  0  1.007097  0  0  0.076464  0  1.08508  0  0  0.080677  0  1.080888  0  0  0.09026  0.073296  0  1.088404  0
H  H14  1  0.69558861  0.71040690  0.14637483  1  0  0.073178  0  1.007257  0  0  0.076466  0  1.085192  0  0  0.08065  0  1.08102  0  0  0.090266  0.073298  0  1.088517  0
H  H15  1  0.69557521  0.21040016  0.35362517  1  0  0.073172  0  1.007281  0  0  0.076425  0  1.085219  0  0  0.080637  0  1.081026  0  0  0.090274  0.073254  0  1.08855  0
C  C16  1  0.64317929  0.39896393  0.66214471  1  0  0.047889  0  3.674166  0  0  0.014257  0  3.923892  0  0  0.017067  0  3.938582  0  0  0.024347  0.01184  0  3.915272  0
C  C17  1  0.64318895  0.89896776  0.83786307  1  0  0.047831  0  3.674256  0  0  0.014314  0  3.923894  0  0  0.017118  0  3.938579  0  0  0.024372  0.011906  0  3.915281  0
C  C18  1  0.35681591  0.60103679  0.33785624  1  0  0.047916  0  3.674049  0  0  0.01435  0  3.923694  0  0  0.017157  0  3.938387  0  0  0.024372  0.011941  0  3.915077  0
C  C19  1  0.35681662  0.10103839  0.16213498  1  0  0.047864  0  3.674076  0  0  0.01439  0  3.923658  0  0  0.017188  0  3.938345  0  0  0.024388  0.011975  0  3.915049  0
C  C20  1  0.62502582  0.50288126  0.68820738  1  0  0.109034  0  3.618666  0  0  0.118453  0  3.885665  0  0  0.122476  0  3.904933  0  0  0.057486  0.115364  0  3.873554  0
C  C21  1  0.62504049  0.00288258  0.81180083  1  0  0.10896  0  3.618751  0  0  0.11836  0  3.885706  0  0  0.122378  0  3.904987  0  0  0.057487  0.115271  0  3.873602  0
C  C22  1  0.37496630  0.49711480  0.31179067  1  0  0.109012  0  3.618685  0  0  0.118451  0  3.885628  0  0  0.122472  0  3.904902  0  0  0.057544  0.115363  0  3.873517  0
C  C23  1  0.37496135  0.99711426  0.18820157  1  0  0.108905  0  3.618636  0  0  0.118307  0  3.885617  0  0  0.122328  0  3.904898  0  0  0.057474  0.115214  0  3.873518  0
C  C24  1  0.38608889  0.45359805  0.83173466  1  0  0.094905  0  3.634505  0  0  0.067784  0  3.879102  0  0  0.072424  0  3.889476  0  0  0.033978  0.06409  0  3.873386  0
C  C25  1  0.38612050  0.95360775  0.66826795  1  0  0.094876  0  3.635059  0  0  0.067769  0  3.879581  0  0  0.072406  0  3.88997  0  0  0.033948  0.064079  0  3.873858  0
C  C26  1  0.61389514  0.54639180  0.16826267  1  0  0.094801  0  3.634683  0  0  0.067643  0  3.879316  0  0  0.072281  0  3.889699  0  0  0.033877  0.06395  0  3.8736  0
C  C27  1  0.61388647  0.04639142  0.33173590  1  0  0.094896  0  3.634567  0  0  0.06773  0  3.879209  0  0  0.072378  0  3.889603  0  0  0.033961  0.064035  0  3.873485  0
C  C28  1  0.39889554  0.35041579  0.80544588  1  0  0.067838  0  3.664009  0  0  0.036894  0  3.916983  0  0  0.041434  0  3.92737  0  0  0.027844  0.033409  0  3.911346  0
C  C29  1  0.39890125  0.85042063  0.69455387  1  0  0.067651  0  3.663488  0  0  0.036787  0  3.916505  0  0  0.041289  0  3.926836  0  0  0.02778  0.033302  0  3.910886  0
C  C30  1  0.60110696  0.64958571  0.19455218  1  0  0.067621  0  3.66343  0  0  0.036765  0  3.91641  0  0  0.041293  0  3.926775  0  0  0.02775  0.033281  0  3.910783  0
C  C31  1  0.60110192  0.14958552  0.30544201  1  0  0.067638  0  3.663707  0  0  0.036829  0  3.91668  0  0  0.041337  0  3.927021  0  0  0.027769  0.033354  0  3.91103  0
I  I32  1  0.01346970  0.17056071  0.55187188  1  0  -0.420629  0  1.528677  0  0  -0.366815  0  1.976141  0  0  -0.390965  0  1.945459  0  0  -0.193051  -0.349363  0  1.996843  0
I  I33  1  0.01347626  0.67055833  0.94812950  1  0  -0.420592  0  1.528629  0  0  -0.366819  0  1.976118  0  0  -0.390955  0  1.945469  0  0  -0.19302  -0.349369  0  1.996839  0
I  I34  1  0.98653521  0.82944078  0.44812835  1  0  -0.420645  0  1.528644  0  0  -0.366846  0  1.976097  0  0  -0.390995  0  1.94542  0  0  -0.193043  -0.349384  0  1.996805  0
I  I35  1  0.98653104  0.32944316  0.05186929  1  0  -0.420615  0  1.528634  0  0  -0.36681  0  1.9761  0  0  -0.390942  0  1.945427  0  0  -0.193022  -0.349355  0  1.996818  0
I  I36  1  0.78610903  0.62111826  0.59107506  1  0  -0.007748  0  1.625807  0  0  -0.027388  0  2.004644  0  0  -0.025956  0  1.990981  0  0  0.100785  -0.028324  0  2.014497  0
I  I37  1  0.78611588  0.12111812  0.90893309  1  0  -0.007683  0  1.625918  0  0  -0.02736  0  2.004833  0  0  -0.025936  0  1.991159  0  0  0.100808  -0.028286  0  2.014658  0
I  I38  1  0.21388845  0.37888168  0.40892517  1  0  -0.007731  0  1.625867  0  0  -0.027389  0  2.004683  0  0  -0.025963  0  1.99102  0  0  0.100785  -0.02832  0  2.014517  0
I  I39  1  0.21389131  0.87888260  0.09106714  1  0  -0.007698  0  1.625974  0  0  -0.027378  0  2.004899  0  0  -0.025955  0  1.991229  0  0  0.100799  -0.028298  0  2.014725  0
N  N40  1  0.52961109  0.32155057  0.72038858  1  0  -0.225137  0  3.36935  0  0  -0.149761  0  3.652582  0  0  -0.152345  0  3.655966  0  0  -0.351687  -0.149134  0  3.650832  0
N  N41  1  0.52962152  0.82154473  0.77962066  1  0  -0.225078  0  3.368805  0  0  -0.149842  0  3.652155  0  0  -0.15239  0  3.655505  0  0  -0.351713  -0.149239  0  3.650423  0
N  N42  1  0.47038204  0.67845247  0.27961745  1  0  -0.225  0  3.368865  0  0  -0.149725  0  3.652174  0  0  -0.152294  0  3.655536  0  0  -0.351637  -0.149115  0  3.650445  0
N  N43  1  0.47038238  0.17844978  0.22038174  1  0  -0.225036  0  3.369369  0  0  -0.149789  0  3.652633  0  0  -0.152364  0  3.656011  0  0  -0.351683  -0.149176  0  3.650897  0
N  N44  1  0.49882700  0.53188237  0.77365819  1  0  -0.265276  0  3.366406  0  0  -0.197664  0  3.65307  0  0  -0.20026  0  3.656469  0  0  -0.35638  -0.196953  0  3.651328  0
N  N45  1  0.49883632  0.03187343  0.72634200  1  0  -0.265034  0  3.366583  0  0  -0.1974  0  3.653196  0  0  -0.200002  0  3.656599  0  0  -0.356269  -0.196685  0  3.651454  0
N  N46  1  0.50117421  0.46812689  0.22634276  1  0  -0.26505  0  3.366803  0  0  -0.197432  0  3.653447  0  0  -0.200032  0  3.656849  0  0  -0.356256  -0.19672  0  3.651706  0
N  N47  1  0.50116529  0.96812186  0.27365461  1  0  -0.265056  0  3.366644  0  0  -0.197473  0  3.653349  0  0  -0.200079  0  3.656756  0  0  -0.356322  -0.196754  0  3.651602  0
