# generated using pymatgen
data_H8PbC12(NCl)2
_symmetry_space_group_name_H-M   'P 1'
_cell_length_a   8.18408524
_cell_length_b   9.25018055
_cell_length_c   9.25019121
_cell_angle_alpha   67.57654695
_cell_angle_beta   77.36821681
_cell_angle_gamma   77.36835899
_symmetry_Int_Tables_number   1
_chemical_formula_structural   H8PbC12(NCl)2
_chemical_formula_sum   'H16 Pb2 C24 N4 Cl4'
_cell_volume   624.51989009
_cell_formula_units_Z   2
loop_
 _symmetry_equiv_pos_site_id
 _symmetry_equiv_pos_as_xyz
  1  'x, y, z'
loop_
 _atom_site_type_symbol
 _atom_site_label
 _atom_site_symmetry_multiplicity
 _atom_site_fract_x
 _atom_site_fract_y
 _atom_site_fract_z
 _atom_site_occupancy
 _atom_site_hle17_bader_spin_density
 _atom_site_hle17_ddec_charge
 _atom_site_hle17_ddec_spin_density
 _atom_site_hle17_ddec_sum_bond_order
 _atom_site_hle17_magmom
 _atom_site_hse06_10hf_bader_spin_density
 _atom_site_hse06_10hf_ddec_charge
 _atom_site_hse06_10hf_ddec_spin_density
 _atom_site_hse06_10hf_ddec_sum_bond_order
 _atom_site_hse06_10hf_magmom
 _atom_site_hse06_bader_spin_density
 _atom_site_hse06_ddec_charge
 _atom_site_hse06_ddec_spin_density
 _atom_site_hse06_ddec_sum_bond_order
 _atom_site_hse06_magmom
 _atom_site_pbe_bader_spin_density
 _atom_site_pbe_cm5_charge
 _atom_site_pbe_ddec_charge
 _atom_site_pbe_ddec_spin_density
 _atom_site_pbe_ddec_sum_bond_order
 _atom_site_pbe_magmom
H  H0  1  0.92127191  0.33194595  0.00302018  1  0  0.072995  0  0.967466  0  0  0.079464  0  1.035701  0  0  0.081892  0  1.033871  0  0  0.104612  0.077678  0  1.037036  0
H  H1  1  0.57872593  0.99697352  0.66804484  1  0  0.073095  0  0.96736  0  0  0.079563  0  1.035599  0  0  0.081991  0  1.033768  0  0  0.104627  0.077772  0  1.036939  0
H  H2  1  0.07872642  0.66804806  0.99697439  1  0  0.073089  0  0.967413  0  0  0.079557  0  1.035646  0  0  0.081986  0  1.033815  0  0  0.104633  0.077769  0  1.03698  0
H  H3  1  0.42127237  0.00302039  0.33194544  1  0  0.073004  0  0.967438  0  0  0.079474  0  1.035679  0  0  0.081902  0  1.033849  0  0  0.104617  0.077687  0  1.037014  0
H  H4  1  0.79232341  0.61586157  0.87702612  1  0  0.112156  0  0.983878  0  0  0.118747  0  1.049488  0  0  0.122317  0  1.048165  0  0  0.092213  0.116144  0  1.050642  0
H  H5  1  0.70767400  0.12297596  0.38413049  1  0  0.112096  0  0.983895  0  0  0.118699  0  1.049511  0  0  0.122272  0  1.048182  0  0  0.092175  0.116094  0  1.050662  0
H  H6  1  0.20767475  0.38413369  0.12297123  1  0  0.112071  0  0.98393  0  0  0.118679  0  1.049542  0  0  0.122252  0  1.048213  0  0  0.092156  0.116075  0  1.050697  0
H  H7  1  0.29232230  0.87702275  0.61586153  1  0  0.112171  0  0.983853  0  0  0.118724  0  1.049515  0  0  0.122293  0  1.048194  0  0  0.092205  0.11612  0  1.050667  0
H  H8  1  0.92025574  0.77063713  0.60355924  1  0  0.108563  0  0.918754  0  0  0.120722  0  0.975743  0  0  0.123914  0  0.973228  0  0  0.109977  0.118401  0  0.977585  0
H  H9  1  0.57974618  0.39644676  0.22936293  1  0  0.108571  0  0.918887  0  0  0.120694  0  0.975902  0  0  0.123887  0  0.973389  0  0  0.109979  0.118374  0  0.977743  0
H  H10  1  0.07974957  0.22936065  0.39644215  1  0  0.108612  0  0.918815  0  0  0.120748  0  0.975823  0  0  0.123939  0  0.973312  0  0  0.11  0.118433  0  0.977652  0
H  H11  1  0.42025459  0.60355571  0.77063642  1  0  0.108571  0  0.918881  0  0  0.120718  0  0.975866  0  0  0.123911  0  0.973352  0  0  0.109996  0.118397  0  0.977709  0
H  H12  1  0.12786298  0.77449052  0.36241210  1  0  0.099836  0  0.982939  0  0  0.107437  0  1.051618  0  0  0.110493  0  1.050234  0  0  0.090861  0.105147  0  1.052757  0
H  H13  1  0.37213487  0.63758885  0.22550684  1  0  0.099824  0  0.982958  0  0  0.107463  0  1.051582  0  0  0.110527  0  1.050189  0  0  0.090858  0.105163  0  1.052731  0
H  H14  1  0.87213769  0.22550478  0.63758689  1  0  0.099836  0  0.982923  0  0  0.107485  0  1.051543  0  0  0.110539  0  1.050162  0  0  0.090868  0.105185  0  1.052686  0
H  H15  1  0.62786560  0.36240762  0.77449064  1  0  0.099847  0  0.982938  0  0  0.107497  0  1.051549  0  0  0.110553  0  1.050162  0  0  0.090878  0.105198  0  1.052696  0
Pb  Pb16  1  0.25000021  0.05166721  0.94833078  1  0  1.064902  0  1.675581  0  0  0.874016  0  2.108103  0  0  0.927349  0  2.071785  0  0  0.476947  0.836477  0  2.132638  0
Pb  Pb17  1  0.75000133  0.94833047  0.05166709  1  0  1.064888  0  1.675587  0  0  0.873977  0  2.108129  0  0  0.927329  0  2.071796  0  0  0.47694  0.836448  0  2.132664  0
C  C18  1  0.97356906  0.40437507  0.88454001  1  0  0.134714  0  3.714359  0  0  0.105474  0  3.963206  0  0  0.113242  0  3.981595  0  0  0.055998  0.100497  0  3.950587  0
C  C19  1  0.52643016  0.11545784  0.59561803  1  0  0.13453  0  3.71431  0  0  0.105295  0  3.963156  0  0  0.113062  0  3.981548  0  0  0.055987  0.100321  0  3.950531  0
C  C20  1  0.02642909  0.59562016  0.11545627  1  0  0.134478  0  3.714424  0  0  0.105248  0  3.96326  0  0  0.113014  0  3.981651  0  0  0.055932  0.100275  0  3.95064  0
C  C21  1  0.47356672  0.88453732  0.40437529  1  0  0.134688  0  3.714246  0  0  0.105441  0  3.963097  0  0  0.11321  0  3.981486  0  0  0.055987  0.100464  0  3.950477  0
C  C22  1  0.90186618  0.56235915  0.81353462  1  0  -0.116486  0  3.733385  0  0  -0.12766  0  3.985366  0  0  -0.134766  0  4.006173  0  0  -0.08472  -0.123074  0  3.971366  0
C  C23  1  0.59813231  0.18646703  0.43763281  1  0  -0.116325  0  3.733343  0  0  -0.127538  0  3.985316  0  0  -0.134642  0  4.006124  0  0  -0.084674  -0.122947  0  3.97131  0
C  C24  1  0.09813362  0.43763377  0.18646442  1  0  -0.116227  0  3.733297  0  0  -0.12743  0  3.985256  0  0  -0.134535  0  4.006061  0  0  -0.084627  -0.122846  0  3.971259  0
C  C25  1  0.40186524  0.81353170  0.56236003  1  0  -0.11642  0  3.73331  0  0  -0.127577  0  3.985296  0  0  -0.134683  0  4.006103  0  0  -0.084668  -0.122989  0  3.971292  0
C  C26  1  0.97157490  0.64731144  0.66231307  1  0  -0.031281  0  3.663768  0  0  -0.05902  0  3.91658  0  0  -0.05587  0  3.933182  0  0  -0.058983  -0.060865  0  3.905214  0
C  C27  1  0.52842690  0.33769011  0.35268463  1  0  -0.031301  0  3.66401  0  0  -0.059003  0  3.916789  0  0  -0.055862  0  3.933395  0  0  -0.058971  -0.060851  0  3.905424  0
C  C28  1  0.02842540  0.35268629  0.33768826  1  0  -0.031426  0  3.663868  0  0  -0.059153  0  3.916691  0  0  -0.056005  0  3.933293  0  0  -0.05903  -0.060998  0  3.905329  0
C  C29  1  0.47157425  0.66230996  0.64731344  1  0  -0.031347  0  3.663849  0  0  -0.059044  0  3.916652  0  0  -0.055898  0  3.933255  0  0  -0.059027  -0.060891  0  3.905286  0
C  C30  1  0.11070969  0.57350071  0.58170731  1  0  0.025474  0  3.789351  0  0  0.042217  0  4.021448  0  0  0.03987  0  4.045862  0  0  -0.000575  0.043635  0  4.004971  0
C  C31  1  0.38929263  0.41829551  0.42649640  1  0  0.025419  0  3.789403  0  0  0.042183  0  4.021447  0  0  0.039843  0  4.045864  0  0  -0.000628  0.043602  0  4.004966  0
C  C32  1  0.88929042  0.42649821  0.41829359  1  0  0.02542  0  3.789303  0  0  0.042171  0  4.021399  0  0  0.039826  0  4.045812  0  0  -0.0006  0.043588  0  4.004918  0
C  C33  1  0.61071228  0.58170459  0.57350199  1  0  0.025486  0  3.789218  0  0  0.042176  0  4.021397  0  0  0.039829  0  4.045812  0  0  -0.000593  0.043595  0  4.004917  0
C  C34  1  0.17761245  0.41404001  0.66387728  1  0  0.130004  0  3.738359  0  0  0.121578  0  3.978209  0  0  0.126303  0  3.999769  0  0  0.119621  0.118415  0  3.963653  0
C  C35  1  0.32238851  0.33612312  0.58595766  1  0  0.130078  0  3.738301  0  0  0.121647  0  3.978127  0  0  0.126368  0  3.999689  0  0  0.119649  0.118484  0  3.963569  0
C  C36  1  0.82238803  0.58595651  0.33612234  1  0  0.130114  0  3.738238  0  0  0.121675  0  3.978102  0  0  0.126398  0  3.999661  0  0  0.119635  0.118511  0  3.963547  0
C  C37  1  0.67761283  0.66387573  0.41403977  1  0  0.13003  0  3.738228  0  0  0.121604  0  3.978108  0  0  0.126328  0  3.999667  0  0  0.119646  0.11844  0  3.963551  0
C  C38  1  0.18363854  0.65289138  0.42250555  1  0  -0.099995  0  3.745648  0  0  -0.121332  0  3.997459  0  0  -0.125134  0  4.021662  0  0  -0.087456  -0.118622  0  3.981109  0
C  C39  1  0.31636025  0.57749748  0.34710828  1  0  -0.099985  0  3.745643  0  0  -0.121344  0  3.997404  0  0  -0.125158  0  4.021599  0  0  -0.087414  -0.11863  0  3.981069  0
C  C40  1  0.81636051  0.34710635  0.57749603  1  0  -0.099993  0  3.745584  0  0  -0.121361  0  3.997355  0  0  -0.125165  0  4.021553  0  0  -0.087433  -0.118643  0  3.981015  0
C  C41  1  0.68363839  0.42250257  0.65289030  1  0  -0.100011  0  3.745608  0  0  -0.121355  0  3.99739  0  0  -0.125159  0  4.02159  0  0  -0.087457  -0.118641  0  3.981041  0
N  N42  1  0.10809638  0.33336450  0.81326987  1  0  -0.347582  0  3.243007  0  0  -0.274227  0  3.493438  0  0  -0.294374  0  3.516218  0  0  -0.296492  -0.260495  0  3.477691  0
N  N43  1  0.39190583  0.18672757  0.66663188  1  0  -0.3476  0  3.242975  0  0  -0.274212  0  3.493341  0  0  -0.294359  0  3.516122  0  0  -0.296501  -0.260487  0  3.477607  0
N  N44  1  0.89190428  0.66663079  0.18672805  1  0  -0.347565  0  3.242988  0  0  -0.27418  0  3.49337  0  0  -0.294331  0  3.51616  0  0  -0.296467  -0.260449  0  3.477621  0
N  N45  1  0.60809608  0.81326770  0.33336472  1  0  -0.347602  0  3.242928  0  0  -0.274208  0  3.493315  0  0  -0.294358  0  3.516102  0  0  -0.296504  -0.260482  0  3.477582  0
Cl  Cl46  1  0.45725620  0.21047384  0.03938939  1  0  -0.620856  0  0.828463  0  0  -0.550434  0  1.06755  0  0  -0.57159  0  1.051105  0  0  -0.283551  -0.535119  0  1.078621  0
Cl  Cl47  1  0.04274251  0.96060727  0.78952926  1  0  -0.620859  0  0.828484  0  0  -0.550432  0  1.067584  0  0  -0.57158  0  1.051128  0  0  -0.283538  -0.53512  0  1.078653  0
Cl  Cl48  1  0.54274312  0.78952977  0.96060764  1  0  -0.620849  0  0.828471  0  0  -0.550436  0  1.067576  0  0  -0.571586  0  1.051122  0  0  -0.283541  -0.535122  0  1.078645  0
Cl  Cl49  1  0.95725653  0.03939047  0.21047233  1  0  -0.620855  0  0.828464  0  0  -0.550428  0  1.067552  0  0  -0.571582  0  1.051105  0  0  -0.283546  -0.535117  0  1.078622  0
