# generated using pymatgen
data_CdH68C64S4Br2(NO)4
_symmetry_space_group_name_H-M   'P 1'
_cell_length_a   15.25563438
_cell_length_b   15.57356147
_cell_length_c   19.10525550
_cell_angle_alpha   97.28330026
_cell_angle_beta   89.99936492
_cell_angle_gamma   119.32693196
_symmetry_Int_Tables_number   1
_chemical_formula_structural   CdH68C64S4Br2(NO)4
_chemical_formula_sum   'Cd2 H136 C128 S8 Br4 N8 O8'
_cell_volume   3915.31866681
_cell_formula_units_Z   2
loop_
 _symmetry_equiv_pos_site_id
 _symmetry_equiv_pos_as_xyz
  1  'x, y, z'
loop_
 _atom_site_type_symbol
 _atom_site_label
 _atom_site_symmetry_multiplicity
 _atom_site_fract_x
 _atom_site_fract_y
 _atom_site_fract_z
 _atom_site_occupancy
 _atom_site_pbe_bader_charge
 _atom_site_pbe_bader_spin_density
 _atom_site_pbe_cm5_charge
 _atom_site_pbe_ddec_charge
 _atom_site_pbe_ddec_spin_density
 _atom_site_pbe_ddec_sum_bond_order
 _atom_site_pbe_magmom
Cd  Cd0  1  0.00000489  0.50000235  0.49999953  1  1.105458  0  0.630403  0.642562  0  2.469226  0
Cd  Cd1  1  0.49999856  0.50000021  0.99999909  1  1.104728  0  0.630518  0.642949  0  2.469247  0
H  H2  1  0.71203080  0.79650885  0.52793573  1  0.06561  0  0.098101  0.100125  0  1.049131  0
H  H3  1  0.50939506  0.80527666  0.68250896  1  0.071706  0  0.10293  0.111063  0  1.023687  0
H  H4  1  0.70163239  0.12811658  0.64061413  1  0.076769  0  0.098889  0.068465  0  0.992292  0
H  H5  1  0.77818945  0.11779904  0.57249794  1  0.068852  0  0.097993  0.064239  0  1.006736  0
H  H6  1  0.85201637  0.27600497  0.53530182  1  0.108487  0  0.099164  0.07673  0  1.054749  0
H  H7  1  0.02574684  0.53704917  0.67086818  1  0.157858  0  0.105038  0.081886  0  1.024414  0
H  H8  1  0.97883094  0.44768123  0.77740649  1  0.070025  0  0.106162  0.108331  0  1.008673  0
H  H9  1  0.86820776  0.26058827  0.75857678  1  0.080794  0  0.107665  0.111739  0  1.023814  0
H  H10  1  0.50547900  0.53383021  0.55615676  1  0.007737  0  0.085719  0.118095  0  1.032537  0
H  H11  1  0.59060523  0.61818970  0.62779665  1  0.017645  0  0.083274  0.109932  0  1.036953  0
H  H12  1  0.62671750  0.62928012  0.53977800  1  0.007807  0  0.084442  0.113521  0  1.051336  0
H  H13  1  0.38620944  0.68843223  0.60590364  1  0.051963  0  0.080245  0.130372  0  1.025209  0
H  H14  1  0.43551435  0.63797166  0.66323986  1  0.00727  0  0.081225  0.110348  0  1.028914  0
H  H15  1  0.36720376  0.56745776  0.58207590  1  -0.009748  0  0.084505  0.119009  0  1.022067  0
H  H16  1  0.55936160  0.70736947  0.45975397  1  0.009977  0  0.083364  0.113295  0  1.039121  0
H  H17  1  0.45771374  0.72657409  0.48632963  1  0.035731  0  0.090482  0.128791  0  0.99068  0
H  H18  1  0.43841451  0.60345644  0.46610227  1  0.049031  0  0.08419  0.11668  0  1.015632  0
H  H19  1  0.22349896  0.20255175  0.73338933  1  0.065925  0  0.100729  0.106147  0  1.021956  0
H  H20  1  0.01450921  0.19921169  0.57948089  1  0.050304  0  0.096845  0.100154  0  1.041403  0
H  H21  1  0.06807632  0.88348152  0.61725190  1  0.064863  0  0.096246  0.062417  0  1.020568  0
H  H22  1  0.98950102  0.88251021  0.54734764  1  0.082298  0  0.091284  0.057677  0  1.044208  0
H  H23  1  0.05183634  0.72636569  0.55672717  1  0.086786  0  0.102795  0.081029  0  1.040679  0
H  H24  1  0.78404811  0.46209290  0.55059124  1  0.101998  0  0.107899  0.084334  0  1.015624  0
H  H25  1  0.69602669  0.55060050  0.60784890  1  0.078616  0  0.105709  0.10604  0  1.01813  0
H  H26  1  0.79087168  0.73871788  0.63128477  1  0.10226  0  0.112009  0.11833  0  0.999714  0
H  H27  1  0.23753863  0.29162442  0.54183201  1  0.012485  0  0.081522  0.111276  0  1.036589  0
H  H28  1  0.31959875  0.29238037  0.60867620  1  0.008676  0  0.084174  0.115098  0  1.016364  0
H  H29  1  0.33290550  0.40678609  0.58866653  1  0.009247  0  0.084597  0.116967  0  1.024499  0
H  H30  1  0.31258049  0.35415728  0.73723250  1  0.013853  0  0.083462  0.113622  0  1.01655  0
H  H31  1  0.21324645  0.37719375  0.76272600  1  0.030366  0  0.081149  0.116871  0  1.031495  0
H  H32  1  0.31222782  0.46122762  0.71581056  1  0.012646  0  0.085183  0.118698  0  1.0143  0
H  H33  1  0.08861761  0.36977714  0.66153838  1  0.030522  0  0.079305  0.112276  0  1.047774  0
H  H34  1  0.11302052  0.34798497  0.57211277  1  -0.00783  0  0.07869  0.109439  0  1.046663  0
H  H35  1  0.19976860  0.45776056  0.62685641  1  0.031107  0  0.083754  0.127469  0  1.015593  0
H  H36  1  0.91551911  0.20348803  0.97205890  1  0.056539  0  0.098094  0.100064  0  1.049155  0
H  H37  1  0.70410532  0.19469554  0.81749284  1  0.063865  0  0.102893  0.110985  0  1.023828  0
H  H38  1  0.57353705  0.87185832  0.85940024  1  0.081731  0  0.098912  0.068571  0  0.992432  0
H  H39  1  0.66041371  0.88217127  0.92750372  1  0.063167  0  0.098038  0.06437  0  1.006675  0
H  H40  1  0.57608748  0.72398848  0.96470329  1  0.112709  0  0.099052  0.076609  0  1.054732  0
H  H41  1  0.48869137  0.46291688  0.82913923  1  0.114323  0  0.105115  0.082083  0  1.024433  0
H  H42  1  0.53111743  0.55227683  0.72259675  1  0.072265  0  0.106111  0.10819  0  1.008603  0
H  H43  1  0.60759330  0.73936993  0.74141720  1  0.08617  0  0.107575  0.111591  0  1.023865  0
H  H44  1  0.97166126  0.46615556  0.94385101  1  0.046504  0  0.085738  0.11808  0  1.032464  0
H  H45  1  0.97243122  0.38179489  0.87220748  1  0.01466  0  0.083275  0.109967  0  1.036815  0
H  H46  1  0.99743201  0.37068853  0.96022633  1  0.027973  0  0.084378  0.113399  0  1.051357  0
H  H47  1  0.69778996  0.31156885  0.89408439  1  0.052224  0  0.080221  0.130337  0  1.025219  0
H  H48  1  0.79756551  0.36203166  0.83675298  1  0.024914  0  0.081225  0.110407  0  1.028811  0
H  H49  1  0.79975863  0.43253847  0.91792122  1  0.009682  0  0.08446  0.118845  0  1.022182  0
H  H50  1  0.85198376  0.29260988  0.04023636  1  0.013899  0  0.083411  0.113378  0  1.03911  0
H  H51  1  0.73113603  0.27340637  0.01366127  1  0.03948  0  0.090502  0.128907  0  0.990697  0
H  H52  1  0.83494998  0.39652214  0.03389697  1  0.01498  0  0.084229  0.116787  0  1.015604  0
H  H53  1  0.02091836  0.79741561  0.76660213  1  0.061682  0  0.100723  0.106183  0  1.021864  0
H  H54  1  0.81529468  0.80078628  0.92053046  1  0.034194  0  0.096788  0.100068  0  1.041536  0
H  H55  1  0.18458698  0.11647242  0.88274391  1  0.059273  0  0.096175  0.062435  0  1.020272  0
H  H56  1  0.10698387  0.11748486  0.95264234  1  0.084021  0  0.091278  0.057652  0  1.044253  0
H  H57  1  0.32552915  0.27361855  0.94316858  1  0.088919  0  0.102721  0.080917  0  1.041011  0
H  H58  1  0.32199746  0.53789748  0.94934483  1  0.066683  0  0.107853  0.084317  0  1.015224  0
H  H59  1  0.14542772  0.44937204  0.89214254  1  0.069423  0  0.105756  0.106159  0  1.017995  0
H  H60  1  0.05214597  0.26125180  0.86874353  1  0.094295  0  0.11198  0.118295  0  0.999873  0
H  H61  1  0.94591696  0.70835535  0.95816336  1  0.018541  0  0.08154  0.111363  0  1.036562  0
H  H62  1  0.02720685  0.70759463  0.89130511  1  0.017987  0  0.08421  0.115128  0  1.016312  0
H  H63  1  0.92611290  0.59318955  0.91132129  1  0.002231  0  0.084674  0.117049  0  1.024518  0
H  H64  1  0.95838376  0.64580937  0.76275749  1  0.022444  0  0.083503  0.113687  0  1.016558  0
H  H65  1  0.83601924  0.62279491  0.73727872  1  0.030876  0  0.081152  0.116823  0  1.031658  0
H  H66  1  0.85095131  0.53874554  0.78418319  1  0.050336  0  0.085165  0.118667  0  1.014211  0
H  H67  1  0.71882473  0.63020907  0.83848338  1  0.025608  0  0.079348  0.112363  0  1.047672  0
H  H68  1  0.76503142  0.65200311  0.92790783  1  -0.018068  0  0.078704  0.109444  0  1.046456  0
H  H69  1  0.74198892  0.54222346  0.87315774  1  0.074389  0  0.083664  0.127367  0  1.015563  0
H  H70  1  0.28797103  0.20349232  0.47206482  1  0.065747  0  0.098113  0.100144  0  1.049166  0
H  H71  1  0.49060500  0.19472228  0.31749084  1  0.071701  0  0.102926  0.111051  0  1.023725  0
H  H72  1  0.29836747  0.87188459  0.35938590  1  0.076771  0  0.098873  0.068427  0  0.992377  0
H  H73  1  0.22180975  0.88220212  0.42750261  1  0.068804  0  0.098001  0.06428  0  1.006731  0
H  H74  1  0.14798246  0.72399545  0.46469814  1  0.108733  0  0.099184  0.076749  0  1.054806  0
H  H75  1  0.97425330  0.46295125  0.32913282  1  0.157879  0  0.105052  0.081915  0  1.024385  0
H  H76  1  0.02117089  0.55231994  0.22259459  1  0.070067  0  0.106161  0.108316  0  1.008682  0
H  H77  1  0.13179238  0.73941216  0.24142369  1  0.080811  0  0.107652  0.111702  0  1.023858  0
H  H78  1  0.49452040  0.46616872  0.44384304  1  0.007775  0  0.08571  0.118073  0  1.03258  0
H  H79  1  0.40939351  0.38180924  0.37220263  1  0.017848  0  0.083267  0.109923  0  1.036942  0
H  H80  1  0.37328227  0.37071956  0.46022240  1  0.007798  0  0.084442  0.113529  0  1.051312  0
H  H81  1  0.61378968  0.31156745  0.39409676  1  0.051961  0  0.08027  0.130424  0  1.025162  0
H  H82  1  0.56448542  0.36202802  0.33676106  1  0.007277  0  0.081218  0.110344  0  1.028913  0
H  H83  1  0.63279667  0.43254192  0.41792449  1  -0.009742  0  0.084494  0.119015  0  1.02202  0
H  H84  1  0.44063742  0.29262872  0.54024628  1  0.009973  0  0.083363  0.113333  0  1.039109  0
H  H85  1  0.54228566  0.27342484  0.51367017  1  0.035716  0  0.090517  0.128856  0  0.990684  0
H  H86  1  0.56158489  0.39654250  0.53389910  1  0.049015  0  0.084187  0.116688  0  1.015645  0
H  H87  1  0.77650053  0.79744867  0.26661010  1  0.065929  0  0.100726  0.106172  0  1.021946  0
H  H88  1  0.98548962  0.80078873  0.42051802  1  0.050326  0  0.09685  0.100163  0  1.041391  0
H  H89  1  0.93192383  0.11651890  0.38274752  1  0.06486  0  0.096249  0.062418  0  1.02054  0
H  H90  1  0.01049978  0.11749021  0.45265126  1  0.082338  0  0.091304  0.057703  0  1.04419  0
H  H91  1  0.94816445  0.27363473  0.44327225  1  0.086808  0  0.102808  0.08104  0  1.040661  0
H  H92  1  0.21595109  0.53790826  0.44940774  1  0.101975  0  0.107926  0.084348  0  1.015726  0
H  H93  1  0.30397288  0.44940141  0.39215016  1  0.078816  0  0.105708  0.106028  0  1.018114  0
H  H94  1  0.20912949  0.26128329  0.36871473  1  0.102276  0  0.112011  0.118343  0  0.999711  0
H  H95  1  0.76246319  0.70837675  0.45816801  1  0.012544  0  0.081515  0.111251  0  1.036557  0
H  H96  1  0.68040204  0.70762005  0.39132375  1  0.008687  0  0.084194  0.115143  0  1.01639  0
H  H97  1  0.66709427  0.59321359  0.41133335  1  0.009243  0  0.084583  0.116945  0  1.024505  0
H  H98  1  0.68741993  0.64584239  0.26276633  1  0.013848  0  0.08345  0.113595  0  1.016563  0
H  H99  1  0.78675369  0.62280667  0.23727343  1  0.030362  0  0.081143  0.116852  0  1.031518  0
H  H100  1  0.68777195  0.53877205  0.28418880  1  0.012642  0  0.085178  0.11868  0  1.014296  0
H  H101  1  0.91138253  0.63022328  0.33846052  1  0.030512  0  0.079301  0.112268  0  1.047799  0
H  H102  1  0.88698028  0.65201545  0.42788614  1  -0.007885  0  0.078676  0.109427  0  1.046709  0
H  H103  1  0.80023117  0.54223912  0.37314190  1  0.031109  0  0.08376  0.127459  0  1.015626  0
H  H104  1  0.08448103  0.79651239  0.02794158  1  0.056556  0  0.098097  0.100079  0  1.049174  0
H  H105  1  0.29589510  0.80530414  0.18250756  1  0.063869  0  0.102862  0.110955  0  1.023876  0
H  H106  1  0.42646366  0.12814061  0.14060061  1  0.081806  0  0.098908  0.068543  0  0.992407  0
H  H107  1  0.33958700  0.11782767  0.07249765  1  0.063203  0  0.09804  0.064358  0  1.006725  0
H  H108  1  0.42391220  0.27600971  0.03529696  1  0.112721  0  0.099062  0.076638  0  1.05472  0
H  H109  1  0.51130708  0.53708279  0.17085960  1  0.114328  0  0.105132  0.082126  0  1.024438  0
H  H110  1  0.46888337  0.44772359  0.27740268  1  0.07227  0  0.106125  0.108194  0  1.008605  0
H  H111  1  0.39240918  0.26063124  0.25858335  1  0.08619  0  0.107576  0.111598  0  1.023867  0
H  H112  1  0.02833851  0.53384412  0.05614991  1  0.046514  0  0.085722  0.118083  0  1.03248  0
H  H113  1  0.02756921  0.61820480  0.12779397  1  0.014626  0  0.083259  0.109949  0  1.036824  0
H  H114  1  0.00256776  0.62931115  0.03977459  1  0.028001  0  0.084378  0.11341  0  1.051344  0
H  H115  1  0.30221121  0.68843232  0.10591563  1  0.052194  0  0.080205  0.130303  0  1.025235  0
H  H116  1  0.20243557  0.63796801  0.16324690  1  0.024904  0  0.081232  0.110422  0  1.028817  0
H  H117  1  0.20024320  0.56746270  0.08207881  1  0.009661  0  0.084454  0.118851  0  1.022198  0
H  H118  1  0.14801507  0.70739055  0.95976412  1  0.013882  0  0.083428  0.113408  0  1.039077  0
H  H119  1  0.26886243  0.72659331  0.98633861  1  0.039419  0  0.090508  0.12893  0  0.990691  0
H  H120  1  0.16504914  0.60347754  0.96610343  1  0.014977  0  0.084214  0.116774  0  1.01561  0
H  H121  1  0.97908132  0.20258257  0.23339655  1  0.061704  0  0.100739  0.106204  0  1.021861  0
H  H122  1  0.18470584  0.19921489  0.07946956  1  0.034222  0  0.096784  0.10007  0  1.041532  0
H  H123  1  0.81541438  0.88352651  0.11725484  1  0.059312  0  0.096161  0.062356  0  1.020344  0
H  H124  1  0.89301638  0.88251184  0.04735776  1  0.083857  0  0.091278  0.057646  0  1.044281  0
H  H125  1  0.67447165  0.72638188  0.05683294  1  0.088932  0  0.102713  0.080852  0  1.041022  0
H  H126  1  0.67799931  0.46210146  0.05065497  1  0.066651  0  0.107847  0.084335  0  1.015208  0
H  H127  1  0.85456757  0.55062391  0.10785696  1  0.0686  0  0.105773  0.106158  0  1.01788  0
H  H128  1  0.94785391  0.73874416  0.13125806  1  0.094253  0  0.111992  0.118324  0  0.99983  0
H  H129  1  0.05408458  0.29164657  0.04183727  1  0.018428  0  0.081551  0.111372  0  1.036594  0
H  H130  1  0.97279338  0.29240728  0.10869447  1  0.018002  0  0.084205  0.115123  0  1.016327  0
H  H131  1  0.07388827  0.40681162  0.08867874  1  0.002392  0  0.084664  0.117065  0  1.024472  0
H  H132  1  0.04161507  0.35419105  0.23724246  1  0.022406  0  0.083507  0.113696  0  1.016579  0
H  H133  1  0.16397866  0.37720625  0.26272131  1  0.030802  0  0.081145  0.11684  0  1.031746  0
H  H134  1  0.14904649  0.46125414  0.21581669  1  0.050334  0  0.085177  0.11869  0  1.014238  0
H  H135  1  0.28117551  0.36979284  0.16151881  1  0.025534  0  0.079325  0.112329  0  1.04769  0
H  H136  1  0.23496947  0.34799881  0.07209437  1  -0.018015  0  0.07869  0.109427  0  1.046378  0
H  H137  1  0.25801028  0.45777771  0.12684334  1  0.074366  0  0.083651  0.127354  0  1.015576  0
C  C138  1  0.65101224  0.93851590  0.68409932  1  -0.148213  0  -0.015843  -0.017697  0  4.03886  0
C  C139  1  0.74225149  0.98792414  0.65212653  1  0.534998  0  0.077255  0.164334  0  4.01176  0
C  C140  1  0.76428254  0.93433005  0.59663557  1  -0.114961  0  -0.014869  -0.012859  0  4.01138  0
C  C141  1  0.69288004  0.83524417  0.57151522  1  -0.040398  0  -0.096087  -0.171227  0  3.957894  0
C  C142  1  0.59847059  0.78745186  0.59976599  1  0.028384  0  -0.006754  0.071776  0  3.890655  0
C  C143  1  0.58028337  0.83983333  0.65739843  1  -0.03566  0  -0.097315  -0.175788  0  3.985947  0
C  C144  1  0.77869723  0.14383027  0.62900815  1  0.390366  0  -0.060435  -0.011071  0  3.909602  0
C  C145  1  0.85113531  0.25322538  0.64545761  1  0.00375  0  -0.00555  0.056601  0  3.94713  0
C  C146  1  0.88008574  0.31013666  0.59012437  1  0.497033  0  0.043486  0.030513  0  3.921167  0
C  C147  1  0.97494104  0.45681293  0.66615268  1  0.448219  0  0.047364  0.090828  0  3.949108  0
C  C148  1  0.94968114  0.40609364  0.72457570  1  -0.023902  0  -0.08546  -0.133546  0  4.004786  0
C  C149  1  0.88805471  0.30290199  0.71424041  1  -0.048823  0  -0.065074  -0.075837  0  3.911414  0
C  C150  1  0.51929031  0.68123219  0.56849807  1  0.089205  0  -0.012607  0.243491  0  3.79901  0
C  C151  1  0.56326444  0.61170203  0.57312707  1  -0.051667  0  -0.245929  -0.427089  0  3.901351  0
C  C152  1  0.42233961  0.64262238  0.60760829  1  -0.039355  0  -0.248871  -0.424574  0  3.901933  0
C  C153  1  0.49240357  0.67986713  0.49038480  1  -0.091185  0  -0.240883  -0.405939  0  3.878329  0
C  C154  1  0.97683313  0.05917703  0.61157733  1  -0.132529  0  -0.017  -0.020267  0  4.027203  0
C  C155  1  0.00513300  0.00775664  0.65347384  1  0.532929  0  0.077651  0.166806  0  4.012598  0
C  C156  1  0.09394407  0.06152846  0.69830571  1  -0.181996  0  -0.01577  -0.01611  0  4.021758  0
C  C157  1  0.15531122  0.16384089  0.69796704  1  0.022164  0  -0.091615  -0.156284  0  3.954035  0
C  C158  1  0.13059000  0.21559689  0.65410385  1  0.008946  0  -0.003916  0.075675  0  3.866763  0
C  C159  1  0.03915562  0.16187751  0.61252094  1  0.027628  0  -0.093807  -0.163449  0  3.963225  0
C  C160  1  0.98935545  0.85862471  0.59948999  1  0.398527  0  -0.06385  -0.01991  0  3.93597  0
C  C161  1  0.92745744  0.74770053  0.59255406  1  -0.017501  0  -0.004036  0.059684  0  3.945192  0
C  C162  1  0.97157440  0.69108955  0.56585506  1  0.529083  0  0.043481  0.03086  0  3.922675  0
C  C163  1  0.82267195  0.54288788  0.56508325  1  0.507761  0  0.042646  0.083066  0  3.950749  0
C  C164  1  0.77432258  0.59297178  0.59537070  1  -0.127909  0  -0.084371  -0.12946  0  4.008018  0
C  C165  1  0.82674849  0.69688978  0.60862834  1  0.029783  0  -0.06568  -0.081961  0  3.920435  0
C  C166  1  0.20362125  0.32557762  0.64941393  1  0.078089  0  -0.012779  0.240202  0  3.798159  0
C  C167  1  0.27808633  0.32917707  0.59376038  1  -0.049764  0  -0.242328  -0.411737  0  3.890481  0
C  C168  1  0.26356665  0.38217576  0.72049331  1  -0.054094  0  -0.244974  -0.411602  0  3.899997  0
C  C169  1  0.14794323  0.37784706  0.62617236  1  -0.037246  0  -0.251488  -0.415794  0  3.887904  0
C  C170  1  0.71249517  0.06146448  0.81590527  1  -0.098698  0  -0.015963  -0.017994  0  4.038765  0
C  C171  1  0.75432874  0.01206152  0.84787696  1  0.524405  0  0.077357  0.164606  0  4.01142  0
C  C172  1  0.82996110  0.06566181  0.90336393  1  -0.058695  0  -0.014936  -0.013031  0  4.011399  0
C  C173  1  0.85763905  0.16475085  0.92847747  1  -0.041916  0  -0.096008  -0.171074  0  3.957882  0
C  C174  1  0.81102137  0.21253420  0.90022641  1  0.014698  0  -0.006766  0.071738  0  3.890714  0
C  C175  1  0.74044126  0.16014725  0.84260217  1  -0.080158  0  -0.097259  -0.175603  0  3.985902  0
C  C176  1  0.63488608  0.85614613  0.87099424  1  0.394589  0  -0.060584  -0.011507  0  3.909464  0
C  C177  1  0.59791657  0.74675305  0.85453697  1  0.017775  0  -0.005379  0.056815  0  3.946922  0
C  C178  1  0.56999317  0.68985591  0.90987531  1  0.423226  0  0.043723  0.030852  0  3.920851  0
C  C179  1  0.51812580  0.54315713  0.83385237  1  0.503967  0  0.04732  0.090474  0  3.949184  0
C  C180  1  0.54358760  0.59387120  0.77542777  1  -0.107971  0  -0.085424  -0.133128  0  4.004504  0
C  C181  1  0.58513513  0.69706069  0.78575508  1  0.009015  0  -0.065138  -0.075922  0  3.911713  0
C  C182  1  0.83806430  0.31875934  0.93149459  1  0.065655  0  -0.012798  0.243467  0  3.798773  0
C  C183  1  0.95157158  0.38828279  0.92687572  1  -0.105395  0  -0.245851  -0.426987  0  3.901273  0
C  C184  1  0.77973307  0.35737514  0.89238567  1  -0.076009  0  -0.248767  -0.424434  0  3.901816  0
C  C185  1  0.81253265  0.32011497  0.00960419  1  -0.064621  0  -0.240939  -0.406273  0  3.878527  0
C  C186  1  0.91766284  0.94081480  0.88842398  1  -0.047242  0  -0.017002  -0.020287  0  4.027595  0
C  C187  1  0.99737126  0.99222476  0.84651779  1  0.512806  0  0.077694  0.166842  0  4.013089  0
C  C188  1  0.03240127  0.93844768  0.80168716  1  -0.121446  0  -0.015735  -0.01575  0  4.021697  0
C  C189  1  0.99144621  0.83612789  0.80202738  1  -0.051352  0  -0.091509  -0.156408  0  3.954179  0
C  C190  1  0.91497637  0.78438582  0.84589819  1  0.032671  0  -0.003997  0.075636  0  3.866856  0
C  C191  1  0.87727358  0.83811183  0.88748758  1  -0.014013  0  -0.093646  -0.163268  0  3.96331  0
C  C192  1  0.13073421  0.14135014  0.90049731  1  0.39656  0  -0.063824  -0.019832  0  3.935156  0
C  C193  1  0.17977814  0.25227732  0.90741894  1  -0.008822  0  -0.003736  0.060142  0  3.944632  0
C  C194  1  0.28052832  0.30888962  0.93406352  1  0.534625  0  0.043478  0.031096  0  3.922585  0
C  C195  1  0.27980780  0.45709215  0.93486907  1  0.502796  0  0.042646  0.083207  0  3.950866  0
C  C196  1  0.18137133  0.40701205  0.90460725  1  0.016978  0  -0.084426  -0.129719  0  4.007708  0
C  C197  1  0.12986159  0.30308444  0.89137061  1  -0.06515  0  -0.065901  -0.08221  0  3.91991  0
C  C198  1  0.87802353  0.67439971  0.85059002  1  0.079441  0  -0.012891  0.240193  0  3.797592  0
C  C199  1  0.94890165  0.67079800  0.90623118  1  -0.058924  0  -0.242534  -0.412067  0  3.890576  0
C  C200  1  0.88135574  0.61780421  0.77950539  1  -0.101179  0  -0.244945  -0.41158  0  3.900069  0
C  C201  1  0.77008148  0.62213709  0.87384609  1  -0.063485  0  -0.251421  -0.415705  0  3.887204  0
C  C202  1  0.34898818  0.06148378  0.31590056  1  -0.14825  0  -0.015899  -0.017849  0  4.038768  0
C  C203  1  0.25774837  0.01207703  0.34787350  1  0.535012  0  0.077366  0.164528  0  4.01157  0
C  C204  1  0.23571563  0.06567037  0.40336334  1  -0.11498  0  -0.014905  -0.01291  0  4.011456  0
C  C205  1  0.30711945  0.16475625  0.42848474  1  -0.040538  0  -0.096122  -0.171244  0  3.958021  0
C  C206  1  0.40152881  0.21254707  0.40023381  1  0.028401  0  -0.006769  0.07167  0  3.890855  0
C  C207  1  0.41971706  0.16016634  0.34260144  1  -0.035666  0  -0.097263  -0.175653  0  3.985996  0
C  C208  1  0.22130234  0.85617165  0.37099248  1  0.390332  0  -0.060455  -0.011146  0  3.909743  0
C  C209  1  0.14886521  0.74677579  0.35454241  1  0.003779  0  -0.005535  0.056646  0  3.946968  0
C  C210  1  0.11991318  0.68986525  0.40987678  1  0.496751  0  0.043505  0.030504  0  3.921039  0
C  C211  1  0.02506013  0.54318824  0.33384787  1  0.448235  0  0.047292  0.090761  0  3.949213  0
C  C212  1  0.05031937  0.59390753  0.27542537  1  -0.023851  0  -0.08545  -0.133573  0  4.004762  0
C  C213  1  0.11194609  0.69709844  0.28576059  1  -0.048932  0  -0.065068  -0.075763  0  3.911421  0
C  C214  1  0.48070946  0.31876749  0.43150180  1  0.089197  0  -0.012627  0.243494  0  3.799017  0
C  C215  1  0.43673431  0.38829690  0.42687220  1  -0.051883  0  -0.245913  -0.42705  0  3.901327  0
C  C216  1  0.57765978  0.35737655  0.39239256  1  -0.039346  0  -0.248874  -0.424619  0  3.901854  0
C  C217  1  0.50759545  0.32013106  0.50961493  1  -0.091156  0  -0.240906  -0.406063  0  3.878384  0
C  C218  1  0.02316570  0.94082339  0.38842210  1  -0.132369  0  -0.017043  -0.020325  0  4.027224  0
C  C219  1  0.99486714  0.99224378  0.34652559  1  0.532919  0  0.077685  0.166864  0  4.012587  0
C  C220  1  0.90605570  0.93847121  0.30169416  1  -0.181999  0  -0.015757  -0.016099  0  4.021703  0
C  C221  1  0.84468818  0.83615804  0.30203224  1  0.022125  0  -0.091535  -0.156239  0  3.953912  0
C  C222  1  0.86940911  0.78440279  0.34589550  1  0.009018  0  -0.003983  0.075619  0  3.866722  0
C  C223  1  0.96084377  0.83812142  0.38747834  1  0.02762  0  -0.093804  -0.163448  0  3.963227  0
C  C224  1  0.01064572  0.14137645  0.40050899  1  0.398543  0  -0.063847  -0.019881  0  3.935855  0
C  C225  1  0.07254307  0.25230063  0.40744439  1  -0.017438  0  -0.004058  0.059608  0  3.945233  0
C  C226  1  0.02842705  0.30891088  0.43414593  1  0.528976  0  0.04347  0.030864  0  3.922732  0
C  C227  1  0.17732725  0.45711328  0.43491521  1  0.507732  0  0.042578  0.082971  0  3.950817  0
C  C228  1  0.22567793  0.40702939  0.40462828  1  -0.128127  0  -0.084292  -0.129327  0  4.007923  0
C  C229  1  0.17325202  0.30311138  0.39137011  1  0.029811  0  -0.065745  -0.082061  0  3.920553  0
C  C230  1  0.79637851  0.67442205  0.35058490  1  0.078055  0  -0.012754  0.240225  0  3.798128  0
C  C231  1  0.72191344  0.67082261  0.40623950  1  -0.04981  0  -0.242323  -0.411724  0  3.890435  0
C  C232  1  0.73643311  0.61782391  0.27950604  1  -0.054117  0  -0.244966  -0.411555  0  3.900039  0
C  C233  1  0.85205720  0.62215262  0.37382699  1  -0.03717  0  -0.251494  -0.415778  0  3.887982  0
C  C234  1  0.28750489  0.93853446  0.18409558  1  -0.098656  0  -0.015987  -0.01799  0  4.038784  0
C  C235  1  0.24567234  0.98793816  0.15212292  1  0.524679  0  0.077344  0.16456  0  4.011452  0
C  C236  1  0.17003970  0.93433862  0.09663707  1  -0.058581  0  -0.014933  -0.013007  0  4.011459  0
C  C237  1  0.14236109  0.83524957  0.07152301  1  -0.0421  0  -0.095989  -0.171076  0  3.957884  0
C  C238  1  0.18897943  0.78746622  0.09977406  1  0.015017  0  -0.00679  0.071691  0  3.890803  0
C  C239  1  0.25955879  0.83985169  0.15739867  1  -0.080237  0  -0.09723  -0.175586  0  3.985954  0
C  C240  1  0.36511537  0.14385429  0.12900676  1  0.394486  0  -0.060556  -0.011419  0  3.909429  0
C  C241  1  0.40208488  0.25324738  0.14546350  1  0.017829  0  -0.005373  0.056798  0  3.946845  0
C  C242  1  0.43000837  0.31014600  0.09012426  1  0.423214  0  0.043701  0.0308  0  3.920914  0
C  C243  1  0.48187332  0.45684255  0.16614698  1  0.503971  0  0.047261  0.090387  0  3.949262  0
C  C244  1  0.45641356  0.40612996  0.22457173  1  -0.108166  0  -0.08544  -0.133098  0  4.004543  0
C  C245  1  0.41486735  0.30294048  0.21424599  1  0.009185  0  -0.065123  -0.075949  0  3.911765  0
C  C246  1  0.16193584  0.68124108  0.06850536  1  0.065556  0  -0.012816  0.243477  0  3.798735  0
C  C247  1  0.04842819  0.61171689  0.07312520  1  -0.105385  0  -0.245802  -0.426964  0  3.901226  0
C  C248  1  0.22026838  0.64262528  0.10761429  1  -0.075955  0  -0.248761  -0.42443  0  3.90185  0
C  C249  1  0.18746647  0.67988471  0.99039621  1  -0.064542  0  -0.240933  -0.406312  0  3.878496  0
C  C250  1  0.08233824  0.05918487  0.11157590  1  -0.047146  0  -0.016995  -0.020338  0  4.027605  0
C  C251  1  0.00262851  0.00777491  0.15348156  1  0.512862  0  0.07768  0.166852  0  4.012928  0
C  C252  1  0.96759981  0.06155200  0.19831429  1  -0.12163  0  -0.015741  -0.015773  0  4.021649  0
C  C253  1  0.00855524  0.16387253  0.19797362  1  -0.051198  0  -0.091498  -0.15638  0  3.954082  0
C  C254  1  0.08502377  0.21561460  0.15410176  1  0.032637  0  -0.004  0.075636  0  3.866873  0
C  C255  1  0.12272619  0.16188785  0.11251230  1  -0.01415  0  -0.093652  -0.16326  0  3.963305  0
C  C256  1  0.86926603  0.85864656  0.09950226  1  0.396654  0  -0.063771  -0.019729  0  3.935147  0
C  C257  1  0.82022248  0.74772013  0.09258175  1  -0.00871  0  -0.003824  0.060031  0  3.944645  0
C  C258  1  0.71947071  0.69110858  0.06593829  1  0.534712  0  0.043509  0.031288  0  3.922394  0
C  C259  1  0.72018832  0.54290678  0.06513073  1  0.50278  0  0.042688  0.08323  0  3.950985  0
C  C260  1  0.81862330  0.59298391  0.09539382  1  0.017872  0  -0.084474  -0.129707  0  4.007652  0
C  C261  1  0.87013801  0.69691226  0.10863053  1  -0.065201  0  -0.065892  -0.082255  0  3.919906  0
C  C262  1  0.12197456  0.32559922  0.14940978  1  0.079155  0  -0.012815  0.240348  0  3.797688  0
C  C263  1  0.05109886  0.32920317  0.09376884  1  -0.058702  0  -0.242559  -0.412139  0  3.890635  0
C  C264  1  0.11864206  0.38219547  0.22049448  1  -0.101084  0  -0.244968  -0.411688  0  3.900285  0
C  C265  1  0.22991838  0.37786408  0.12615551  1  -0.063395  0  -0.251398  -0.415693  0  3.887196  0
S  S266  1  0.87222273  0.99330870  0.54796283  1  0.089076  0  0.011825  -0.024766  0  2.787168  0
S  S267  1  0.87893178  0.00669427  0.95203711  1  0.079497  0  0.011809  -0.024759  0  2.787377  0
S  S268  1  0.12777639  0.00669098  0.45203653  1  0.08891  0  0.01185  -0.024735  0  2.787146  0
S  S269  1  0.12107005  0.99330690  0.04796397  1  0.079378  0  0.011824  -0.024745  0  2.78745  0
S  S270  1  0.61149992  0.99998287  0.75000831  1  0.105442  0  0.013962  -0.020114  0  2.756913  0
S  S271  1  0.13590211  0.99998074  0.74999083  1  0.089692  0  0.010446  -0.025418  0  2.737749  0
S  S272  1  0.38849911  0.00001532  0.24999246  1  0.10544  0  0.013964  -0.020086  0  2.756965  0
S  S273  1  0.86409794  0.00001819  0.25000845  1  0.089708  0  0.01041  -0.025454  0  2.737776  0
Br  Br274  1  0.17518926  0.64041616  0.57628406  1  -0.673754  0  -0.370912  -0.57852  0  1.021596  0
Br  Br275  1  0.53486869  0.35964864  0.92372677  1  -0.67364  0  -0.370903  -0.57861  0  1.021737  0
Br  Br276  1  0.82481256  0.35958501  0.42371649  1  -0.673731  0  -0.370943  -0.578585  0  1.021556  0
Br  Br277  1  0.46513285  0.64035327  0.07627386  1  -0.673652  0  -0.370903  -0.578606  0  1.02171  0
N  N278  1  0.94096666  0.40915371  0.60006023  1  -1.259437  0  -0.325276  -0.212574  0  3.513855  0
N  N279  1  0.92016685  0.59163355  0.55124751  1  -1.248562  0  -0.32672  -0.212111  0  3.533003  0
N  N280  1  0.53184264  0.59083579  0.89994480  1  -1.199837  0  -0.325305  -0.212764  0  3.513941  0
N  N281  1  0.32857252  0.40835085  0.94867477  1  -1.25017  0  -0.326646  -0.212403  0  3.533486  0
N  N282  1  0.05903460  0.59084894  0.39993995  1  -1.259444  0  -0.325265  -0.212557  0  3.513904  0
N  N283  1  0.07983292  0.40836613  0.44875237  1  -1.248575  0  -0.326655  -0.211968  0  3.532991  0
N  N284  1  0.46815647  0.40916388  0.10005403  1  -1.199887  0  -0.325277  -0.212717  0  3.514005  0
N  N285  1  0.67142491  0.59164808  0.05132608  1  -1.250265  0  -0.326637  -0.212506  0  3.533495  0
O  O286  1  0.80636365  0.08879953  0.67140403  1  -1.057868  0  -0.195894  -0.222312  0  2.514807  0
O  O287  1  0.94838342  0.90540860  0.64855386  1  -1.084291  0  -0.193785  -0.220407  0  2.54259  0
O  O288  1  0.71757791  0.91118672  0.82859520  1  -1.058273  0  -0.195878  -0.222193  0  2.514592  0
O  O289  1  0.04297501  0.09457063  0.85143498  1  -1.088329  0  -0.193811  -0.220677  0  2.542501  0
O  O290  1  0.19363621  0.91120163  0.32859599  1  -1.057815  0  -0.1959  -0.222321  0  2.514845  0
O  O291  1  0.05161672  0.09459182  0.35144504  1  -1.084328  0  -0.193808  -0.220453  0  2.54263  0
O  O292  1  0.28242214  0.08881222  0.17140512  1  -1.058543  0  -0.195881  -0.222172  0  2.514525  0
O  O293  1  0.95702533  0.90542756  0.14856475  1  -1.088351  0  -0.193832  -0.220675  0  2.542369  0
