# generated using pymatgen
data_CuH18(C8O5)2
_symmetry_space_group_name_H-M   'P 1'
_cell_length_a   3.75496914
_cell_length_b   14.62026350
_cell_length_c   14.53242938
_cell_angle_alpha   95.67232795
_cell_angle_beta   90.00015334
_cell_angle_gamma   90.00003420
_symmetry_Int_Tables_number   1
_chemical_formula_structural   CuH18(C8O5)2
_chemical_formula_sum   'Cu2 H36 C32 O20'
_cell_volume   793.90404266
_cell_formula_units_Z   2
loop_
 _symmetry_equiv_pos_site_id
 _symmetry_equiv_pos_as_xyz
  1  'x, y, z'
loop_
 _atom_site_type_symbol
 _atom_site_label
 _atom_site_symmetry_multiplicity
 _atom_site_fract_x
 _atom_site_fract_y
 _atom_site_fract_z
 _atom_site_occupancy
 _atom_site_hle17_ddec_charge
 _atom_site_hle17_ddec_spin_density
 _atom_site_hle17_ddec_sum_bond_order
 _atom_site_hle17_magmom
 _atom_site_hse06_10hf_ddec_charge
 _atom_site_hse06_10hf_ddec_spin_density
 _atom_site_hse06_10hf_ddec_sum_bond_order
 _atom_site_hse06_10hf_magmom
 _atom_site_hse06_ddec_charge
 _atom_site_hse06_ddec_spin_density
 _atom_site_hse06_ddec_sum_bond_order
 _atom_site_hse06_magmom
 _atom_site_pbe_cm5_charge
 _atom_site_pbe_ddec_charge
 _atom_site_pbe_ddec_spin_density
 _atom_site_pbe_ddec_sum_bond_order
 _atom_site_pbe_magmom
Cu  Cu0  1  0.00000649  0.99999850  0.00000131  1  1.075992  0.738041  1.594583  0.545  1.085332  0.840936  1.964831  0.676  1.164119  0.904173  1.907664  0.755  0.718492  1.025161  0.791242  2.016771  0.621
Cu  Cu1  1  0.49999979  0.99999896  0.50000110  1  1.076042  -0.73803  1.594538  -0.545  1.085393  -0.840937  1.964781  -0.676  1.164192  -0.904175  1.907611  -0.755  0.718533  1.025225  -0.791244  2.016727  -0.621
H  H2  1  0.49257902  0.12308115  0.97893636  1  0.421123  3.7e-05  0.892104  0.0  0.388905  0.000565  0.960521  0.001  0.401933  0.000384  0.941765  0.001  0.287946  0.379632  0.000696  0.973789  0.001
H  H3  1  0.99257371  0.87691805  0.52106355  1  0.421116  -3.7e-05  0.892114  0.0  0.388891  -0.000566  0.960543  -0.001  0.401919  -0.000384  0.941786  -0.001  0.287948  0.37962  -0.000696  0.97381  -0.001
H  H4  1  0.50743006  0.87691622  0.02106362  1  0.42112  3.8e-05  0.892105  0.0  0.38891  0.000565  0.960515  0.001  0.401938  0.000384  0.941758  0.001  0.287953  0.379638  0.000696  0.973781  0.001
H  H5  1  0.00742472  0.12308000  0.47893719  1  0.421152  -3.7e-05  0.892064  0.0  0.388931  -0.000566  0.960488  -0.001  0.401959  -0.000384  0.941731  -0.001  0.287962  0.37966  -0.000696  0.973754  -0.001
H  H6  1  0.32905648  0.08267690  0.87694509  1  0.431994  0.000116  0.865435  0.0  0.40708  0.00061  0.919307  0.001  0.41964  0.000431  0.901208  0.0  0.299044  0.397928  0.000722  0.932422  0.001
H  H7  1  0.82905495  0.91732157  0.62305464  1  0.431956  -0.000114  0.865487  0.0  0.407065  -0.00061  0.919325  -0.001  0.419616  -0.000431  0.90124  0.0  0.299026  0.397908  -0.000722  0.932448  -0.001
H  H8  1  0.67094195  0.91732252  0.12305580  1  0.431981  0.000118  0.865444  0.0  0.407096  0.00061  0.919271  0.001  0.419646  0.000431  0.901189  0.0  0.299064  0.397937  0.000722  0.932396  0.001
H  H9  1  0.17093815  0.08267579  0.37694535  1  0.431993  -0.000115  0.865442  0.0  0.407108  -0.00061  0.919273  -0.001  0.41966  -0.000431  0.901186  0.0  0.299037  0.397948  -0.000722  0.932399  -0.001
H  H10  1  0.81752441  0.91482185  0.79148849  1  0.4003  0.000277  0.876763  0.0  0.37345  0.00039  0.945946  0.0  0.38598  0.000231  0.932397  0.0  0.308879  0.364632  0.000545  0.955306  0.0
H  H11  1  0.31751626  0.08517729  0.70851336  1  0.400351  -0.000276  0.87669  0.0  0.373463  -0.00039  0.945919  0.0  0.386008  -0.000231  0.932356  0.0  0.308904  0.364656  -0.000545  0.955268  0.0
H  H12  1  0.18247402  0.08517824  0.20851454  1  0.400336  0.000277  0.876752  0.0  0.37349  0.000389  0.945937  0.0  0.386024  0.000231  0.932381  0.0  0.308888  0.364673  0.000544  0.955299  0.0
H  H13  1  0.68248217  0.91482213  0.29148753  1  0.400313  -0.000277  0.876744  0.0  0.373466  -0.00039  0.945922  0.0  0.385998  -0.000231  0.932373  0.0  0.308887  0.364647  -0.000545  0.955282  0.0
H  H14  1  0.62712488  0.75726915  0.59626796  1  0.139379  -7e-06  0.956745  0.0  0.147198  2e-06  1.020088  0.0  0.150637  -1e-06  1.019398  0.0  0.109931  0.144763  4e-06  1.020746  0.0
H  H15  1  0.12710840  0.24273272  0.90373060  1  0.139296  1e-06  0.956661  0.0  0.147095  -2e-06  1.020069  0.0  0.150548  1e-06  1.019362  0.0  0.109904  0.144659  -4e-06  1.020723  0.0
H  H16  1  0.37286290  0.24273369  0.40373605  1  0.139356  -1.1e-05  0.956758  0.0  0.14716  2e-06  1.020133  0.0  0.15062  -1e-06  1.019416  0.0  0.109948  0.144724  4e-06  1.020789  0.0
H  H17  1  0.87287671  0.75726809  0.09626837  1  0.139271  5e-06  0.956644  0.0  0.147073  -2e-06  1.020052  0.0  0.150524  1e-06  1.019347  0.0  0.109887  0.144638  -4e-06  1.020705  0.0
H  H18  1  0.16063141  0.53959967  0.72324512  1  0.112501  0.000118  0.957457  0.0  0.123141  8.8e-05  1.020757  0.0  0.126723  5.1e-05  1.019345  0.0  0.103588  0.12057  0.000123  1.021966  0.0
H  H19  1  0.66063037  0.46039878  0.77675241  1  0.112581  -0.000121  0.957424  0.0  0.123199  -8.8e-05  1.020736  0.0  0.126783  -5.1e-05  1.019323  0.0  0.103609  0.120627  -0.000123  1.021947  0.0
H  H20  1  0.83936435  0.46039910  0.27675088  1  0.112555  0.000122  0.957377  0.0  0.123186  8.8e-05  1.020679  0.0  0.126768  5.1e-05  1.019265  0.0  0.103595  0.120615  0.000123  1.021889  0.0
H  H21  1  0.33936805  0.53960134  0.22324717  1  0.112529  -0.000119  0.957444  0.0  0.123165  -8.8e-05  1.020739  0.0  0.126748  -5.1e-05  1.019325  0.0  0.103608  0.120595  -0.000123  1.021948  0.0
H  H22  1  0.29340563  0.64983851  0.86079852  1  0.093646  -2.2e-05  0.963855  0.0  0.106038  -3e-06  1.023211  0.0  0.1083  -5e-06  1.021703  0.0  0.10649  0.104348  4e-06  1.024346  0.0
H  H23  1  0.79339230  0.35015859  0.63919897  1  0.093648  1.8e-05  0.963852  0.0  0.106024  3e-06  1.023217  0.0  0.108258  5e-06  1.021745  0.0  0.106474  0.104347  -4e-06  1.02434  0.0
H  H24  1  0.70659280  0.35015748  0.13920063  1  0.093641  -2.4e-05  0.963869  0.0  0.10604  -3e-06  1.023213  0.0  0.108309  -5e-06  1.021697  0.0  0.106499  0.104351  4e-06  1.024348  0.0
H  H25  1  0.20660347  0.64984084  0.36080054  1  0.09365  2.2e-05  0.963828  0.0  0.106036  3e-06  1.023183  0.0  0.108276  5e-06  1.021702  0.0  0.106488  0.104344  -4e-06  1.02432  0.0
H  H26  1  0.39814505  0.63081230  0.51066867  1  0.088235  8e-06  0.970919  0.0  0.101881  -3e-06  1.042576  0.0  0.102475  -1e-06  1.042267  0.0  0.09809  0.101387  -9e-06  1.042897  0.0
H  H27  1  0.89814594  0.36919031  0.98933154  1  0.088208  1e-05  0.970948  0.0  0.101862  3e-06  1.042635  0.0  0.102454  1e-06  1.042328  0.0  0.098083  0.101371  9e-06  1.042947  0.0
H  H28  1  0.60185337  0.36918990  0.48932838  1  0.088203  1e-06  0.970882  0.0  0.101856  -3e-06  1.042546  0.0  0.10245  -1e-06  1.042237  0.0  0.098065  0.101361  -9e-06  1.042868  0.0
H  H29  1  0.10186048  0.63081117  0.01067026  1  0.08818  -8e-06  0.970987  0.0  0.101837  3e-06  1.042636  0.0  0.102429  1e-06  1.04233  0.0  0.098071  0.101343  9e-06  1.042954  0.0
H  H30  1  0.68045587  0.54983429  0.44461971  1  0.10434  1e-05  0.948744  0.0  0.117577  2e-06  1.018295  0.0  0.119191  2e-06  1.016915  0.0  0.105062  0.116321  3e-06  1.019367  0.0
H  H31  1  0.18045768  0.45016818  0.05537776  1  0.104326  9e-06  0.948773  0.0  0.117593  -2e-06  1.018314  0.0  0.119206  -2e-06  1.016933  0.0  0.105073  0.116338  -3e-06  1.019382  0.0
H  H32  1  0.31955321  0.45016791  0.55537804  1  0.104317  5e-06  0.948764  0.0  0.117579  2e-06  1.018289  0.0  0.119192  2e-06  1.016908  0.0  0.105055  0.116324  3e-06  1.019357  0.0
H  H33  1  0.81955140  0.54983400  0.94462136  1  0.10435  -2e-06  0.948756  0.0  0.117589  -2e-06  1.0183  0.0  0.119203  -2e-06  1.016918  0.0  0.105064  0.116333  -3e-06  1.019369  0.0
H  H34  1  0.82584483  0.66659750  0.47353361  1  0.088443  3.3e-05  0.972011  0.0  0.101445  2e-06  1.04622  0.0  0.102091  -0.0  1.045349  0.0  0.096095  0.100879  3e-06  1.047013  0.0
H  H35  1  0.32584075  0.33340499  0.02646466  1  0.088422  -2.4e-05  0.97209  0.0  0.101471  -1e-06  1.046262  0.0  0.102116  0.0  1.045397  0.0  0.096094  0.100894  -3e-06  1.047083  0.0
H  H36  1  0.17416159  0.33340607  0.52646359  1  0.088439  3.1e-05  0.972091  0.0  0.101459  2e-06  1.046298  0.0  0.102106  -1e-06  1.045427  0.0  0.096118  0.100888  3e-06  1.047105  0.0
H  H37  1  0.67416833  0.66659719  0.97353446  1  0.088462  -3.4e-05  0.97207  0.0  0.101432  -2e-06  1.046309  0.0  0.102076  0.0  1.045446  0.0  0.096109  0.100859  -3e-06  1.047121  0.0
C  C38  1  0.11805434  0.82812160  0.89002326  1  0.671524  -0.001547  3.849614  -0.004  0.619071  0.00099  4.155515  -0.001  0.658836  0.000474  4.145689  -0.001  0.209807  0.591892  0.001465  4.161055  -0.001
C  C39  1  0.61803231  0.17187612  0.60997761  1  0.6716  0.001534  3.849286  0.004  0.619089  -0.000997  4.155242  0.001  0.658856  -0.000475  4.145406  0.001  0.209845  0.591911  -0.001466  4.16079  0.001
C  C40  1  0.88195474  0.17187644  0.10997817  1  0.671671  -0.001555  3.849273  -0.004  0.619235  0.00099  4.155148  -0.001  0.659001  0.000475  4.145309  -0.001  0.209888  0.592055  0.001465  4.160693  -0.001
C  C41  1  0.38196345  0.82812192  0.39002314  1  0.671593  0.001544  3.849425  0.004  0.619073  -0.000997  4.155415  0.001  0.65884  -0.000475  4.145584  0.001  0.20985  0.591895  -0.001465  4.160956  0.001
C  C42  1  0.03462840  0.76462362  0.80778452  1  -0.240276  0.007784  3.779623  0.009  -0.232533  0.0043  4.033472  0.005  -0.250154  0.002959  4.05684  0.004  -0.050389  -0.220856  0.00531  4.017788  0.006
C  C43  1  0.53460469  0.23537755  0.69221253  1  -0.240356  -0.007721  3.77989  -0.009  -0.232519  -0.004299  4.033616  -0.005  -0.250134  -0.002959  4.056965  -0.004  -0.050399  -0.220842  -0.00531  4.017934  -0.006
C  C44  1  0.96537801  0.23537580  0.19221706  1  -0.240306  0.007762  3.779732  0.009  -0.232518  0.0043  4.033426  0.005  -0.250138  0.002959  4.056792  0.004  -0.050358  -0.220841  0.00531  4.017741  0.006
C  C45  1  0.46539108  0.76462326  0.30778576  1  -0.240281  -0.007757  3.779816  -0.009  -0.232474  -0.004297  4.033596  -0.005  -0.250094  -0.00296  4.056957  -0.004  -0.050419  -0.220801  -0.00531  4.017909  -0.006
C  C46  1  0.85013675  0.79366515  0.73088980  1  0.360847  -0.000493  3.781088  -0.001  0.341209  -0.000386  4.04713  0.0  0.358002  -0.000392  4.061751  0.0  0.08859  0.329812  -0.000324  4.037094  0.0
C  C47  1  0.35011884  0.20633470  0.76910940  1  0.360931  0.00043  3.781028  0.001  0.341233  0.000386  4.047075  0.0  0.358055  0.000392  4.061691  0.0  0.08861  0.329852  0.000324  4.037031  0.0
C  C48  1  0.14986434  0.20633564  0.26911124  1  0.360854  -0.00048  3.781036  -0.001  0.341267  -0.000388  4.047037  0.0  0.358062  -0.000392  4.061658  0.0  0.0886  0.32987  -0.000324  4.036998  0.0
C  C49  1  0.64987427  0.79366542  0.23089019  1  0.360861  0.00048  3.78111  0.001  0.341228  0.000384  4.047123  0.0  0.358023  0.000392  4.061743  0.0  0.088668  0.329832  0.000324  4.037077  0.0
C  C50  1  0.77713169  0.73283829  0.65303806  1  -0.323946  0.00066  3.698235  0.001  -0.349364  0.000173  3.953702  0.0  -0.362147  0.000132  3.973354  0.0  -0.124277  -0.340938  0.000252  3.940597  0.0
C  C51  1  0.27711737  0.26716500  0.84695870  1  -0.323839  -0.000604  3.698154  -0.001  -0.349286  -0.000172  3.953676  0.0  -0.362078  -0.000131  3.973305  0.0  -0.124257  -0.34086  -0.000252  3.940547  0.0
C  C52  1  0.22285875  0.26716386  0.34696519  1  -0.323818  0.000683  3.698134  0.001  -0.349234  0.000174  3.953562  0.0  -0.362032  0.000131  3.9732  0.0  -0.124229  -0.340809  0.000252  3.940454  0.0
C  C53  1  0.72287307  0.73283650  0.15303966  1  -0.323822  -0.000649  3.698187  -0.001  -0.349261  -0.00017  3.953672  0.0  -0.362055  -0.000132  3.973318  0.0  -0.124267  -0.340836  -0.000252  3.940554  0.0
C  C54  1  0.88749200  0.64149400  0.65137859  1  0.315141  -1e-05  3.817054  0.0  0.303922  -0.000265  4.075697  0.0  0.320823  -0.00026  4.088704  0.0  0.092579  0.292543  -0.00027  4.066673  0.0
C  C55  1  0.38748057  0.35850450  0.84861980  1  0.315315  -2.4e-05  3.816989  0.0  0.304083  0.000262  4.075612  0.0  0.320991  0.000259  4.088615  0.0  0.092635  0.292723  0.000269  4.066557  0.0
C  C56  1  0.11249843  0.35850749  0.34862115  1  0.315089  -2.5e-05  3.817149  0.0  0.303851  -0.000264  4.07579  0.0  0.320751  -0.000259  4.088803  0.0  0.092529  0.292473  -0.00027  4.066761  0.0
C  C57  1  0.61251519  0.64149701  0.15137787  1  0.31515  -6e-06  3.817011  0.0  0.303953  0.000261  4.075634  0.0  0.320853  0.00026  4.088647  0.0  0.092578  0.292582  0.00027  4.066593  0.0
C  C58  1  0.07015408  0.61063776  0.72711881  1  -0.216576  0.000834  3.75849  0.001  -0.245574  0.000303  4.024369  0.0  -0.254959  0.000251  4.042708  0.0  -0.115463  -0.239417  0.000283  4.012035  0.0
C  C59  1  0.57015017  0.38936274  0.77287682  1  -0.216768  -0.000769  3.758417  -0.001  -0.245767  -0.000302  4.024301  0.0  -0.255151  -0.000251  4.042627  0.0  -0.115544  -0.239614  -0.000283  4.011969  0.0
C  C60  1  0.92984968  0.38936374  0.27288024  1  -0.216659  0.000792  3.758367  0.001  -0.245655  0.000304  4.024256  0.0  -0.255039  0.00025  4.042591  0.0  -0.115487  -0.239498  0.000283  4.011922  0.0
C  C61  1  0.42984826  0.61063739  0.22712071  1  -0.21662  -0.000791  3.758344  -0.001  -0.245629  -0.000301  4.024233  0.0  -0.25501  -0.000252  4.04256  0.0  -0.115481  -0.239475  -0.000283  4.011899  0.0
C  C62  1  0.14277829  0.67203578  0.80307017  1  -0.012189  3.8e-05  3.781412  0.0  -0.033043  0.000504  4.031348  0.001  -0.026726  0.00025  4.051603  0.0  -0.079751  -0.036913  0.000714  4.017356  0.001
C  C63  1  0.64275484  0.32796129  0.69692720  1  -0.012143  -9e-05  3.781658  0.0  -0.032999  -0.000504  4.031567  -0.001  -0.026661  -0.00025  4.051832  0.0  -0.079732  -0.036882  -0.000713  4.017581  -0.001
C  C64  1  0.85722280  0.32796160  0.19692775  1  -0.012179  6.9e-05  3.781399  0.0  -0.033047  0.000503  4.031344  0.001  -0.026735  0.00025  4.051595  0.0  -0.079785  -0.036917  0.000714  4.01735  0.001
C  C65  1  0.35723560  0.67203883  0.30307238  1  -0.01218  -7.8e-05  3.781492  0.0  -0.033038  -0.000506  4.031419  -0.001  -0.026705  -0.000249  4.051683  0.0  -0.079744  -0.036911  -0.000713  4.017436  -0.001
C  C66  1  0.67376906  0.60889669  0.49685983  1  -0.091329  -4.3e-05  3.600802  0.0  -0.191855  6e-06  3.869478  0.0  -0.184367  8e-06  3.871305  0.0  -0.148634  -0.196716  -3e-06  3.868124  0.0
C  C67  1  0.17376488  0.39110508  0.00313894  1  -0.091209  -4.1e-05  3.600918  0.0  -0.191864  -8e-06  3.869619  0.0  -0.184375  -7e-06  3.871451  0.0  -0.14864  -0.196731  3e-06  3.86826  0.0
C  C68  1  0.32623736  0.39110687  0.50314013  1  -0.091228  -1.6e-05  3.600835  0.0  -0.191823  6e-06  3.86949  0.0  -0.184334  8e-06  3.871317  0.0  -0.148616  -0.196683  -3e-06  3.868137  0.0
C  C69  1  0.82623887  0.60889641  0.99686079  1  -0.091287  2.4e-05  3.600882  0.0  -0.19179  -8e-06  3.869565  0.0  -0.184302  -8e-06  3.871402  0.0  -0.148631  -0.196658  3e-06  3.868203  0.0
O  O70  1  0.99475405  0.91236870  0.88905103  1  -0.639821  0.072888  2.094639  0.1  -0.598267  0.049199  2.368074  0.073  -0.639185  0.037581  2.355399  0.059  -0.33262  -0.569379  0.056308  2.376115  0.081
O  O71  1  0.49474759  0.08762979  0.61095018  1  -0.639839  -0.072867  2.094704  -0.1  -0.598259  -0.049191  2.368169  -0.073  -0.639173  -0.037577  2.355484  -0.059  -0.332622  -0.569371  -0.056302  2.376214  -0.081
O  O72  1  0.00525503  0.08762933  0.11095177  1  -0.639815  0.072878  2.094526  0.1  -0.598261  0.049197  2.367928  0.073  -0.639177  0.037579  2.355249  0.059  -0.3326  -0.569374  0.056306  2.375972  0.081
O  O73  1  0.50525617  0.91236893  0.38905201  1  -0.639793  -0.072877  2.094718  -0.1  -0.598258  -0.049194  2.368222  -0.073  -0.639178  -0.037578  2.355548  -0.059  -0.332625  -0.56937  -0.056307  2.376269  -0.081
O  O74  1  0.29557674  0.80246481  0.95644605  1  -0.606026  0.002746  1.98762  0.005  -0.552484  0.001451  2.220717  0.003  -0.578085  0.000295  2.210254  0.001  -0.306029  -0.534376  0.002801  2.227165  0.005
O  O75  1  0.79557009  0.19753366  0.54355364  1  -0.606103  -0.00274  1.987364  -0.005  -0.55254  -0.00145  2.22047  -0.003  -0.578159  -0.000296  2.210044  -0.001  -0.306068  -0.534433  -0.002802  2.226922  -0.005
O  O76  1  0.70442701  0.19753461  0.04355552  1  -0.606147  0.002755  1.987522  0.005  -0.552622  0.001451  2.220635  0.003  -0.578237  0.000295  2.210201  0.001  -0.306091  -0.534513  0.002801  2.227087  0.005
O  O77  1  0.20442568  0.80246439  0.45644641  1  -0.606102  -0.002746  1.987457  -0.005  -0.552516  -0.001449  2.220568  -0.003  -0.578129  -0.000296  2.210127  -0.001  -0.306057  -0.534411  -0.002801  2.227018  -0.005
O  O78  1  0.38177892  0.06771895  0.94099038  1  -0.860295  0.05631  2.016204  0.076  -0.835729  0.043239  2.255333  0.062  -0.865806  0.033763  2.211898  0.051  -0.583695  -0.812888  0.049374  2.285866  0.068
O  O79  1  0.88177412  0.93227952  0.55901007  1  -0.860298  -0.056312  2.016307  -0.076  -0.835728  -0.04324  2.255398  -0.062  -0.865813  -0.033764  2.211978  -0.051  -0.583695  -0.812899  -0.049374  2.285958  -0.068
O  O80  1  0.61823282  0.93227841  0.05900960  1  -0.860311  0.056306  2.016274  0.076  -0.835752  0.043239  2.255344  0.062  -0.865832  0.033764  2.21192  0.051  -0.583715  -0.812916  0.049375  2.285894  0.068
O  O81  1  0.11822697  0.06771852  0.44099136  1  -0.860377  -0.056314  2.016255  -0.076  -0.835785  -0.04324  2.255306  -0.062  -0.86587  -0.033764  2.211888  -0.051  -0.583695  -0.812947  -0.049376  2.285854  -0.068
O  O82  1  0.73991224  0.88268858  0.72941824  1  -0.521932  0.002078  2.102411  0.003  -0.463233  0.001494  2.304056  0.002  -0.484388  0.00084  2.291776  0.001  -0.343109  -0.447954  0.001994  2.312108  0.003
O  O83  1  0.23989946  0.11731192  0.77058232  1  -0.52202  -0.00208  2.102425  -0.003  -0.463213  -0.001493  2.304032  -0.002  -0.484438  -0.00084  2.291783  -0.001  -0.343126  -0.447979  -0.001993  2.312104  -0.003
O  O84  1  0.26008086  0.11731150  0.27058616  1  -0.521959  0.002072  2.102322  0.003  -0.46335  0.001496  2.30401  0.002  -0.48451  0.00084  2.291731  0.001  -0.343151  -0.448072  0.001994  2.312061  0.003
O  O85  1  0.76009364  0.88268819  0.22941795  1  -0.521978  -0.002081  2.102456  -0.003  -0.463287  -0.001493  2.304105  -0.002  -0.484443  -0.000839  2.291823  -0.001  -0.343154  -0.448008  -0.001993  2.312153  -0.003
O  O86  1  0.83212759  0.57763269  0.57839098  1  -0.253062  0.000247  2.335846  0.0  -0.171513  -9.9e-05  2.571277  0.0  -0.190865  -7.9e-05  2.57417  0.0  -0.181392  -0.157844  -0.00014  2.56869  0.0
O  O87  1  0.33212237  0.42236785  0.92160690  1  -0.253221  -0.000239  2.3358  0.0  -0.171583  0.000101  2.571191  0.0  -0.190942  8e-05  2.574085  0.0  -0.181402  -0.157918  0.00014  2.568595  0.0
O  O88  1  0.16787083  0.42236812  0.42160799  1  -0.253115  0.00024  2.335916  0.0  -0.171524  -0.0001  2.571326  0.0  -0.190879  -8e-05  2.57422  0.0  -0.181389  -0.157854  -0.00014  2.568737  0.0
O  O89  1  0.66787340  0.57763296  0.07839138  1  -0.253102  -0.000239  2.335741  0.0  -0.171549  0.0001  2.571154  0.0  -0.190906  8e-05  2.57405  0.0  -0.181406  -0.157882  0.00014  2.568565  0.0
