# generated using pymatgen
data_Er2CuH16C32(N2O13)2
_symmetry_space_group_name_H-M   'P 1'
_cell_length_a   9.79046038
_cell_length_b   10.22784819
_cell_length_c   10.99126898
_cell_angle_alpha   69.90618835
_cell_angle_beta   86.07520082
_cell_angle_gamma   71.31377696
_symmetry_Int_Tables_number   1
_chemical_formula_structural   Er2CuH16C32(N2O13)2
_chemical_formula_sum   'Er2 Cu1 H16 C32 N4 O26'
_cell_volume   978.06433233
_cell_formula_units_Z   1
loop_
 _symmetry_equiv_pos_site_id
 _symmetry_equiv_pos_as_xyz
  1  'x, y, z'
loop_
 _atom_site_type_symbol
 _atom_site_label
 _atom_site_symmetry_multiplicity
 _atom_site_fract_x
 _atom_site_fract_y
 _atom_site_fract_z
 _atom_site_occupancy
 _atom_site_hle17_ddec_charge
 _atom_site_hle17_ddec_spin_density
 _atom_site_hle17_ddec_sum_bond_order
 _atom_site_hle17_magmom
 _atom_site_hse06_10hf_ddec_charge
 _atom_site_hse06_10hf_ddec_spin_density
 _atom_site_hse06_10hf_ddec_sum_bond_order
 _atom_site_hse06_10hf_magmom
 _atom_site_hse06_ddec_charge
 _atom_site_hse06_ddec_spin_density
 _atom_site_hse06_ddec_sum_bond_order
 _atom_site_hse06_magmom
 _atom_site_pbe_cm5_charge
 _atom_site_pbe_ddec_charge
 _atom_site_pbe_ddec_spin_density
 _atom_site_pbe_ddec_sum_bond_order
 _atom_site_pbe_magmom
Er  Er0  1  0.40289444  0.40776190  0.41705109  1  2.287292  0.000628  1.591073  0.001  2.159455  0.000268  2.029445  0.0  2.279216  0.000446  1.859043  0.001  1.516496  2.105133  -0.000102  2.094058  0.0
Er  Er1  1  0.59710416  0.59223974  0.58294502  1  2.287259  0.00062  1.591114  0.001  2.159426  0.000267  2.029497  0.0  2.279184  0.000441  1.859092  0.001  1.516471  2.105108  -0.000102  2.0941  0.0
Cu  Cu2  1  0.49999758  0.00000153  0.49999867  1  1.124253  -0.710045  1.645715  -0.543  1.136712  -0.811448  2.038313  -0.678  1.224616  -0.873428  1.976702  -0.767  0.770826  1.077968  -0.760499  2.083841  -0.612
H  H3  1  0.91702323  0.36644123  0.48172196  1  0.134834  -0.000116  0.919324  0.0  0.140941  -0.000109  0.983808  0.0  0.14586  -5.8e-05  0.979252  0.0  0.124805  0.137252  -0.000112  0.987451  0.0
H  H4  1  0.08297980  0.63355268  0.51828998  1  0.134811  -0.000123  0.919311  0.0  0.14104  -0.000109  0.983677  0.0  0.145933  -5.9e-05  0.979151  0.0  0.124817  0.137349  -0.000112  0.987323  0.0
H  H5  1  0.81163848  0.96590588  0.66495713  1  0.121949  0.000113  0.946875  0.0  0.126981  0.000116  1.015681  0.0  0.130818  0.0001  1.011969  0.0  0.116814  0.123904  0.000112  1.018693  0.0
H  H6  1  0.18836046  0.03409135  0.33504672  1  0.121966  0.000104  0.946923  0.0  0.126981  0.000116  1.015751  0.0  0.130818  9.9e-05  1.01204  0.0  0.116808  0.123905  0.000112  1.018763  0.0
H  H7  1  0.25459791  0.95484508  0.65122610  1  0.134613  0.000317  0.955094  0.0  0.132864  0.000221  1.032651  0.0  0.137976  0.000248  1.026927  0.0  0.119414  0.12915  0.000173  1.03662  0.0
H  H8  1  0.74540649  0.04515103  0.34878142  1  0.134567  0.000316  0.955115  0.0  0.132831  0.000222  1.032671  0.0  0.137943  0.000245  1.026945  0.0  0.119389  0.129115  0.000173  1.036646  0.0
H  H9  1  0.45742238  0.37875640  0.97581819  1  0.133814  0.000156  0.905721  0.0  0.1433  1.8e-05  0.963413  0.0  0.147705  1.4e-05  0.959073  0.0  0.125618  0.139878  1e-05  0.966778  0.0
H  H10  1  0.54257997  0.62124636  0.02417097  1  0.133828  0.000153  0.905784  0.0  0.143323  1.8e-05  0.963457  0.0  0.147752  1.3e-05  0.959087  0.0  0.125634  0.139902  1e-05  0.96682  0.0
H  H11  1  0.34629733  0.99259682  0.20163186  1  0.125338  3.8e-05  0.954372  0.0  0.130129  -2.7e-05  1.021494  0.0  0.133764  0.0  1.018111  0.0  0.118192  0.127352  -5.1e-05  1.024131  0.0
H  H12  1  0.65370400  0.00740922  0.79835814  1  0.125436  3.9e-05  0.954385  0.0  0.130177  -2.6e-05  1.02155  0.0  0.133824  -1e-06  1.01814  0.0  0.118199  0.127399  -5.1e-05  1.024183  0.0
H  H13  1  0.29451350  0.15103180  0.78500120  1  0.138651  9.1e-05  0.934345  0.0  0.141525  -5e-05  1.002315  0.0  0.146013  -2.3e-05  0.997916  0.0  0.119481  0.138218  -3e-05  1.005578  0.0
H  H14  1  0.70548818  0.84896985  0.21498926  1  0.138674  9.2e-05  0.934307  0.0  0.141574  -5e-05  1.002231  0.0  0.146062  -2.2e-05  0.997829  0.0  0.119506  0.138266  -3e-05  1.005494  0.0
H  H15  1  0.22488686  0.67518910  0.18623639  1  0.452594  3e-06  0.827871  0.0  0.422086  4e-06  0.888059  0.0  0.433571  1e-06  0.870997  0.0  0.312968  0.414372  6e-06  0.899606  0.0
H  H16  1  0.77511174  0.32481582  0.81376140  1  0.452651  3e-06  0.8278  0.0  0.422143  4e-06  0.887986  0.0  0.433627  1e-06  0.870926  0.0  0.312993  0.414428  6e-06  0.899534  0.0
H  H17  1  0.13000269  0.57041919  0.25243268  1  0.455615  -1.1e-05  0.793569  0.0  0.441193  -2.5e-05  0.833658  0.0  0.449665  -1.2e-05  0.821726  0.0  0.340677  0.43561  -2.5e-05  0.841619  0.0
H  H18  1  0.86999011  0.42959122  0.74756555  1  0.455664  -1.2e-05  0.793537  0.0  0.441248  -2.5e-05  0.833591  0.0  0.44972  -1.3e-05  0.821659  0.0  0.340706  0.435665  -2.5e-05  0.841551  0.0
C  C19  1  0.09688606  0.16880052  0.55824290  1  -0.065671  0.000147  3.722702  0.0  -0.040044  0.000284  3.959707  0.0  -0.0516  0.000289  3.981258  0.0  -0.010099  -0.032673  0.000267  3.945439  0.0
C  C20  1  0.90311322  0.83119560  0.44176584  1  -0.065621  3.6e-05  3.722593  0.0  -0.039928  0.000288  3.959611  0.0  -0.051485  0.000274  3.981156  0.0  -0.010023  -0.032559  0.000267  3.945345  0.0
C  C21  1  0.94963555  0.24857589  0.53372010  1  -0.022383  0.000592  3.605281  0.0  -0.069784  0.000238  3.86222  0.0  -0.062692  0.000259  3.875687  0.0  -0.05344  -0.07552  0.000199  3.854462  0.0
C  C22  1  0.05036407  0.75141912  0.46629169  1  -0.0225  0.000789  3.604995  0.0  -0.069966  0.000222  3.862074  0.0  -0.062857  0.000277  3.875561  0.0  -0.053492  -0.0757  0.000199  3.854315  0.0
C  C23  1  0.84677349  0.17577592  0.56989276  1  -0.047876  -0.000173  3.721418  0.0  -0.022107  -3.7e-05  3.957448  0.0  -0.03272  -5.2e-05  3.978601  0.0  -0.006002  -0.015278  -3.9e-05  3.943015  0.0
C  C24  1  0.15322374  0.82422348  0.43011778  1  -0.04742  -0.000293  3.720696  0.0  -0.02191  -2.4e-05  3.95715  0.0  -0.032528  -6.1e-05  3.978298  0.0  -0.005946  -0.015081  -3.9e-05  3.942713  0.0
C  C25  1  0.88974041  0.02505504  0.63837774  1  -0.075422  0.000251  3.682545  0.0  -0.116528  0.000201  3.939585  0.0  -0.111759  0.000219  3.956768  0.0  -0.06165  -0.117597  0.000263  3.926834  0.0
C  C26  1  0.11025683  0.97494437  0.36163098  1  -0.075606  0.000442  3.682462  0.0  -0.116652  0.000177  3.939565  0.0  -0.111881  0.000252  3.956749  0.0  -0.061634  -0.117722  0.000263  3.926814  0.0
C  C27  1  0.03537441  0.95041277  0.67147933  1  0.059774  -0.000115  3.69244  0.0  0.058811  -2.5e-05  3.945296  0.0  0.053305  -2.5e-05  3.968803  0.0  0.076667  0.061674  -2.4e-05  3.929297  0.0
C  C28  1  0.96462316  0.04958555  0.32852699  1  0.059815  -0.000208  3.692652  0.0  0.058941  -6e-06  3.945395  0.0  0.053431  -5.3e-05  3.968907  0.0  0.076688  0.061806  -2.4e-05  3.929396  0.0
C  C29  1  0.14107937  0.01843489  0.62934421  1  -0.057418  0.000454  3.643757  0.0  -0.096901  0.000394  3.901514  0.0  -0.091087  0.000417  3.916071  0.0  -0.057733  -0.098723  0.000439  3.890603  0.0
C  C30  1  0.85892435  0.98156014  0.37066097  1  -0.057443  0.000585  3.644025  0.0  -0.096986  0.000381  3.90178  0.0  -0.091171  0.000466  3.916342  0.0  -0.057751  -0.098806  0.000439  3.89087  0.0
C  C31  1  0.20286934  0.24780455  0.50252500  1  0.677131  0.000603  3.87079  -0.001  0.635878  -0.00218  4.155926  -0.004  0.673744  -0.002083  4.151444  -0.004  0.215763  0.609324  -0.002001  4.160974  -0.004
C  C32  1  0.79712755  0.75219596  0.49748158  1  0.677131  0.000621  3.870865  -0.001  0.635821  -0.00218  4.156057  -0.004  0.673685  -0.002085  4.151576  -0.004  0.215692  0.609267  -0.002001  4.161107  -0.004
C  C33  1  0.69244732  0.25697298  0.52771686  1  0.712685  1.4e-05  3.855793  0.0  0.667998  1.5e-05  4.13981  0.0  0.704295  2.7e-05  4.135574  0.0  0.223153  0.643878  6.5e-05  4.144778  0.0
C  C34  1  0.30755026  0.74302534  0.47228946  1  0.71263  4.3e-05  3.855754  0.0  0.667991  1.6e-05  4.139844  0.0  0.704295  2.9e-05  4.135602  0.0  0.223174  0.643871  6.5e-05  4.144806  0.0
C  C35  1  0.38102304  0.27287089  0.86785034  1  -0.055926  0.000261  3.685563  0.0  -0.033712  3.7e-05  3.92921  0.0  -0.04433  0.000287  3.950599  0.0  -0.005921  -0.027036  -0.000266  3.914139  0.0
C  C36  1  0.61897966  0.72713076  0.13214188  1  -0.055348  0.000255  3.685332  0.0  -0.033257  2.9e-05  3.928971  0.0  -0.043863  0.0003  3.950357  0.0  -0.005795  -0.026588  -0.000266  3.913905  0.0
C  C37  1  0.41535596  0.29007817  0.98231495  1  -0.010675  -0.002885  3.589548  -0.003  -0.059427  -0.001886  3.847095  -0.002  -0.053207  -0.001254  3.862091  -0.001  -0.047711  -0.062424  -0.00224  3.836267  -0.002
C  C38  1  0.58465050  0.70992129  0.01767592  1  -0.010692  -0.002867  3.589792  -0.003  -0.05955  -0.001883  3.847275  -0.002  -0.053356  -0.001259  3.862266  -0.001  -0.04766  -0.062539  -0.00224  3.836441  -0.002
C  C39  1  0.40176045  0.18970159  0.10301214  1  -0.047131  -0.00889  3.702074  -0.01  -0.022784  -0.00427  3.938468  -0.005  -0.034325  -0.002502  3.96097  -0.003  -0.005067  -0.01523  -0.005715  3.922837  -0.007
C  C40  1  0.59824669  0.81029567  0.89698303  1  -0.047548  -0.008907  3.70266  -0.01  -0.022846  -0.004271  3.938628  -0.005  -0.034387  -0.002497  3.961139  -0.003  -0.005241  -0.015304  -0.005716  3.923021  -0.007
C  C41  1  0.34996654  0.07536079  0.10909774  1  -0.078287  -0.001444  3.693795  -0.001  -0.11924  -0.00045  3.955381  0.0  -0.114566  -0.000335  3.973048  0.0  -0.065444  -0.122394  -0.00079  3.943671  -0.001
C  C42  1  0.65003889  0.92464197  0.89089123  1  -0.078329  -0.001433  3.694015  -0.001  -0.119327  -0.000449  3.955431  0.0  -0.114654  -0.000342  3.973104  0.0  -0.065397  -0.122476  -0.00079  3.943724  -0.001
C  C43  1  0.30488800  0.06785176  0.99530034  1  0.064765  0.001902  3.730843  0.001  0.048975  0.000485  3.989577  0.0  0.042267  0.000522  4.014387  0.0  0.074893  0.053357  0.000438  3.972653  0.0
C  C44  1  0.69512084  0.93214660  0.00469073  1  0.064883  0.001876  3.730632  0.001  0.049128  0.000483  3.989299  0.0  0.042411  0.000539  4.014114  0.0  0.075003  0.053508  0.000438  3.972376  0.0
C  C45  1  0.32135963  0.16367694  0.87382378  1  -0.068951  -0.003557  3.647067  -0.003  -0.107108  -0.001418  3.90349  -0.001  -0.102083  -0.000954  3.919394  -0.001  -0.060582  -0.110155  -0.001626  3.89246  -0.001
C  C46  1  0.67864307  0.83632472  0.12616571  1  -0.069266  -0.003557  3.647127  -0.003  -0.10745  -0.001413  3.903585  -0.001  -0.102427  -0.000965  3.919486  -0.001  -0.06076  -0.110491  -0.001626  3.892556  -0.001
C  C47  1  0.41721890  0.36340143  0.73694447  1  0.720645  -6e-05  3.84332  0.0  0.673564  -7.5e-05  4.136434  0.0  0.710763  -3.1e-05  4.128327  0.0  0.232935  0.64937  -8.9e-05  4.141785  0.0
C  C48  1  0.58277970  0.63660350  0.26304969  1  0.720294  -9.1e-05  3.843644  0.0  0.673468  -7.5e-05  4.136381  0.0  0.71066  -3.3e-05  4.12828  0.0  0.232933  0.649276  -8.9e-05  4.141732  0.0
C  C49  1  0.44375326  0.19360428  0.23068574  1  0.693825  0.00618  3.842086  0.006  0.655612  0.000413  4.13078  0.001  0.69543  0.000595  4.122229  0.001  0.232416  0.628712  -0.000108  4.13686  0.001
C  C50  1  0.55624841  0.80639737  0.76930745  1  0.69397  0.006179  3.842099  0.006  0.655544  0.000416  4.13096  0.001  0.695359  0.000593  4.122418  0.001  0.232448  0.628646  -0.000108  4.137036  0.001
N  N51  1  0.07845753  0.79235719  0.74853557  1  0.493294  -8e-06  3.918742  0.0  0.520874  -9e-06  4.222168  0.0  0.541074  -1.4e-05  4.231379  0.0  0.056091  0.507388  -2e-06  4.215569  0.0
N  N52  1  0.92154107  0.20763782  0.25147629  1  0.493288  3.7e-05  3.918872  0.0  0.520821  -1.1e-05  4.222328  0.0  0.541024  -6e-06  4.231535  0.0  0.056042  0.507335  -2e-06  4.215731  0.0
N  N53  1  0.24384980  0.95154411  0.00533404  1  0.472122  1.2e-05  3.949533  0.0  0.533793  2.5e-05  4.200836  0.0  0.555387  1.9e-05  4.209748  0.0  0.060677  0.519297  2.4e-05  4.1951  0.0
N  N54  1  0.75615256  0.04845536  0.99465525  1  0.472108  2.6e-05  3.949383  0.0  0.533713  2.3e-05  4.200763  0.0  0.555304  1.9e-05  4.209683  0.0  0.060718  0.519218  2.4e-05  4.195029  0.0
O  O55  1  0.33667388  0.17837194  0.49424804  1  -0.735515  -0.043576  2.240823  -0.062  -0.695792  -0.033341  2.532854  -0.051  -0.741173  -0.02472  2.521411  -0.041  -0.369836  -0.667333  -0.039611  2.543274  -0.057
O  O56  1  0.66332403  0.82162857  0.50575665  1  -0.735478  -0.043573  2.240886  -0.062  -0.695762  -0.033338  2.532972  -0.051  -0.741141  -0.024722  2.521529  -0.041  -0.36983  -0.667306  -0.039608  2.543395  -0.057
O  O57  1  0.16246078  0.38666825  0.46060315  1  -0.646843  -0.0136  1.94876  -0.018  -0.608243  -0.006888  2.184623  -0.01  -0.641969  -0.00322  2.174403  -0.005  -0.348403  -0.58623  -0.012103  2.190333  -0.016
O  O58  1  0.83753611  0.61333225  0.53940525  1  -0.646886  -0.013611  1.948777  -0.018  -0.608263  -0.006885  2.18467  -0.01  -0.641988  -0.003217  2.174448  -0.005  -0.348394  -0.586251  -0.012102  2.19038  -0.016
O  O59  1  0.63988306  0.39081574  0.52090745  1  -0.817621  -3.1e-05  2.228801  0.0  -0.759468  8e-05  2.482242  0.0  -0.802732  6.7e-05  2.472862  0.0  -0.419625  -0.736664  1.5e-05  2.487746  0.0
O  O60  1  0.36012032  0.60918370  0.47909089  1  -0.817654  -4.3e-05  2.228839  0.0  -0.759493  7.5e-05  2.482293  0.0  -0.802754  6.6e-05  2.4729  0.0  -0.419662  -0.736688  1.5e-05  2.487797  0.0
O  O61  1  0.61554287  0.19522987  0.49367122  1  -0.70679  0.001132  2.048468  0.0  -0.679083  0.001012  2.322172  0.0  -0.711835  0.00125  2.30792  0.0  -0.356946  -0.660125  0.000718  2.332938  0.0
O  O62  1  0.38445436  0.80476955  0.50633477  1  -0.706877  0.001132  2.048508  0.0  -0.679142  0.001017  2.32217  0.0  -0.71189  0.001249  2.307901  0.0  -0.356979  -0.660192  0.000718  2.332945  0.0
O  O63  1  0.98035192  0.73814553  0.79067259  1  -0.367606  3.1e-05  1.70116  0.0  -0.355857  4e-06  1.89274  0.0  -0.367508  1.5e-05  1.889551  0.0  -0.14683  -0.347724  -0.0  1.895009  0.0
O  O64  1  0.01964190  0.26185167  0.20934068  1  -0.367548  -1e-06  1.701462  0.0  -0.355783  7e-06  1.893046  0.0  -0.367429  1e-06  1.889852  0.0  -0.14677  -0.347647  -0.0  1.895313  0.0
O  O65  1  0.20892195  0.72293081  0.76570642  1  -0.325097  -4.9e-05  1.743201  0.0  -0.311782  -2.7e-05  1.943888  0.0  -0.322264  -2.3e-05  1.940348  0.0  -0.111718  -0.304204  -3.9e-05  1.946341  0.0
O  O66  1  0.79107221  0.27705870  0.23431108  1  -0.325156  -5e-05  1.743083  0.0  -0.31182  -3.1e-05  1.94378  0.0  -0.322301  -1.8e-05  1.940237  0.0  -0.111727  -0.304243  -3.9e-05  1.946238  0.0
O  O67  1  0.38501917  0.33639192  0.64024866  1  -0.715987  -0.000643  2.08556  -0.001  -0.667014  -0.000205  2.332125  0.0  -0.702955  -5.5e-05  2.321672  0.0  -0.384317  -0.646216  -0.000303  2.337748  0.0
O  O68  1  0.61498318  0.66361082  0.35974414  1  -0.715953  -0.000629  2.085543  -0.001  -0.667069  -0.000205  2.331984  0.0  -0.703007  -5.5e-05  2.321527  0.0  -0.384318  -0.646271  -0.000303  2.337606  0.0
O  O69  1  0.48143785  0.45402650  0.73517561  1  -0.707472  0.00016  2.031244  0.0  -0.663977  7.2e-05  2.284826  0.0  -0.700015  7.4e-05  2.270994  0.0  -0.392596  -0.643333  3.2e-05  2.292128  0.0
O  O70  1  0.51855768  0.54598173  0.26481768  1  -0.707375  0.000172  2.031439  0.0  -0.663956  7.3e-05  2.284871  0.0  -0.69999  7.8e-05  2.271046  0.0  -0.392638  -0.643311  3.2e-05  2.292173  0.0
O  O71  1  0.42561556  0.31384478  0.24639863  1  -0.677461  -0.000631  2.028369  -0.002  -0.637435  -0.000586  2.271548  -0.002  -0.672372  2.7e-05  2.256509  -0.001  -0.362649  -0.618423  -0.001132  2.280782  -0.002
O  O72  1  0.57438646  0.68615576  0.75359762  1  -0.677419  -0.00063  2.028407  -0.002  -0.637363  -0.000587  2.271682  -0.002  -0.672296  2.4e-05  2.256646  -0.001  -0.362648  -0.618351  -0.001132  2.280912  -0.002
O  O73  1  0.49418934  0.06378094  0.31451246  1  -0.606844  -0.083007  2.080591  -0.115  -0.591634  -0.046733  2.376457  -0.071  -0.634659  -0.033034  2.364981  -0.055  -0.321476  -0.562427  -0.056297  2.384789  -0.081
O  O74  1  0.50580824  0.93622398  0.68548448  1  -0.606865  -0.083009  2.080606  -0.115  -0.591571  -0.046739  2.376528  -0.071  -0.634597  -0.033036  2.365058  -0.055  -0.32146  -0.562361  -0.056302  2.384852  -0.081
O  O75  1  0.24583844  0.85940528  0.11563351  1  -0.375181  0.000165  1.816618  0.0  -0.358657  -4e-05  2.009669  0.0  -0.373931  -6e-06  2.005383  0.0  -0.122892  -0.348817  -2e-06  2.013139  0.0
O  O76  1  0.75416290  0.14059418  0.88435858  1  -0.37512  0.00015  1.816625  0.0  -0.358618  -3.4e-05  2.009736  0.0  -0.373886  -8e-06  2.005454  0.0  -0.122925  -0.348773  -2e-06  2.013199  0.0
O  O77  1  0.19306713  0.94993391  0.90615785  1  -0.329369  0.000415  1.786052  0.0  -0.329414  0.000187  1.9812  0.0  -0.341141  0.000187  1.978344  0.0  -0.119322  -0.322124  0.000144  1.983994  0.0
O  O78  1  0.80693250  0.05006775  0.09383273  1  -0.329398  0.000417  1.78587  0.0  -0.329379  0.000178  1.981015  0.0  -0.341105  0.000195  1.978161  0.0  -0.119351  -0.322089  0.000144  1.98381  0.0
O  O79  1  0.22070590  0.58774313  0.25854664  1  -0.899517  6.1e-05  1.887605  0.0  -0.856333  4.3e-05  2.069021  0.0  -0.882235  2.8e-05  2.032276  0.0  -0.622197  -0.842192  5.1e-05  2.091752  0.0
O  O80  1  0.77929509  0.41225741  0.74144785  1  -0.899625  6.2e-05  1.887538  0.0  -0.856448  4.2e-05  2.06894  0.0  -0.882348  3e-05  2.032197  0.0  -0.622249  -0.842309  5.2e-05  2.091672  0.0
