# generated using pymatgen
data_NiH12C8S2(NO2)2
_symmetry_space_group_name_H-M   'P 1'
_cell_length_a   5.98396505
_cell_length_b   9.79339002
_cell_length_c   10.09491756
_cell_angle_alpha   89.99932075
_cell_angle_beta   89.99939802
_cell_angle_gamma   90.12230921
_symmetry_Int_Tables_number   1
_chemical_formula_structural   NiH12C8S2(NO2)2
_chemical_formula_sum   'Ni2 H24 C16 S4 N4 O8'
_cell_volume   591.59417061
_cell_formula_units_Z   2
loop_
 _symmetry_equiv_pos_site_id
 _symmetry_equiv_pos_as_xyz
  1  'x, y, z'
loop_
 _atom_site_type_symbol
 _atom_site_label
 _atom_site_symmetry_multiplicity
 _atom_site_fract_x
 _atom_site_fract_y
 _atom_site_fract_z
 _atom_site_occupancy
 _atom_site_pbe_cm5_charge
 _atom_site_pbe_ddec_charge
 _atom_site_pbe_ddec_spin_density
 _atom_site_pbe_ddec_sum_bond_order
 _atom_site_pbe_magmom
Ni  Ni0  1  0.14470187  0.42280832  0.47492521  1  0.621972  0.768034  1.757981  2.310785  1.547
Ni  Ni1  1  0.85531903  0.57719518  0.97492717  1  0.622003  0.768064  1.757975  2.310763  1.547
H  H2  1  0.14761824  0.15712395  0.47747950  1  0.297272  0.248221  0.000428  0.95862  0.0
H  H3  1  0.85238596  0.84289280  0.97747545  1  0.297207  0.24818  0.000429  0.958628  0.0
H  H4  1  0.94248511  0.60204195  0.59436199  1  0.297473  0.258702  -1.9e-05  0.979934  0.0
H  H5  1  0.05752913  0.39795496  0.09436679  1  0.297406  0.258583  -1.9e-05  0.979951  0.0
H  H6  1  0.35361376  0.28413956  0.24543463  1  0.108973  0.102476  0.000323  0.983938  0.001
H  H7  1  0.64638613  0.71586266  0.74544818  1  0.109015  0.102523  0.000322  0.984005  0.001
H  H8  1  0.13665814  0.15835475  0.25082389  1  0.098442  0.090001  -8e-06  1.035799  0.0
H  H9  1  0.86332828  0.84164536  0.75081879  1  0.098449  0.090007  -8e-06  1.035824  0.0
H  H10  1  0.53437688  0.99307459  0.51694581  1  0.078275  0.086051  1.6e-05  1.065058  0.0
H  H11  1  0.46560531  0.00692225  0.01694466  1  0.078268  0.086079  1.6e-05  1.065066  0.0
H  H12  1  0.77105944  0.09316170  0.46608903  1  0.090816  0.109741  0.000464  1.034459  0.0
H  H13  1  0.22894985  0.90682761  0.96609902  1  0.090852  0.109739  0.000463  1.034569  0.0
H  H14  1  0.44149215  0.20685508  0.61294151  1  0.120796  0.103004  -0.000234  0.978562  0.0
H  H15  1  0.55852011  0.79314773  0.11295250  1  0.120792  0.102989  -0.000234  0.978502  0.0
H  H16  1  0.35458664  0.70798954  0.47722505  1  0.110091  0.106476  0.000367  0.975879  0.001
H  H17  1  0.64542422  0.29202107  0.97723063  1  0.110123  0.106528  0.000367  0.976026  0.001
H  H18  1  0.26479161  0.70682947  0.64733371  1  0.114397  0.112346  -6e-05  0.993504  0.0
H  H19  1  0.73519834  0.29317803  0.14733253  1  0.114397  0.112319  -6e-05  0.993587  0.0
H  H20  1  0.81961574  0.87783879  0.33688765  1  0.093229  0.116326  0.000391  1.029187  0.0
H  H21  1  0.18036410  0.12215211  0.83689214  1  0.093224  0.116323  0.000391  1.029211  0.0
H  H22  1  0.09107066  0.82357481  0.28882743  1  0.09483  0.108333  1e-06  0.994635  0.0
H  H23  1  0.90892009  0.17642484  0.78883469  1  0.094807  0.108263  1e-06  0.994752  0.0
H  H24  1  0.72373762  0.65980274  0.42756355  1  0.118081  0.098161  0.000333  0.982549  0.0
H  H25  1  0.27627236  0.34018602  0.92756097  1  0.118043  0.098098  0.000332  0.982517  0.0
C  C26  1  0.29206218  0.19309235  0.29724954  1  -0.058782  -0.061654  -0.000855  3.873666  -0.001
C  C27  1  0.70794345  0.80690311  0.79724878  1  -0.058823  -0.06158  -0.000856  3.873427  -0.001
C  C28  1  0.58957028  0.08145333  0.45864532  1  -0.160888  -0.228207  0.001567  3.93741  0.001
C  C29  1  0.41041914  0.91854629  0.95865900  1  -0.160911  -0.228218  0.001565  3.937696  0.001
C  C30  1  0.47499497  0.21183434  0.50598261  1  -0.001068  -0.003152  0.004113  3.838438  0.005
C  C31  1  0.52499249  0.78817694  0.00598792  1  -0.001164  -0.003292  0.004114  3.838196  0.005
C  C32  1  0.61362340  0.34326972  0.48421997  1  0.213217  0.592363  -0.000882  4.118918  0.0
C  C33  1  0.38638560  0.65672448  0.98422692  1  0.213296  0.592588  -0.000882  4.118928  0.0
C  C34  1  0.21131302  0.71874390  0.54432356  1  -0.053708  -0.060358  -0.001269  3.889641  -0.002
C  C35  1  0.78866541  0.28126793  0.04432813  1  -0.05365  -0.060228  -0.001267  3.889874  -0.002
C  C36  1  0.96470644  0.81796820  0.36786056  1  -0.148124  -0.210444  0.001003  3.880389  0.001
C  C37  1  0.03527285  0.18202232  0.86786625  1  -0.148103  -0.210365  0.001002  3.880514  0.001
C  C38  1  0.90003770  0.66841730  0.39890397  1  0.000441  0.001054  0.004975  3.815847  0.005
C  C39  1  0.09996449  0.33158509  0.89887782  1  0.000527  0.001201  0.004968  3.815305  0.005
C  C40  1  0.92690989  0.58165631  0.27370277  1  0.216978  0.586085  6.4e-05  4.126587  0.0
C  C41  1  0.07308780  0.41833944  0.77371541  1  0.216746  0.585666  5.9e-05  4.127239  0.0
S  S42  1  0.08199611  0.88566074  0.51961552  1  -0.025282  -0.06228  0.006365  2.667312  0.007
S  S43  1  0.91798603  0.11433811  0.01962022  1  -0.025243  -0.062288  0.00637  2.66736  0.007
S  S44  1  0.50524084  0.05679675  0.28693358  1  -0.045412  -0.076342  0.005302  2.582518  0.006
S  S45  1  0.49475162  0.94320190  0.78693852  1  -0.045394  -0.076353  0.005302  2.582097  0.006
N  N46  1  0.25900800  0.22477229  0.43703168  1  -0.476436  -0.314968  0.034204  3.54961  0.051
N  N47  1  0.74101357  0.77523065  0.93703009  1  -0.476343  -0.315013  0.0342  3.549232  0.051
N  N48  1  0.03813837  0.61866856  0.51091480  1  -0.483281  -0.342268  0.03751  3.558541  0.057
N  N49  1  0.96184225  0.38132938  0.01092208  1  -0.483279  -0.342177  0.037518  3.558337  0.057
O  O50  1  0.50756017  0.45329436  0.46119719  1  -0.305436  -0.531639  0.038512  2.206201  0.065
O  O51  1  0.49246265  0.54671032  0.96119088  1  -0.305472  -0.531679  0.038514  2.20616  0.065
O  O52  1  0.82253029  0.32884600  0.49558255  1  -0.312394  -0.543226  0.036241  2.328786  0.059
O  O53  1  0.17749355  0.67114805  0.99560350  1  -0.312399  -0.543309  0.036238  2.328987  0.059
O  O54  1  0.05815552  0.47926899  0.27444209  1  -0.299374  -0.528125  0.033563  2.265504  0.056
O  O55  1  0.94188730  0.52073082  0.77444417  1  -0.299236  -0.527884  0.033562  2.265985  0.056
O  O56  1  0.81161282  0.62333238  0.17672340  1  -0.30512  -0.524776  0.03961  2.334038  0.065
O  O57  1  0.18836984  0.37665435  0.67672292  1  -0.305118  -0.524699  0.039613  2.333714  0.065
