# generated using pymatgen
data_CdH8(C2O)8
_symmetry_space_group_name_H-M   'P 1'
_cell_length_a   9.00488600
_cell_length_b   10.02100621
_cell_length_c   16.07554647
_cell_angle_alpha   90.00008187
_cell_angle_beta   90.00003701
_cell_angle_gamma   89.99998536
_symmetry_Int_Tables_number   1
_chemical_formula_structural   CdH8(C2O)8
_chemical_formula_sum   'Cd4 H32 C64 O32'
_cell_volume   1450.62546063
_cell_formula_units_Z   4
loop_
 _symmetry_equiv_pos_site_id
 _symmetry_equiv_pos_as_xyz
  1  'x, y, z'
loop_
 _atom_site_type_symbol
 _atom_site_label
 _atom_site_symmetry_multiplicity
 _atom_site_fract_x
 _atom_site_fract_y
 _atom_site_fract_z
 _atom_site_occupancy
 _atom_site_hle17_bader_spin_density
 _atom_site_hle17_ddec_charge
 _atom_site_hle17_ddec_spin_density
 _atom_site_hle17_ddec_sum_bond_order
 _atom_site_hle17_magmom
 _atom_site_hse06_10hf_bader_spin_density
 _atom_site_hse06_10hf_ddec_charge
 _atom_site_hse06_10hf_ddec_spin_density
 _atom_site_hse06_10hf_ddec_sum_bond_order
 _atom_site_hse06_10hf_magmom
 _atom_site_hse06_bader_spin_density
 _atom_site_hse06_ddec_charge
 _atom_site_hse06_ddec_spin_density
 _atom_site_hse06_ddec_sum_bond_order
 _atom_site_hse06_magmom
 _atom_site_pbe_bader_spin_density
 _atom_site_pbe_cm5_charge
 _atom_site_pbe_ddec_charge
 _atom_site_pbe_ddec_spin_density
 _atom_site_pbe_ddec_sum_bond_order
 _atom_site_pbe_magmom
Cd  Cd0  1  0.04579559  0.74999968  0.99999994  1  0  1.312458  0  1.577195  0  0  1.135974  0  2.038829  0  0  1.193305  0  1.976366  0  0  0.803539  1.094465  0  2.081879  0
Cd  Cd1  1  0.45420922  0.25000037  0.50000062  1  0  1.312527  0  1.577141  0  0  1.136037  0  2.038776  0  0  1.193364  0  1.976311  0  0  0.803542  1.094537  0  2.081828  0
Cd  Cd2  1  0.95420416  0.25000073  0.00000029  1  0  1.312578  0  1.577291  0  0  1.136143  0  2.03895  0  0  1.193464  0  1.97648  0  0  0.803486  1.094647  0  2.082008  0
Cd  Cd3  1  0.54579387  0.75000005  0.49999961  1  0  1.312531  0  1.577292  0  0  1.136064  0  2.038963  0  0  1.193392  0  1.97649  0  0  0.803501  1.094568  0  2.082017  0
H  H4  1  0.73701436  0.49330687  0.18317049  1  0  0.113254  0  0.935397  0  0  0.122872  0  0.996326  0  0  0.126355  0  0.993954  0  0  0.113701  0.120414  0  0.99795  0
H  H5  1  0.76298582  0.99330572  0.31683025  1  0  0.113296  0  0.935371  0  0  0.122892  0  0.99632  0  0  0.126383  0  0.993938  0  0  0.113727  0.120434  0  0.997941  0
H  H6  1  0.73701479  0.00669379  0.81682898  1  0  0.113296  0  0.935383  0  0  0.122886  0  0.996335  0  0  0.126371  0  0.993962  0  0  0.113713  0.120429  0  0.997958  0
H  H7  1  0.76298721  0.50669333  0.68317092  1  0  0.113306  0  0.93538  0  0  0.122902  0  0.996326  0  0  0.126393  0  0.993944  0  0  0.11373  0.120445  0  0.997947  0
H  H8  1  0.26298428  0.50669054  0.81682849  1  0  0.113291  0  0.935383  0  0  0.122899  0  0.99632  0  0  0.126375  0  0.993956  0  0  0.113714  0.120442  0  0.997941  0
H  H9  1  0.23701393  0.00669469  0.68316998  1  0  0.113301  0  0.935389  0  0  0.122893  0  0.996342  0  0  0.126384  0  0.993961  0  0  0.113723  0.120437  0  0.997964  0
H  H10  1  0.26298497  0.99330961  0.18317125  1  0  0.11326  0  0.935427  0  0  0.12286  0  0.996376  0  0  0.12632  0  0.994033  0  0  0.113692  0.120402  0  0.997996  0
H  H11  1  0.23701255  0.49330509  0.31682993  1  0  0.113295  0  0.935393  0  0  0.122893  0  0.996344  0  0  0.126383  0  0.993963  0  0  0.113728  0.120436  0  0.997966  0
H  H12  1  0.47875010  0.84796595  0.22728979  1  0  0.104626  0  0.963289  0  0  0.110258  0  1.032155  0  0  0.113672  0  1.029572  0  0  0.10565  0.107693  0  1.034243  0
H  H13  1  0.02124968  0.34796537  0.27271002  1  0  0.104643  0  0.963265  0  0  0.110278  0  1.032122  0  0  0.113692  0  1.029541  0  0  0.10567  0.107714  0  1.03421  0
H  H14  1  0.47875043  0.65203415  0.77271004  1  0  0.104638  0  0.963277  0  0  0.11027  0  1.032145  0  0  0.113684  0  1.029563  0  0  0.105661  0.107706  0  1.034234  0
H  H15  1  0.02124996  0.15203447  0.72729105  1  0  0.104632  0  0.963266  0  0  0.110265  0  1.032127  0  0  0.113679  0  1.029548  0  0  0.10565  0.107702  0  1.034216  0
H  H16  1  0.52125299  0.15203446  0.77270858  1  0  0.104573  0  0.963363  0  0  0.110214  0  1.032218  0  0  0.113626  0  1.029641  0  0  0.105632  0.107652  0  1.034305  0
H  H17  1  0.97874674  0.65203704  0.72729021  1  0  0.104621  0  0.963315  0  0  0.110255  0  1.032171  0  0  0.113668  0  1.029591  0  0  0.105643  0.107691  0  1.034258  0
H  H18  1  0.52125043  0.34796626  0.22729081  1  0  0.10461  0  0.963311  0  0  0.110235  0  1.03218  0  0  0.113647  0  1.029602  0  0  0.105636  0.107671  0  1.034267  0
H  H19  1  0.97874646  0.84796295  0.27270917  1  0  0.104622  0  0.963332  0  0  0.110282  0  1.03216  0  0  0.113695  0  1.029582  0  0  0.105662  0.107718  0  1.034246  0
H  H20  1  0.49449368  0.90353405  0.07669400  1  0  0.100195  0  0.969029  0  0  0.106965  0  1.03576  0  0  0.109639  0  1.035738  0  0  0.09985  0.105168  0  1.03572  0
H  H21  1  0.00550830  0.40353282  0.42330647  1  0  0.100221  0  0.969016  0  0  0.106993  0  1.035742  0  0  0.109667  0  1.035717  0  0  0.099856  0.105197  0  1.035703  0
H  H22  1  0.49449309  0.59646805  0.92330583  1  0  0.100216  0  0.968994  0  0  0.106984  0  1.035731  0  0  0.109658  0  1.035709  0  0  0.099848  0.105188  0  1.035692  0
H  H23  1  0.00550843  0.09646702  0.57669459  1  0  0.100215  0  0.968978  0  0  0.106977  0  1.035725  0  0  0.109652  0  1.0357  0  0  0.099811  0.10518  0  1.035687  0
H  H24  1  0.50551162  0.09646636  0.92330436  1  0  0.100195  0  0.968982  0  0  0.106914  0  1.035774  0  0  0.109585  0  1.035749  0  0  0.09981  0.105118  0  1.035735  0
H  H25  1  0.99449145  0.59646660  0.57669562  1  0  0.100186  0  0.968975  0  0  0.106947  0  1.03573  0  0  0.109622  0  1.035704  0  0  0.09982  0.105152  0  1.035692  0
H  H26  1  0.50551110  0.40353336  0.07669627  1  0  0.100212  0  0.968961  0  0  0.106933  0  1.035749  0  0  0.109605  0  1.035724  0  0  0.099819  0.105138  0  1.03571  0
H  H27  1  0.99449021  0.90353139  0.42330439  1  0  0.10018  0  0.969017  0  0  0.106904  0  1.035801  0  0  0.109574  0  1.035779  0  0  0.099834  0.105108  0  1.035764  0
H  H28  1  0.62634344  0.48324026  0.38353006  1  0  0.409596  0  0.883459  0  0  0.376737  0  0.963211  0  0  0.389874  0  0.947337  0  0  0.304182  0.367475  0  0.973177  0
H  H29  1  0.87365452  0.98324162  0.11647129  1  0  0.409601  0  0.883484  0  0  0.376716  0  0.963279  0  0  0.389853  0  0.947373  0  0  0.304193  0.367454  0  0.973245  0
H  H30  1  0.62634364  0.01675943  0.61646999  1  0  0.40959  0  0.883486  0  0  0.376732  0  0.963239  0  0  0.38987  0  0.947347  0  0  0.304192  0.36747  0  0.973206  0
H  H31  1  0.87365390  0.51675840  0.88352992  1  0  0.4096  0  0.883456  0  0  0.376711  0  0.963255  0  0  0.389851  0  0.947367  0  0  0.304196  0.367449  0  0.973221  0
H  H32  1  0.37365742  0.51675616  0.61646768  1  0  0.409476  0  0.883634  0  0  0.376652  0  0.963329  0  0  0.389789  0  0.947461  0  0  0.304137  0.367389  0  0.973296  0
H  H33  1  0.12634301  0.01675979  0.88353080  1  0  0.409571  0  0.883498  0  0  0.376769  0  0.963167  0  0  0.389901  0  0.947307  0  0  0.304179  0.367507  0  0.973134  0
H  H34  1  0.37365833  0.98324397  0.38353273  1  0  0.40948  0  0.883618  0  0  0.37666  0  0.963312  0  0  0.389796  0  0.947448  0  0  0.304147  0.367397  0  0.973278  0
H  H35  1  0.12634252  0.48324101  0.11646844  1  0  0.409557  0  0.883506  0  0  0.376756  0  0.963174  0  0  0.389887  0  0.947325  0  0  0.304181  0.367494  0  0.973141  0
C  C36  1  0.69705375  0.61687818  0.07643949  1  0  -0.119785  0  3.7359  0  0  -0.101531  0  3.978507  0  0  -0.111122  0  3.999251  0  0  -0.01743  -0.095456  0  3.964184  0
C  C37  1  0.80294764  0.11687588  0.42356154  1  0  -0.119736  0  3.735756  0  0  -0.101561  0  3.978439  0  0  -0.111151  0  3.999186  0  0  -0.017488  -0.095485  0  3.964116  0
C  C38  1  0.69705308  0.88312387  0.92356042  1  0  -0.119748  0  3.735893  0  0  -0.101511  0  3.978475  0  0  -0.111101  0  3.99922  0  0  -0.017486  -0.095435  0  3.964149  0
C  C39  1  0.80294880  0.38312377  0.57643920  1  0  -0.119645  0  3.735858  0  0  -0.101502  0  3.978553  0  0  -0.111092  0  3.999301  0  0  -0.017453  -0.095426  0  3.96423  0
C  C40  1  0.30294600  0.38311924  0.92356012  1  0  -0.11964  0  3.735667  0  0  -0.101511  0  3.978348  0  0  -0.111099  0  3.999095  0  0  -0.017414  -0.095436  0  3.964027  0
C  C41  1  0.19705211  0.88312453  0.57643869  1  0  -0.119626  0  3.735809  0  0  -0.101525  0  3.978545  0  0  -0.111112  0  3.999292  0  0  -0.017458  -0.095449  0  3.964223  0
C  C42  1  0.30294889  0.11687854  0.07643919  1  0  -0.119596  0  3.735648  0  0  -0.101437  0  3.978329  0  0  -0.111024  0  3.999068  0  0  -0.01737  -0.095362  0  3.964006  0
C  C43  1  0.19705095  0.61687564  0.42356103  1  0  -0.119728  0  3.735904  0  0  -0.101563  0  3.978571  0  0  -0.111151  0  3.999317  0  0  -0.017459  -0.095489  0  3.96425  0
C  C44  1  0.68387429  0.58387960  0.16046523  1  0  -0.04671  0  3.693614  0  0  -0.084824  0  3.945514  0  0  -0.081516  0  3.964569  0  0  -0.069675  -0.086769  0  3.932424  0
C  C45  1  0.81612600  0.08387710  0.33953577  1  0  -0.046701  0  3.693457  0  0  -0.084755  0  3.945367  0  0  -0.081452  0  3.964419  0  0  -0.069651  -0.0867  0  3.932278  0
C  C46  1  0.68387574  0.91612146  0.83953467  1  0  -0.046758  0  3.693589  0  0  -0.084842  0  3.945479  0  0  -0.081535  0  3.964534  0  0  -0.06966  -0.086787  0  3.932391  0
C  C47  1  0.81612613  0.41612255  0.66046498  1  0  -0.046769  0  3.693472  0  0  -0.084823  0  3.945383  0  0  -0.08152  0  3.964432  0  0  -0.069681  -0.086768  0  3.932297  0
C  C48  1  0.31612546  0.41611882  0.83953438  1  0  -0.046781  0  3.693636  0  0  -0.084862  0  3.94555  0  0  -0.081552  0  3.964612  0  0  -0.069675  -0.086803  0  3.932459  0
C  C49  1  0.18387153  0.91612331  0.66046446  1  0  -0.04679  0  3.693752  0  0  -0.08488  0  3.94563  0  0  -0.08158  0  3.964685  0  0  -0.069695  -0.086825  0  3.932542  0
C  C50  1  0.31612623  0.08387995  0.16046556  1  0  -0.046738  0  3.693625  0  0  -0.084813  0  3.945531  0  0  -0.08149  0  3.964598  0  0  -0.069665  -0.086754  0  3.932437  0
C  C51  1  0.18387140  0.58387686  0.33953525  1  0  -0.046757  0  3.693745  0  0  -0.084862  0  3.945635  0  0  -0.08156  0  3.964687  0  0  -0.069695  -0.086806  0  3.932545  0
C  C52  1  0.60625201  0.66710085  0.21504131  1  0  -0.086566  0  3.774191  0  0  -0.064226  0  4.010727  0  0  -0.075254  0  4.035282  0  0  -0.018634  -0.056934  0  3.9941  0
C  C53  1  0.89374826  0.16710121  0.28495852  1  0  -0.086676  0  3.774219  0  0  -0.064396  0  4.010783  0  0  -0.075425  0  4.035342  0  0  -0.01866  -0.057101  0  3.994159  0
C  C54  1  0.60625342  0.83289923  0.78495856  1  0  -0.086577  0  3.77415  0  0  -0.064241  0  4.010686  0  0  -0.075267  0  4.035244  0  0  -0.018632  -0.056952  0  3.994063  0
C  C55  1  0.89374848  0.33289743  0.71504164  1  0  -0.086631  0  3.774196  0  0  -0.064323  0  4.010755  0  0  -0.07535  0  4.035313  0  0  -0.018631  -0.05703  0  3.994135  0
C  C56  1  0.39374774  0.33289756  0.78495830  1  0  -0.086669  0  3.774186  0  0  -0.064276  0  4.010722  0  0  -0.075303  0  4.035279  0  0  -0.018648  -0.056983  0  3.994099  0
C  C57  1  0.10624816  0.83290319  0.71503985  1  0  -0.086644  0  3.774209  0  0  -0.064175  0  4.010572  0  0  -0.075204  0  4.035127  0  0  -0.018637  -0.056881  0  3.993948  0
C  C58  1  0.39374745  0.16710218  0.21504167  1  0  -0.086641  0  3.774185  0  0  -0.064254  0  4.010706  0  0  -0.075278  0  4.035257  0  0  -0.018617  -0.056961  0  3.994081  0
C  C59  1  0.10624905  0.66709700  0.28495921  1  0  -0.086566  0  3.774097  0  0  -0.064125  0  4.010519  0  0  -0.075152  0  4.035073  0  0  -0.018598  -0.056832  0  3.993892  0
C  C60  1  0.54014453  0.78397232  0.18457458  1  0  -0.025771  0  3.678732  0  0  -0.052859  0  3.928663  0  0  -0.049491  0  3.946228  0  0  -0.069476  -0.054732  0  3.916618  0
C  C61  1  0.95985460  0.28397174  0.31542660  1  0  -0.025779  0  3.678799  0  0  -0.052852  0  3.92874  0  0  -0.049483  0  3.946304  0  0  -0.069512  -0.054724  0  3.916696  0
C  C62  1  0.54014601  0.71602777  0.81542527  1  0  -0.025781  0  3.678733  0  0  -0.052883  0  3.928681  0  0  -0.049514  0  3.946245  0  0  -0.0695  -0.054755  0  3.91664  0
C  C63  1  0.95985481  0.21602788  0.68457483  1  0  -0.02573  0  3.678779  0  0  -0.052814  0  3.928715  0  0  -0.049445  0  3.946278  0  0  -0.069478  -0.054686  0  3.916673  0
C  C64  1  0.45985744  0.21602510  0.81542378  1  0  -0.025786  0  3.678802  0  0  -0.052883  0  3.928712  0  0  -0.049517  0  3.946279  0  0  -0.069519  -0.054753  0  3.916668  0
C  C65  1  0.04014071  0.71602967  0.68457550  1  0  -0.02584  0  3.678715  0  0  -0.052958  0  3.928613  0  0  -0.04959  0  3.946176  0  0  -0.06951  -0.054828  0  3.916569  0
C  C66  1  0.45985597  0.28397464  0.18457621  1  0  -0.025797  0  3.678781  0  0  -0.052886  0  3.928693  0  0  -0.04952  0  3.946261  0  0  -0.069518  -0.054755  0  3.916648  0
C  C67  1  0.04014050  0.78397053  0.31542416  1  0  -0.025882  0  3.678644  0  0  -0.053028  0  3.928563  0  0  -0.049661  0  3.946124  0  0  -0.069499  -0.054897  0  3.916517  0
C  C68  1  0.55098970  0.81555987  0.10055879  1  0  -0.088033  0  3.681422  0  0  -0.109421  0  3.936561  0  0  -0.113694  0  3.955516  0  0  -0.081757  -0.106986  0  3.923572  0
C  C69  1  0.94901275  0.31555848  0.39944179  1  0  -0.088065  0  3.6814  0  0  -0.109458  0  3.936538  0  0  -0.113729  0  3.955489  0  0  -0.081779  -0.107021  0  3.923549  0
C  C70  1  0.55099017  0.68444122  0.89944106  1  0  -0.088034  0  3.681389  0  0  -0.109417  0  3.936512  0  0  -0.113691  0  3.955468  0  0  -0.081755  -0.106982  0  3.923523  0
C  C71  1  0.94901177  0.18444014  0.60055962  1  0  -0.08811  0  3.681355  0  0  -0.109496  0  3.93648  0  0  -0.113766  0  3.955433  0  0  -0.081744  -0.107059  0  3.923492  0
C  C72  1  0.44901338  0.18444054  0.89944020  1  0  -0.087947  0  3.681284  0  0  -0.109287  0  3.936411  0  0  -0.113551  0  3.955362  0  0  -0.081674  -0.106851  0  3.923423  0
C  C73  1  0.05098700  0.68444293  0.60055844  1  0  -0.087965  0  3.681277  0  0  -0.109371  0  3.936404  0  0  -0.11364  0  3.955355  0  0  -0.081758  -0.106937  0  3.923418  0
C  C74  1  0.44901291  0.31555820  0.10055979  1  0  -0.088035  0  3.681287  0  0  -0.109376  0  3.936417  0  0  -0.11364  0  3.955365  0  0  -0.081723  -0.10694  0  3.923428  0
C  C75  1  0.05098687  0.81555628  0.39944123  1  0  -0.08791  0  3.681275  0  0  -0.109272  0  3.936434  0  0  -0.113533  0  3.95538  0  0  -0.08179  -0.106838  0  3.923445  0
C  C76  1  0.62951594  0.73355206  0.04515412  1  0  0.074342  0  3.711843  0  0  0.077463  0  3.948685  0  0  0.081248  0  3.969302  0  0  0.012208  0.075409  0  3.934389  0
C  C77  1  0.87048542  0.23354882  0.45484639  1  0  0.07438  0  3.71164  0  0  0.077517  0  3.948503  0  0  0.081304  0  3.969118  0  0  0.012264  0.075464  0  3.93421  0
C  C78  1  0.62951645  0.76645000  0.95484576  1  0  0.074262  0  3.711881  0  0  0.077408  0  3.9487  0  0  0.081192  0  3.969317  0  0  0.012231  0.075358  0  3.934402  0
C  C79  1  0.87048325  0.26645081  0.54515375  1  0  0.074298  0  3.711747  0  0  0.077471  0  3.948574  0  0  0.081248  0  3.969211  0  0  0.012254  0.075419  0  3.934281  0
C  C80  1  0.37048492  0.26644934  0.95484611  1  0  0.074308  0  3.711742  0  0  0.077472  0  3.948562  0  0  0.081251  0  3.969191  0  0  0.012218  0.075421  0  3.93427  0
C  C81  1  0.12951322  0.76645059  0.54515446  1  0  0.074228  0  3.711792  0  0  0.077444  0  3.948562  0  0  0.081225  0  3.96919  0  0  0.012231  0.075393  0  3.934269  0
C  C82  1  0.37048664  0.23354941  0.04515385  1  0  0.074277  0  3.711737  0  0  0.077442  0  3.948549  0  0  0.081227  0  3.969164  0  0  0.012211  0.075389  0  3.934257  0
C  C83  1  0.12951428  0.73354960  0.45484647  1  0  0.074321  0  3.711823  0  0  0.077501  0  3.948579  0  0  0.081278  0  3.969217  0  0  0.012274  0.075448  0  3.934286  0
C  C84  1  0.78850520  0.52775233  0.02242824  1  0  0.679959  0  3.873809  0  0  0.621089  0  4.175676  0  0  0.657103  0  4.1667  0  0  0.219468  0.596637  0  4.181112  0
C  C85  1  0.71149733  0.02774618  0.47757147  1  0  0.679785  0  3.874019  0  0  0.620949  0  4.175864  0  0  0.656957  0  4.166894  0  0  0.219413  0.596497  0  4.181296  0
C  C86  1  0.78850567  0.97224871  0.97757170  1  0  0.679898  0  3.873674  0  0  0.621066  0  4.175484  0  0  0.657076  0  4.166509  0  0  0.219469  0.596612  0  4.18092  0
C  C87  1  0.71149730  0.47225249  0.52242924  1  0  0.679791  0  3.87392  0  0  0.620964  0  4.175762  0  0  0.656973  0  4.16679  0  0  0.219398  0.596512  0  4.181195  0
C  C88  1  0.21150122  0.47226305  0.97757075  1  0  0.679526  0  3.874296  0  0  0.620792  0  4.176029  0  0  0.656798  0  4.167059  0  0  0.219312  0.59634  0  4.181461  0
C  C89  1  0.28850131  0.97225922  0.52242938  1  0  0.679689  0  3.874079  0  0  0.62088  0  4.175926  0  0  0.656885  0  4.166955  0  0  0.219381  0.596428  0  4.181357  0
C  C90  1  0.21150185  0.02773574  0.02242915  1  0  0.679529  0  3.874318  0  0  0.620712  0  4.176167  0  0  0.656718  0  4.167195  0  0  0.219246  0.596259  0  4.181599  0
C  C91  1  0.28850135  0.52774492  0.47757037  1  0  0.679725  0  3.874002  0  0  0.620899  0  4.175835  0  0  0.656908  0  4.166861  0  0  0.219362  0.596447  0  4.181269  0
C  C92  1  0.59174661  0.63154165  0.30431353  1  0  0.671097  0  3.81331  0  0  0.62232  0  4.10343  0  0  0.657073  0  4.094833  0  0  0.240367  0.598887  0  4.108128  0
C  C93  1  0.90824923  0.13154080  0.19568938  1  0  0.671262  0  3.813299  0  0  0.622559  0  4.103306  0  0  0.657307  0  4.094719  0  0  0.24046  0.599124  0  4.10801  0
C  C94  1  0.59174901  0.86845743  0.69568633  1  0  0.67115  0  3.813148  0  0  0.622376  0  4.103267  0  0  0.657119  0  4.094685  0  0  0.240384  0.598951  0  4.107957  0
C  C95  1  0.90824621  0.36846182  0.80431078  1  0  0.671287  0  3.813329  0  0  0.622526  0  4.10341  0  0  0.657274  0  4.094823  0  0  0.240416  0.599092  0  4.108112  0
C  C96  1  0.40825426  0.36844678  0.69568110  1  0  0.671319  0  3.813335  0  0  0.622423  0  4.103612  0  0  0.657171  0  4.09502  0  0  0.240449  0.598989  0  4.108316  0
C  C97  1  0.09174274  0.86844963  0.80431770  1  0  0.671137  0  3.813411  0  0  0.622294  0  4.103566  0  0  0.657054  0  4.094952  0  0  0.240338  0.59886  0  4.108268  0
C  C98  1  0.40825407  0.13155396  0.30431949  1  0  0.671352  0  3.813286  0  0  0.622492  0  4.10352  0  0  0.657242  0  4.094922  0  0  0.24046  0.599058  0  4.108224  0
C  C99  1  0.09174466  0.63155057  0.19568198  1  0  0.671202  0  3.813276  0  0  0.622363  0  4.103446  0  0  0.65712  0  4.094836  0  0  0.240353  0.598929  0  4.108146  0
O  O100  1  0.87378720  0.58318496  0.96796254  1  0  -0.683784  0  2.132789  0  0  -0.609913  0  2.386909  0  0  -0.640175  0  2.374803  0  0  -0.318739  -0.58894  0  2.394579  0
O  O101  1  0.62621588  0.08318181  0.53203805  1  0  -0.68374  0  2.132737  0  0  -0.609881  0  2.386804  0  0  -0.640133  0  2.374692  0  0  -0.318717  -0.588908  0  2.394472  0
O  O102  1  0.87378774  0.91681506  0.03203805  1  0  -0.68372  0  2.132635  0  0  -0.60989  0  2.386777  0  0  -0.640147  0  2.374664  0  0  -0.318735  -0.588914  0  2.394444  0
O  O103  1  0.62621579  0.41681689  0.46796262  1  0  -0.68374  0  2.132714  0  0  -0.609884  0  2.386784  0  0  -0.640137  0  2.374677  0  0  -0.318713  -0.588911  0  2.394453  0
O  O104  1  0.12621144  0.41681146  0.03203956  1  0  -0.683756  0  2.132458  0  0  -0.610003  0  2.386531  0  0  -0.640256  0  2.374431  0  0  -0.318804  -0.589025  0  2.394199  0
O  O105  1  0.37378943  0.91681561  0.46796093  1  0  -0.683705  0  2.132465  0  0  -0.609912  0  2.386559  0  0  -0.64016  0  2.374446  0  0  -0.318778  -0.588936  0  2.394227  0
O  O106  1  0.12621090  0.08318835  0.96796031  1  0  -0.683788  0  2.13248  0  0  -0.609999  0  2.386571  0  0  -0.640251  0  2.374469  0  0  -0.318797  -0.589022  0  2.394238  0
O  O107  1  0.37378951  0.58318651  0.53203947  1  0  -0.683743  0  2.132485  0  0  -0.609965  0  2.386629  0  0  -0.640222  0  2.374523  0  0  -0.318794  -0.588988  0  2.394297  0
O  O108  1  0.77770664  0.40337960  0.03321848  1  0  -0.616742  0  2.006089  0  0  -0.551453  0  2.257308  0  0  -0.580399  0  2.245894  0  0  -0.306616  -0.531117  0  2.264148  0
O  O109  1  0.72229356  0.90337680  0.46678031  1  0  -0.616635  0  2.006334  0  0  -0.551331  0  2.257504  0  0  -0.580278  0  2.246097  0  0  -0.306556  -0.530995  0  2.264338  0
O  O110  1  0.77770721  0.09662106  0.96678225  1  0  -0.616733  0  2.006057  0  0  -0.551451  0  2.257252  0  0  -0.580397  0  2.24584  0  0  -0.306611  -0.531117  0  2.264093  0
O  O111  1  0.72229364  0.59662325  0.53322022  1  0  -0.616697  0  2.006221  0  0  -0.551394  0  2.257398  0  0  -0.580342  0  2.24599  0  0  -0.306594  -0.531058  0  2.264235  0
O  O112  1  0.22229644  0.59660983  0.96678299  1  0  -0.616355  0  2.006871  0  0  -0.551086  0  2.258  0  0  -0.580023  0  2.246589  0  0  -0.306461  -0.530754  0  2.264838  0
O  O113  1  0.27770952  0.09661862  0.53321743  1  0  -0.616539  0  2.006566  0  0  -0.551214  0  2.257701  0  0  -0.580159  0  2.246294  0  0  -0.306495  -0.530881  0  2.264539  0
O  O114  1  0.22229698  0.90338933  0.03321673  1  0  -0.616322  0  2.006827  0  0  -0.551017  0  2.257982  0  0  -0.579956  0  2.246569  0  0  -0.306405  -0.530686  0  2.26482  0
O  O115  1  0.27770833  0.40338315  0.46678250  1  0  -0.616549  0  2.006466  0  0  -0.551233  0  2.257616  0  0  -0.580176  0  2.246207  0  0  -0.306493  -0.5309  0  2.264455  0
O  O116  1  0.64085886  0.51070450  0.32197323  1  0  -0.539221  0  2.111699  0  0  -0.485448  0  2.328437  0  0  -0.508487  0  2.313  0  0  -0.317169  -0.469738  0  2.337944  0
O  O117  1  0.85913813  0.01070761  0.17802708  1  0  -0.539277  0  2.111944  0  0  -0.485504  0  2.328685  0  0  -0.508541  0  2.313221  0  0  -0.317222  -0.469793  0  2.338193  0
O  O118  1  0.64085899  0.98929357  0.67802603  1  0  -0.539248  0  2.111668  0  0  -0.485485  0  2.328416  0  0  -0.508521  0  2.312969  0  0  -0.317203  -0.469777  0  2.337921  0
O  O119  1  0.85913842  0.48929303  0.82197306  1  0  -0.539254  0  2.112012  0  0  -0.485459  0  2.328777  0  0  -0.508497  0  2.31333  0  0  -0.317179  -0.469748  0  2.338287  0
O  O120  1  0.35914089  0.48929192  0.67802389  1  0  -0.539286  0  2.111602  0  0  -0.485488  0  2.328347  0  0  -0.508527  0  2.312915  0  0  -0.317252  -0.469775  0  2.337854  0
O  O121  1  0.14085829  0.98929579  0.82197563  1  0  -0.539233  0  2.11151  0  0  -0.48548  0  2.328204  0  0  -0.508521  0  2.312772  0  0  -0.31717  -0.469769  0  2.337711  0
O  O122  1  0.35914187  0.01070784  0.32197606  1  0  -0.539307  0  2.111523  0  0  -0.48553  0  2.328248  0  0  -0.508569  0  2.312817  0  0  -0.317266  -0.469817  0  2.337753  0
O  O123  1  0.14085800  0.51070439  0.17802406  1  0  -0.539261  0  2.11145  0  0  -0.485505  0  2.328141  0  0  -0.508544  0  2.312718  0  0  -0.317203  -0.469794  0  2.337647  0
O  O124  1  0.53551160  0.70988814  0.35565427  1  0  -0.602718  0  2.022383  0  0  -0.546044  0  2.270832  0  0  -0.571513  0  2.258839  0  0  -0.297676  -0.528288  0  2.278027  0
O  O125  1  0.96448533  0.20989315  0.14434498  1  0  -0.602838  0  2.022166  0  0  -0.546199  0  2.270601  0  0  -0.571659  0  2.25859  0  0  -0.297719  -0.52844  0  2.277799  0
O  O126  1  0.53551397  0.79010996  0.64434620  1  0  -0.602739  0  2.022299  0  0  -0.546049  0  2.270735  0  0  -0.571513  0  2.258739  0  0  -0.297672  -0.528296  0  2.277929  0
O  O127  1  0.96448239  0.29010647  0.85565520  1  0  -0.602873  0  2.022135  0  0  -0.546194  0  2.270574  0  0  -0.571654  0  2.258562  0  0  -0.297708  -0.528434  0  2.277771  0
O  O128  1  0.46447927  0.29010928  0.64434845  1  0  -0.602693  0  2.022778  0  0  -0.545983  0  2.271299  0  0  -0.571444  0  2.259299  0  0  -0.297607  -0.528227  0  2.278498  0
O  O129  1  0.03551886  0.79011325  0.85565090  1  0  -0.602669  0  2.022844  0  0  -0.545987  0  2.271323  0  0  -0.571457  0  2.259325  0  0  -0.297614  -0.528231  0  2.278521  0
O  O130  1  0.46448023  0.20989045  0.35565216  1  0  -0.602759  0  2.022824  0  0  -0.546058  0  2.271318  0  0  -0.571525  0  2.259328  0  0  -0.297639  -0.528303  0  2.278517  0
O  O131  1  0.03552070  0.70988895  0.14434876  1  0  -0.602708  0  2.022778  0  0  -0.546022  0  2.271266  0  0  -0.57149  0  2.259262  0  0  -0.297609  -0.528267  0  2.278463  0
