# generated using pymatgen
data_ZnPH5C5NClO3
_symmetry_space_group_name_H-M   'P 1'
_cell_length_a   9.58271841
_cell_length_b   9.58271648
_cell_length_c   10.23204454
_cell_angle_alpha   82.55956111
_cell_angle_beta   82.55920228
_cell_angle_gamma   75.04020205
_symmetry_Int_Tables_number   1
_chemical_formula_structural   ZnPH5C5NClO3
_chemical_formula_sum   'Zn4 P4 H20 C20 N4 Cl4 O12'
_cell_volume   895.56640097
_cell_formula_units_Z   4
loop_
 _symmetry_equiv_pos_site_id
 _symmetry_equiv_pos_as_xyz
  1  'x, y, z'
loop_
 _atom_site_type_symbol
 _atom_site_label
 _atom_site_symmetry_multiplicity
 _atom_site_fract_x
 _atom_site_fract_y
 _atom_site_fract_z
 _atom_site_occupancy
 _atom_site_pbe_bader_spin_density
 _atom_site_pbe_cm5_charge
 _atom_site_pbe_ddec_charge
 _atom_site_pbe_ddec_spin_density
 _atom_site_pbe_ddec_sum_bond_order
 _atom_site_pbe_magmom
Zn  Zn0  1  0.78345941  0.06902669  0.93267609  1  0  0.627122  0.957932  0  2.47644  0
Zn  Zn1  1  0.93097166  0.21654097  0.56732431  1  0  0.627135  0.957923  0  2.476426  0
Zn  Zn2  1  0.21654156  0.93097305  0.06732412  1  0  0.627125  0.957913  0  2.47644  0
Zn  Zn3  1  0.06902852  0.78345768  0.43267514  1  0  0.627136  0.957918  0  2.476434  0
P  P4  1  0.08289222  0.16541447  0.83248951  1  0  0.351817  1.293551  0  5.428977  0
P  P5  1  0.83458281  0.91710853  0.66750842  1  0  0.351816  1.29361  0  5.429017  0
P  P6  1  0.91710796  0.83458418  0.16750995  1  0  0.351826  1.29362  0  5.42893  0
P  P7  1  0.16541578  0.08289230  0.33249096  1  0  0.351773  1.293553  0  5.429055  0
H  H8  1  0.04208245  0.67690705  0.72018498  1  0  0.309683  0.283671  0  1.000873  0
H  H9  1  0.32309362  0.95791688  0.77981628  1  0  0.309686  0.283654  0  1.000912  0
H  H10  1  0.95791720  0.32309377  0.27981526  1  0  0.309697  0.283646  0  1.000911  0
H  H11  1  0.67690524  0.04208285  0.22018613  1  0  0.309696  0.283666  0  1.000919  0
H  H12  1  0.00454962  0.45679823  0.68911044  1  0  0.117735  0.095636  0  1.042765  0
H  H13  1  0.54320423  0.99544554  0.81088567  1  0  0.117729  0.095662  0  1.042842  0
H  H14  1  0.99544924  0.54320151  0.31088806  1  0  0.117753  0.095687  0  1.042745  0
H  H15  1  0.45679567  0.00455419  0.18911661  1  0  0.117716  0.095616  0  1.042908  0
H  H16  1  0.25052336  0.25733665  0.02055261  1  0  0.11084  0.122301  0  1.003663  0
H  H17  1  0.74266463  0.74947562  0.47944171  1  0  0.110837  0.122344  0  1.003705  0
H  H18  1  0.74947760  0.74266309  0.97944662  1  0  0.110885  0.122385  0  1.003729  0
H  H19  1  0.25733554  0.25052303  0.52055872  1  0  0.110842  0.122341  0  1.003738  0
H  H20  1  0.29068507  0.50287000  0.04241050  1  0  0.119783  0.135078  0  0.976415  0
H  H21  1  0.49712779  0.70931480  0.45758766  1  0  0.119775  0.135094  0  0.976408  0
H  H22  1  0.70931590  0.49712973  0.95758873  1  0  0.119785  0.135074  0  0.976449  0
H  H23  1  0.50287237  0.29068384  0.54241570  1  0  0.119814  0.135127  0  0.976367  0
H  H24  1  0.17541600  0.71524047  0.88763422  1  0  0.131842  0.113808  0  0.991569  0
H  H25  1  0.28475897  0.82458246  0.61236603  1  0  0.131819  0.113785  0  0.991508  0
H  H26  1  0.82458286  0.28475927  0.11236526  1  0  0.131849  0.113821  0  0.991587  0
H  H27  1  0.71524225  0.17541619  0.38763525  1  0  0.13185  0.113819  0  0.991583  0
C  C28  1  0.06957817  0.45751855  0.76899671  1  0  0.077164  0.116934  0  3.847869  0
C  C29  1  0.54248453  0.93042076  0.73099967  1  0  0.07717  0.1169  0  3.847867  0
C  C30  1  0.93042280  0.54248120  0.23100056  1  0  0.077155  0.116869  0  3.847891  0
C  C31  1  0.45751669  0.06957788  0.26900259  1  0  0.077193  0.116962  0  3.848073  0
C  C32  1  0.12573885  0.33522577  0.85303296  1  0  -0.010526  -0.221471  0  3.931072  0
C  C33  1  0.66477749  0.87426142  0.64696761  1  0  -0.010525  -0.221426  0  3.931112  0
C  C34  1  0.87426212  0.66477397  0.14696529  1  0  -0.010552  -0.221529  0  3.931096  0
C  C35  1  0.33522268  0.12573722  0.35303379  1  0  -0.010505  -0.221441  0  3.931097  0
C  C36  1  0.20642051  0.35122632  0.95286934  1  0  -0.041865  0.025792  0  3.864664  0
C  C37  1  0.64877713  0.79357404  0.54712877  1  0  -0.041855  0.025738  0  3.86472  0
C  C38  1  0.79357887  0.64877559  0.04712982  1  0  -0.0419  0.025732  0  3.864772  0
C  C39  1  0.35122304  0.20642461  0.45287264  1  0  -0.041865  0.025751  0  3.864674  0
C  C40  1  0.22830074  0.48713283  0.96623330  1  0  -0.065538  -0.10804  0  3.916734  0
C  C41  1  0.51287053  0.77169677  0.53376089  1  0  -0.065564  -0.108058  0  3.916716  0
C  C42  1  0.77169864  0.51286908  0.03376488  1  0  -0.065569  -0.108074  0  3.916804  0
C  C43  1  0.48713097  0.22830080  0.46623951  1  0  -0.065593  -0.108084  0  3.916699  0
C  C44  1  0.16793391  0.60527210  0.88057254  1  0  0.074236  0.109402  0  3.839738  0
C  C45  1  0.39472883  0.83206608  0.61942608  1  0  0.07428  0.109396  0  3.839654  0
C  C46  1  0.83206285  0.39472765  0.11942719  1  0  0.074234  0.109378  0  3.839729  0
C  C47  1  0.60527318  0.16793365  0.38057401  1  0  0.074218  0.109336  0  3.839785  0
N  N48  1  0.09119359  0.58701138  0.78548686  1  0  -0.336882  -0.133639  0  3.674245  0
N  N49  1  0.41298829  0.90880417  0.71451038  1  0  -0.33686  -0.133604  0  3.674078  0
N  N50  1  0.90880527  0.41298836  0.21451261  1  0  -0.336848  -0.133522  0  3.6742  0
N  N51  1  0.58701293  0.09119448  0.28548992  1  0  -0.336863  -0.133599  0  3.674237  0
Cl  Cl52  1  0.56286727  0.21453475  0.93527502  1  0  -0.338313  -0.549787  0  1.116112  0
Cl  Cl53  1  0.78546347  0.43713402  0.56472538  1  0  -0.338314  -0.549788  0  1.116122  0
Cl  Cl54  1  0.43713237  0.78546608  0.06472521  1  0  -0.338315  -0.549781  0  1.116125  0
Cl  Cl55  1  0.21453513  0.56286680  0.43527498  1  0  -0.338317  -0.549787  0  1.116146  0
O  O56  1  0.93516013  0.17540658  0.91167699  1  0  -0.375898  -0.757752  0  2.394025  0
O  O57  1  0.82459266  0.06484031  0.58832317  1  0  -0.375923  -0.757782  0  2.394011  0
O  O58  1  0.06483951  0.82459425  0.08832227  1  0  -0.375915  -0.757783  0  2.393996  0
O  O59  1  0.17540593  0.93516052  0.41167622  1  0  -0.375904  -0.757751  0  2.393984  0
O  O60  1  0.08752851  0.15957042  0.68316510  1  0  -0.380165  -0.750615  0  2.353763  0
O  O61  1  0.84042931  0.91247163  0.81683159  1  0  -0.380139  -0.750633  0  2.353824  0
O  O62  1  0.91247141  0.84042932  0.31683425  1  0  -0.380161  -0.750628  0  2.353777  0
O  O63  1  0.15957139  0.08752919  0.18316754  1  0  -0.380126  -0.750592  0  2.353785  0
O  O64  1  0.20520289  0.04029382  0.88678765  1  0  -0.371047  -0.732781  0  2.377033  0
O  O65  1  0.95970763  0.79480028  0.61321170  1  0  -0.371069  -0.732837  0  2.377002  0
O  O66  1  0.79479702  0.95970591  0.11321171  1  0  -0.371051  -0.732831  0  2.377057  0
O  O67  1  0.04029386  0.20520163  0.38678819  1  0  -0.371051  -0.732812  0  2.377053  0
