# generated using pymatgen
data_CuH8(C4N7)2
_symmetry_space_group_name_H-M   'P 1'
_cell_length_a   6.14289724
_cell_length_b   9.79000336
_cell_length_c   10.05476603
_cell_angle_alpha   90.73173608
_cell_angle_beta   90.00026726
_cell_angle_gamma   89.99992891
_symmetry_Int_Tables_number   1
_chemical_formula_structural   CuH8(C4N7)2
_chemical_formula_sum   'Cu2 H16 C16 N28'
_cell_volume   604.63410719
_cell_formula_units_Z   2
loop_
 _symmetry_equiv_pos_site_id
 _symmetry_equiv_pos_as_xyz
  1  'x, y, z'
loop_
 _atom_site_type_symbol
 _atom_site_label
 _atom_site_symmetry_multiplicity
 _atom_site_fract_x
 _atom_site_fract_y
 _atom_site_fract_z
 _atom_site_occupancy
 _atom_site_hle17_ddec_charge
 _atom_site_hle17_ddec_spin_density
 _atom_site_hle17_ddec_sum_bond_order
 _atom_site_hle17_magmom
 _atom_site_hse06_10hf_ddec_charge
 _atom_site_hse06_10hf_ddec_spin_density
 _atom_site_hse06_10hf_ddec_sum_bond_order
 _atom_site_hse06_10hf_magmom
 _atom_site_hse06_ddec_charge
 _atom_site_hse06_ddec_spin_density
 _atom_site_hse06_ddec_sum_bond_order
 _atom_site_hse06_magmom
 _atom_site_pbe_cm5_charge
 _atom_site_pbe_ddec_charge
 _atom_site_pbe_ddec_spin_density
 _atom_site_pbe_ddec_sum_bond_order
 _atom_site_pbe_magmom
Cu  Cu0  1  0.49999857  0.99999920  0.50000038  1  0.712873  -0.661145  1.941298  -0.488  0.667668  -0.759416  2.343232  -0.609  0.751198  -0.823104  2.283417  -0.691  0.759154  0.61941  -0.716686  2.382688  -0.558
Cu  Cu1  1  0.00000369  0.00000005  0.99999969  1  0.712834  -0.661144  1.941384  -0.488  0.66753  -0.759381  2.343338  -0.609  0.751094  -0.823127  2.283551  -0.691  0.759145  0.619331  -0.716695  2.382794  -0.558
H  H2  1  0.15259081  0.87438173  0.42869435  1  0.315063  0.002296  0.884619  0.002  0.296797  0.000559  0.956384  0.001  0.304197  0.000736  0.951255  0.001  0.304843  0.291635  0.000371  0.960305  0.0
H  H3  1  0.65258949  0.12562567  0.07130591  1  0.315069  0.002297  0.884571  0.002  0.296779  0.000558  0.956376  0.001  0.304177  0.000735  0.95125  0.001  0.304841  0.291619  0.00037  0.960298  0.0
H  H4  1  0.84740494  0.12561589  0.57130802  1  0.315021  0.002297  0.884691  0.002  0.296812  0.000559  0.9564  0.001  0.304213  0.000736  0.951269  0.001  0.304859  0.291647  0.000371  0.960328  0.0
H  H5  1  0.34742091  0.87437926  0.92869286  1  0.31507  0.002294  0.884677  0.002  0.296806  0.000558  0.956439  0.001  0.304204  0.000735  0.951314  0.001  0.304857  0.291647  0.00037  0.960356  0.0
H  H6  1  0.13022239  0.91896470  0.58801892  1  0.306579  0.000979  0.904428  0.001  0.28676  0.000338  0.977068  0.0  0.293206  0.000651  0.973549  0.001  0.29752  0.282183  0.000101  0.979942  0.0
H  H7  1  0.63022212  0.08104376  0.91198102  1  0.306521  0.00098  0.904559  0.001  0.286786  0.000339  0.977077  0.0  0.293234  0.000652  0.973557  0.001  0.297539  0.282213  0.000101  0.979952  0.0
H  H8  1  0.86977336  0.08103708  0.41198168  1  0.306584  0.000981  0.904461  0.001  0.286779  0.000338  0.977085  0.0  0.293225  0.000652  0.973565  0.001  0.297539  0.282203  0.000101  0.979957  0.0
H  H9  1  0.36978177  0.91895500  0.08801843  1  0.306519  0.000976  0.904554  0.001  0.286793  0.000339  0.977064  0.0  0.29324  0.000651  0.973546  0.001  0.297542  0.282217  0.000101  0.979941  0.0
H  H10  1  0.49666475  0.47118789  0.70492872  1  0.121288  -0.0001  0.949278  0.0  0.127621  -3.5e-05  1.014941  0.0  0.130316  -1.1e-05  1.012906  0.0  0.127246  0.12549  -5.6e-05  1.016781  0.0
H  H11  1  0.99667334  0.52881329  0.79507490  1  0.121298  -9.9e-05  0.949269  0.0  0.127624  -3.5e-05  1.014939  0.0  0.130319  -1.2e-05  1.0129  0.0  0.127226  0.125489  -5.6e-05  1.016779  0.0
H  H12  1  0.50331960  0.52881139  0.29508269  1  0.121336  -9.9e-05  0.949315  0.0  0.127663  -3.5e-05  1.014979  0.0  0.13037  -1.1e-05  1.012911  0.0  0.127205  0.125528  -5.6e-05  1.016819  0.0
H  H13  1  0.00334032  0.47118428  0.20492846  1  0.121251  -0.0001  0.949253  0.0  0.127602  -3.5e-05  1.014899  0.0  0.130307  -1.2e-05  1.012838  0.0  0.127196  0.12547  -5.6e-05  1.016739  0.0
H  H14  1  0.84452710  0.57408981  0.43183402  1  0.281709  6.2e-05  0.933299  0.0  0.24171  -7.7e-05  1.035075  0.0  0.250903  -4e-05  1.026512  0.0  0.315296  0.235266  -0.000139  1.041005  0.0
H  H15  1  0.34454860  0.42590427  0.06816711  1  0.281628  6.2e-05  0.933132  0.0  0.241606  -7.7e-05  1.034978  0.0  0.250801  -3.9e-05  1.026414  0.0  0.315201  0.235161  -0.000139  1.040904  0.0
H  H16  1  0.15545563  0.42590972  0.56817144  1  0.28164  6.3e-05  0.933225  0.0  0.241656  -7.7e-05  1.03506  0.0  0.25085  -3.9e-05  1.026493  0.0  0.315234  0.235206  -0.000139  1.040991  0.0
H  H17  1  0.65546831  0.57409568  0.93182841  1  0.281678  6.2e-05  0.933127  0.0  0.241637  -7.7e-05  1.034935  0.0  0.250831  -4e-05  1.026371  0.0  0.315257  0.235199  -0.000139  1.040864  0.0
C  C18  1  0.61419824  0.77554032  0.68997463  1  0.313963  0.002434  3.82861  0.0  0.294086  1.8e-05  4.095643  -0.002  0.310413  0.001181  4.108807  0.0  0.214184  0.283512  -0.000998  4.086554  -0.003
C  C19  1  0.11420275  0.22445896  0.81002478  1  0.313947  0.002437  3.82874  0.0  0.294057  1.5e-05  4.095725  -0.002  0.310385  0.00118  4.10889  0.0  0.214215  0.283486  -0.000998  4.086637  -0.003
C  C20  1  0.38579425  0.22445734  0.31002674  1  0.313999  0.002446  3.828671  0.0  0.294142  1.6e-05  4.095728  -0.002  0.310457  0.00118  4.10889  0.0  0.214188  0.283579  -0.000998  4.086643  -0.003
C  C21  1  0.88579788  0.77553895  0.18997064  1  0.31396  0.002419  3.82868  0.0  0.294053  2e-05  4.095652  -0.002  0.310379  0.00118  4.108818  0.0  0.214221  0.283483  -0.000998  4.086553  -0.003
C  C22  1  0.44020052  0.68992150  0.64166853  1  -0.187468  -0.010834  3.824562  -0.011  -0.182186  -0.003075  4.08608  -0.004  -0.195319  -0.001948  4.109927  -0.003  -0.030922  -0.173756  -0.003625  4.069868  -0.004
C  C23  1  0.94020552  0.31008164  0.85833702  1  -0.187544  -0.010821  3.824632  -0.011  -0.182189  -0.003076  4.086009  -0.004  -0.195323  -0.001947  4.109856  -0.003  -0.030914  -0.173758  -0.003624  4.069795  -0.004
C  C24  1  0.55978220  0.31007697  0.35833787  1  -0.187441  -0.01083  3.824523  -0.011  -0.18212  -0.003074  4.085969  -0.004  -0.195255  -0.001948  4.109822  -0.003  -0.030865  -0.173688  -0.003625  4.06976  -0.004
C  C25  1  0.05980489  0.68991635  0.14165641  1  -0.187704  -0.010826  3.824772  -0.011  -0.182242  -0.003075  4.08608  -0.004  -0.195376  -0.001949  4.109929  -0.003  -0.030922  -0.173812  -0.003625  4.069857  -0.004
C  C26  1  0.26905288  0.73384181  0.55806817  1  0.352661  -0.000291  3.756657  0.001  0.324522  0.000993  4.039366  0.002  0.337327  0.002618  4.058902  0.003  0.190275  0.316438  -0.000403  4.025901  0.001
C  C27  1  0.76906191  0.26616445  0.94193604  1  0.352679  -0.000291  3.756709  0.001  0.32457  0.000999  4.039329  0.002  0.337374  0.002618  4.058865  0.003  0.190283  0.316489  -0.000403  4.025867  0.001
C  C28  1  0.73093962  0.26615994  0.44193342  1  0.352582  -0.000281  3.756604  0.001  0.324465  0.000991  4.039285  0.002  0.337269  0.002617  4.05882  0.003  0.190258  0.316382  -0.000403  4.025825  0.001
C  C29  1  0.23094524  0.73383738  0.05806356  1  0.352783  -0.00031  3.756668  0.001  0.32457  0.000997  4.039389  0.002  0.337373  0.002621  4.058926  0.003  0.19023  0.31649  -0.000403  4.025919  0.001
C  C30  1  0.40667756  0.54965921  0.65367663  1  0.047694  0.01031  3.642078  0.007  -0.011284  0.002629  3.915168  0.002  -0.00014  0.002779  3.927637  0.002  0.029173  -0.01822  0.002151  3.906658  0.001
C  C31  1  0.90668519  0.45034524  0.84632193  1  0.047745  0.010281  3.641925  0.007  -0.011282  0.002631  3.915002  0.002  -0.000132  0.002778  3.927461  0.002  0.029211  -0.018214  0.002151  3.90649  0.001
C  C32  1  0.59329540  0.45034440  0.34632904  1  0.047689  0.010305  3.64159  0.007  -0.011301  0.00263  3.914658  0.002  -0.000153  0.00278  3.927132  0.002  0.029202  -0.018233  0.002152  3.906149  0.001
C  C33  1  0.09333009  0.54965781  0.15367276  1  0.047739  0.010302  3.642222  0.007  -0.011289  0.002628  3.915302  0.002  -0.000142  0.002776  3.927772  0.002  0.029213  -0.018226  0.00215  3.90679  0.001
N  N34  1  0.67150789  0.89263941  0.62903445  1  -0.310221  -0.066433  3.266288  -0.085  -0.277313  -0.048348  3.586263  -0.066  -0.306345  -0.039853  3.604262  -0.058  -0.268986  -0.260336  -0.052824  3.575854  -0.068
N  N35  1  0.17150515  0.10735987  0.87096513  1  -0.310183  -0.066436  3.266433  -0.085  -0.277279  -0.048342  3.586418  -0.066  -0.306322  -0.039852  3.604431  -0.058  -0.269005  -0.260332  -0.052822  3.576067  -0.068
N  N36  1  0.32849112  0.10735728  0.37096588  1  -0.310078  -0.066442  3.266112  -0.085  -0.277321  -0.04834  3.586242  -0.066  -0.306321  -0.039852  3.604213  -0.058  -0.269006  -0.260378  -0.05282  3.57588  -0.068
N  N37  1  0.82850200  0.89263791  0.12903327  1  -0.310176  -0.066426  3.266365  -0.085  -0.27729  -0.048346  3.586364  -0.066  -0.306331  -0.039851  3.604374  -0.058  -0.269043  -0.260356  -0.05282  3.576036  -0.068
N  N38  1  0.83994974  0.94467576  0.69845685  1  -0.126557  0.005841  3.036522  0.004  -0.104444  0.001564  3.334413  0.001  -0.102894  0.002255  3.349402  0.002  -0.113554  -0.104711  0.000829  3.324896  0.0
N  N39  1  0.33994505  0.05532355  0.80154224  1  -0.126595  0.005828  3.036716  0.004  -0.104502  0.001558  3.334636  0.001  -0.102948  0.002253  3.349625  0.002  -0.113573  -0.104769  0.000829  3.325116  0.0
N  N40  1  0.16005089  0.05532002  0.30154045  1  -0.126617  0.005847  3.036449  0.004  -0.104445  0.001561  3.334362  0.001  -0.102905  0.002255  3.349345  0.002  -0.113517  -0.104704  0.00083  3.324847  0.0
N  N41  1  0.66006047  0.94467321  0.19845611  1  -0.126431  0.005869  3.036444  0.004  -0.104316  0.001558  3.334329  0.001  -0.102762  0.002255  3.349318  0.002  -0.11347  -0.104583  0.000829  3.324813  0.0
N  N42  1  0.88282254  0.86173566  0.79783552  1  -0.108599  -0.005786  3.05556  -0.009  -0.101758  -0.002496  3.379755  -0.005  -0.106566  -0.000632  3.390391  -0.003  -0.112335  -0.09894  -0.00434  3.373216  -0.007
N  N43  1  0.38281844  0.13826357  0.70216568  1  -0.108627  -0.005773  3.055732  -0.009  -0.101797  -0.002498  3.37995  -0.005  -0.106599  -0.00063  3.390581  -0.003  -0.112337  -0.098969  -0.004339  3.373405  -0.007
N  N44  1  0.11717647  0.13826106  0.20216382  1  -0.108583  -0.005781  3.055471  -0.009  -0.101732  -0.002496  3.379645  -0.005  -0.106541  -0.000631  3.390287  -0.003  -0.112339  -0.09891  -0.004339  3.373105  -0.007
N  N45  1  0.61719359  0.86173316  0.29783366  1  -0.108697  -0.005811  3.055631  -0.009  -0.101873  -0.002494  3.379849  -0.005  -0.106677  -0.000628  3.390479  -0.003  -0.112348  -0.099043  -0.004339  3.373301  -0.007
N  N46  1  0.74349434  0.75523958  0.79589549  1  -0.303087  -0.006708  2.916718  -0.008  -0.274485  -0.003302  3.202774  -0.004  -0.283648  -0.002429  3.212551  -0.003  -0.218575  -0.268284  -0.004035  3.196178  -0.004
N  N47  1  0.24349311  0.24476268  0.70410645  1  -0.303022  -0.006707  2.91678  -0.008  -0.274409  -0.003302  3.202846  -0.004  -0.283574  -0.002428  3.212623  -0.003  -0.21856  -0.26821  -0.004034  3.196249  -0.004
N  N48  1  0.25649978  0.24476114  0.20410604  1  -0.303163  -0.006708  2.916669  -0.008  -0.274552  -0.003306  3.202718  -0.004  -0.283718  -0.002429  3.212497  -0.003  -0.218591  -0.26835  -0.004034  3.196124  -0.004
N  N49  1  0.75652055  0.75523413  0.29589090  1  -0.303042  -0.006695  2.916783  -0.008  -0.274436  -0.003301  3.202836  -0.004  -0.283601  -0.002429  3.212615  -0.003  -0.2186  -0.268238  -0.004034  3.196236  -0.004
N  N50  1  0.22951827  0.51955967  0.58004092  1  -0.148709  -0.010319  3.566951  -0.013  -0.084577  -0.00305  3.816051  -0.004  -0.098601  -0.001865  3.83479  -0.003  -0.278575  -0.075054  -0.004051  3.802979  -0.005
N  N51  1  0.72953610  0.48044663  0.91996219  1  -0.148836  -0.010311  3.566981  -0.013  -0.084577  -0.003053  3.816147  -0.004  -0.098597  -0.001865  3.834887  -0.003  -0.278662  -0.075071  -0.004049  3.803071  -0.005
N  N52  1  0.77047422  0.48044586  0.41996784  1  -0.148938  -0.010322  3.566758  -0.013  -0.08476  -0.003054  3.815925  -0.004  -0.098789  -0.001866  3.834666  -0.003  -0.278651  -0.075245  -0.004051  3.80285  -0.005
N  N53  1  0.27047267  0.51955945  0.08003366  1  -0.148627  -0.010318  3.566985  -0.013  -0.084508  -0.003052  3.816255  -0.004  -0.098531  -0.001866  3.835001  -0.003  -0.27853  -0.074993  -0.00405  3.80318  -0.005
N  N54  1  0.14042633  0.62999985  0.52100019  1  -0.294111  -0.004575  2.893247  -0.005  -0.277539  -0.004218  3.166539  -0.005  -0.286135  -0.00342  3.181255  -0.005  -0.234342  -0.271643  -0.005152  3.156715  -0.006
N  N55  1  0.64043687  0.37000955  0.97900182  1  -0.294027  -0.00457  2.893462  -0.005  -0.277513  -0.004218  3.166755  -0.005  -0.286109  -0.003419  3.181469  -0.005  -0.234266  -0.271611  -0.005151  3.15693  -0.006
N  N56  1  0.85956290  0.37000368  0.47900747  1  -0.293972  -0.004578  2.893128  -0.005  -0.277418  -0.004218  3.166455  -0.005  -0.286012  -0.00342  3.181171  -0.005  -0.234286  -0.271517  -0.005153  3.156632  -0.006
N  N57  1  0.35957515  0.62999354  0.02099187  1  -0.294122  -0.004567  2.893341  -0.005  -0.277529  -0.004219  3.166665  -0.005  -0.286125  -0.003419  3.181379  -0.005  -0.234325  -0.271632  -0.005152  3.15684  -0.006
N  N58  1  0.22976483  0.87067619  0.51925900  1  -0.616572  -0.086305  3.160232  -0.11  -0.591687  -0.061799  3.429271  -0.083  -0.62227  -0.048467  3.429052  -0.071  -0.600776  -0.573215  -0.069489  3.430819  -0.088
N  N59  1  0.72976977  0.12932602  0.98074389  1  -0.616554  -0.086307  3.160181  -0.11  -0.591692  -0.061799  3.429076  -0.083  -0.622281  -0.048463  3.428864  -0.071  -0.600822  -0.573244  -0.069485  3.430652  -0.088
N  N60  1  0.77022929  0.12932351  0.48074248  1  -0.616522  -0.086311  3.160318  -0.11  -0.591712  -0.061797  3.429279  -0.083  -0.622294  -0.048465  3.429056  -0.071  -0.60084  -0.573241  -0.069488  3.430831  -0.088
N  N61  1  0.27024063  0.87067283  0.01925357  1  -0.616577  -0.086307  3.160223  -0.11  -0.591737  -0.061804  3.429183  -0.083  -0.622325  -0.048465  3.42897  -0.071  -0.600814  -0.573287  -0.069495  3.430753  -0.088
