# generated using pymatgen
data_ZnH9C14NO5
_symmetry_space_group_name_H-M   'P 1'
_cell_length_a   8.68756701
_cell_length_b   13.08682034
_cell_length_c   34.59727949
_cell_angle_alpha   89.76533833
_cell_angle_beta   90.03562499
_cell_angle_gamma   90.03836610
_symmetry_Int_Tables_number   1
_chemical_formula_structural   ZnH9C14NO5
_chemical_formula_sum   'Zn4 H36 C56 N4 O20'
_cell_volume   3933.42102460
_cell_formula_units_Z   4
loop_
 _symmetry_equiv_pos_site_id
 _symmetry_equiv_pos_as_xyz
  1  'x, y, z'
loop_
 _atom_site_type_symbol
 _atom_site_label
 _atom_site_symmetry_multiplicity
 _atom_site_fract_x
 _atom_site_fract_y
 _atom_site_fract_z
 _atom_site_occupancy
 _atom_site_pbe_bader_charge
 _atom_site_pbe_bader_spin_density
 _atom_site_pbe_cm5_charge
 _atom_site_pbe_ddec_charge
 _atom_site_pbe_ddec_spin_density
 _atom_site_pbe_ddec_sum_bond_order
 _atom_site_pbe_magmom
Zn  Zn0  1  0.65857767  0.99152809  0.50002431  1  1.301424  0  0.708786  0.932971  0  2.174045  0
Zn  Zn1  1  0.35428732  0.00809146  0.49997013  1  1.311169  0  0.717798  0.949733  0  2.208727  0
Zn  Zn2  1  0.25127402  0.98592499  0.99995807  1  1.300181  0  0.70893  0.932302  0  2.175951  0
Zn  Zn3  1  0.55543745  0.00286341  0.99999759  1  1.308953  0  0.717046  0.948302  0  2.211177  0
H  H4  1  0.58845886  0.00549531  0.88543913  1  0.093939  0  0.101682  0.108018  0  1.003237  0
H  H5  1  0.62223079  0.00782894  0.81447246  1  -0.000347  0  0.09254  0.093008  0  1.030468  0
H  H6  1  0.12850669  0.99288850  0.80109865  1  0.026265  0  0.096961  0.103285  0  1.01049  0
H  H7  1  0.77800085  0.99400047  0.69917883  1  0.022651  0  0.096931  0.102951  0  1.00966  0
H  H8  1  0.28472451  0.00921728  0.68511587  1  0.044077  0  0.092509  0.093153  0  1.029541  0
H  H9  1  0.32012394  0.00853141  0.61420794  1  0.107389  0  0.10208  0.108606  0  1.003057  0
H  H10  1  0.27674876  0.99939739  0.74523124  1  0.039478  0  0.097728  0.093444  0  1.012337  0
H  H11  1  0.62906257  0.99922192  0.75473689  1  0.042255  0  0.097628  0.093175  0  1.012381  0
H  H12  1  0.58915656  0.99940028  0.11461163  1  0.089777  0  0.101566  0.107747  0  1.003298  0
H  H13  1  0.62249979  0.00276496  0.18557604  1  -0.002531  0  0.092481  0.093076  0  1.031363  0
H  H14  1  0.12842549  0.99641326  0.19872546  1  0.029224  0  0.096844  0.10302  0  1.010366  0
H  H15  1  0.77829564  0.99814146  0.30093822  1  0.02383  0  0.096939  0.103228  0  1.010498  0
H  H16  1  0.28459227  0.00653913  0.31479046  1  0.04002  0  0.092221  0.09273  0  1.030448  0
H  H17  1  0.31987480  0.00562370  0.38572407  1  0.088303  0  0.101793  0.108537  0  1.002848  0
H  H18  1  0.27693725  0.99993235  0.25470172  1  0.039676  0  0.097636  0.09358  0  1.012715  0
H  H19  1  0.62918984  0.00012664  0.24531230  1  0.042717  0  0.097752  0.093542  0  1.012826  0
H  H20  1  0.65289970  0.66638053  0.49996917  1  0.0961  0  0.102248  0.101924  0  1.030778  0
H  H21  1  0.16363249  0.70596222  0.50007754  1  0.116446  0  0.110484  0.135994  0  0.991793  0
H  H22  1  0.23196939  0.33814148  0.49987258  1  0.086032  0  0.102927  0.101491  0  1.030347  0
H  H23  1  0.72133236  0.29890207  0.49984958  1  0.072502  0  0.11156  0.138793  0  0.988881  0
H  H24  1  0.25774896  0.66075692  0.99981027  1  0.074968  0  0.10231  0.10172  0  1.03126  0
H  H25  1  0.74684352  0.70141377  0.99965651  1  0.088131  0  0.110633  0.136429  0  0.990176  0
H  H26  1  0.67952700  0.33328695  0.99986757  1  0.10509  0  0.102899  0.101431  0  1.029389  0
H  H27  1  0.19007460  0.29326898  0.99985940  1  0.101686  0  0.111726  0.139077  0  0.98825  0
H  H28  1  0.05273444  0.98569611  0.90430997  1  0.488267  0  0.301654  0.317929  0  0.98212  0
H  H29  1  0.97265107  0.98031808  0.85765853  1  0.451521  0  0.313221  0.308664  0  0.939998  0
H  H30  1  0.85604015  0.98903371  0.59605303  1  0.499973  0  0.301623  0.316618  0  0.983236  0
H  H31  1  0.93515673  0.98259779  0.64281318  1  0.437305  0  0.313353  0.308272  0  0.939751  0
H  H32  1  0.05324203  0.98834057  0.09544350  1  0.48354  0  0.301733  0.317727  0  0.982655  0
H  H33  1  0.97207038  0.98784645  0.14206208  1  0.449094  0  0.313475  0.308678  0  0.940417  0
H  H34  1  0.85593737  0.99205395  0.40412847  1  0.492703  0  0.3014  0.316182  0  0.98315  0
H  H35  1  0.93575315  0.98913283  0.35741281  1  0.431267  0  0.313073  0.307799  0  0.940177  0
H  H36  1  0.80495606  0.55958805  0.49989489  1  0.589955  0  0.332195  0.36437  0  0.894485  0
H  H37  1  0.08090764  0.44507250  0.49997567  1  0.586929  0  0.332327  0.364235  0  0.894444  0
H  H38  1  0.10640487  0.55390828  0.99958180  1  0.595543  0  0.331935  0.364246  0  0.895773  0
H  H39  1  0.83044844  0.44066554  0.99958105  1  0.596033  0  0.332244  0.364522  0  0.895003  0
C  C40  1  0.43213975  0.80873057  0.50003646  1  1.556846  0  0.221459  0.608772  0  4.115857  0
C  C41  1  0.57077149  0.99886142  0.57339401  1  1.488742  0  0.211599  0.609547  0  4.126553  0
C  C42  1  0.45805999  0.19570941  0.49989556  1  1.546329  0  0.219608  0.605029  0  4.114483  0
C  C43  1  0.57076578  0.99935802  0.42662714  1  1.485959  0  0.211427  0.608667  0  4.126217  0
C  C44  1  0.47780424  0.80348775  0.99985404  1  1.524053  0  0.222697  0.608643  0  4.115492  0
C  C45  1  0.33851280  0.99481405  0.92658893  1  1.468136  0  0.211317  0.608235  0  4.126117  0
C  C46  1  0.45317541  0.19039315  0.99996010  1  1.559615  0  0.21937  0.605899  0  4.113735  0
C  C47  1  0.33893957  0.99341901  0.07334313  1  1.467213  0  0.211347  0.608866  0  4.122952  0
C  C48  1  0.34256417  0.99729781  0.88413628  1  -0.00021  0  -0.038261  -0.176775  0  3.934228  0
C  C49  1  0.48877937  0.00241289  0.86636497  1  0.013186  0  -0.088035  -0.064342  0  4.041555  0
C  C50  1  0.50718758  0.00341492  0.82683574  1  -0.014067  0  -0.116286  -0.185794  0  4.032633  0
C  C51  1  0.37604837  0.99940069  0.80248062  1  0.013588  0  -0.008424  0.143498  0  4.076873  0
C  C52  1  0.23045185  0.99521479  0.81963620  1  -0.126184  0  -0.107188  -0.267199  0  3.914747  0
C  C53  1  0.20899526  0.99407648  0.86017463  1  0.481912  0  0.113236  0.320765  0  4.088439  0
C  C54  1  0.38716791  0.99980892  0.76043857  1  -0.099784  0  -0.087519  -0.12295  0  3.974718  0
C  C55  1  0.51880342  0.00001474  0.73945969  1  0.026779  0  -0.08717  -0.12169  0  3.974602  0
C  C56  1  0.67656194  0.99682473  0.68047830  1  0.015634  0  -0.107323  -0.266321  0  3.912286  0
C  C57  1  0.53059991  0.00064472  0.69743821  1  -0.05616  0  -0.00822  0.142446  0  4.0774  0
C  C58  1  0.40001745  0.00519976  0.67291388  1  -0.052641  0  -0.115914  -0.184428  0  4.032429  0
C  C59  1  0.41938059  0.00506650  0.63341988  1  -0.014138  0  -0.088376  -0.065765  0  4.043549  0
C  C60  1  0.56594213  0.00041282  0.61584614  1  -0.007634  0  -0.039016  -0.177979  0  3.935099  0
C  C61  1  0.69895609  0.99659315  0.63997918  1  0.4955  0  0.113715  0.321512  0  4.087587  0
C  C62  1  0.34301338  0.99573760  0.11578843  1  0.008619  0  -0.039444  -0.179707  0  3.936274  0
C  C63  1  0.48926290  0.99863593  0.13363372  1  0.009693  0  -0.087583  -0.063002  0  4.041352  0
C  C64  1  0.50740649  0.00030689  0.17317018  1  -0.015923  0  -0.11645  -0.186926  0  4.034144  0
C  C65  1  0.37614053  0.99905400  0.19747944  1  -0.051662  0  -0.007952  0.144556  0  4.077753  0
C  C66  1  0.23052030  0.99680854  0.18024896  1  0.011785  0  -0.107423  -0.267443  0  3.912891  0
C  C67  1  0.20925142  0.99523636  0.13968856  1  0.496974  0  0.114023  0.32259  0  4.085523  0
C  C68  1  0.38730013  0.00010018  0.23952117  1  -0.16809  0  -0.087438  -0.122876  0  3.974932  0
C  C69  1  0.51891783  0.00077103  0.26053712  1  0.026423  0  -0.087169  -0.122383  0  3.975407  0
C  C70  1  0.67672547  0.99950824  0.31957995  1  -0.061243  0  -0.106889  -0.267038  0  3.912941  0
C  C71  1  0.53067402  0.00160958  0.30255462  1  0.019107  0  -0.008372  0.143298  0  4.075927  0
C  C72  1  0.39997459  0.00419945  0.32703487  1  -0.048265  0  -0.115823  -0.184912  0  4.033102  0
C  C73  1  0.41922048  0.00388019  0.36654041  1  0.004692  0  -0.087822  -0.064663  0  4.042796  0
C  C74  1  0.56587365  0.00097219  0.38417422  1  -7.6e-05  0  -0.039035  -0.177824  0  3.936311  0
C  C75  1  0.69903634  0.99913296  0.36009492  1  0.490782  0  0.11278  0.320493  0  4.088048  0
C  C76  1  0.53905284  0.63105404  0.50000364  1  -0.075542  0  -0.097019  -0.167756  0  3.987029  0
C  C77  1  0.26222609  0.65482549  0.50005890  1  0.035857  0  -0.104019  -0.226436  0  3.962983  0
C  C78  1  0.23950271  0.55050264  0.50001785  1  0.404823  0  0.086773  0.277226  0  4.073713  0
C  C79  1  0.36617896  0.48063268  0.49999315  1  -0.00035  0  -0.014906  -0.021223  0  4.009873  0
C  C80  1  0.34586003  0.37338537  0.49992985  1  -0.074324  0  -0.096302  -0.170924  0  3.989422  0
C  C81  1  0.62284241  0.35011215  0.49989587  1  0.090198  0  -0.104009  -0.225359  0  3.955149  0
C  C82  1  0.64580513  0.45427156  0.49991435  1  0.409622  0  0.086834  0.277793  0  4.075856  0
C  C83  1  0.51889518  0.52398170  0.49998810  1  0.031539  0  -0.014245  -0.021158  0  4.014057  0
C  C84  1  0.41212793  0.69551082  0.50002956  1  0.018356  0  -0.018645  -0.006322  0  4.020615  0
C  C85  1  0.47286793  0.30916243  0.49991575  1  0.010942  0  -0.0175  -0.001765  0  4.018245  0
C  C86  1  0.37169437  0.62563498  0.99976753  1  -0.009357  0  -0.096825  -0.168813  0  3.988271  0
C  C87  1  0.64842329  0.65003754  0.99967580  1  -0.004  0  -0.104055  -0.226981  0  3.961927  0
C  C88  1  0.67152638  0.54575225  0.99967870  1  0.49709  0  0.086415  0.276524  0  4.073806  0
C  C89  1  0.54503498  0.47556202  0.99973918  1  0.015978  0  -0.014385  -0.021711  0  4.007264  0
C  C90  1  0.56554696  0.36833025  0.99983295  1  -0.136301  0  -0.095974  -0.169022  0  3.986832  0
C  C91  1  0.28854199  0.34459709  0.99983584  1  0.075191  0  -0.103845  -0.224877  0  3.954377  0
C  C92  1  0.26541461  0.44871969  0.99976293  1  0.432309  0  0.086243  0.276933  0  4.075562  0
C  C93  1  0.39218331  0.51860813  0.99973268  1  -0.004015  0  -0.01407  -0.018979  0  4.01115  0
C  C94  1  0.49837798  0.69034791  0.99975726  1  0.008693  0  -0.018675  -0.005058  0  4.021988  0
C  C95  1  0.43858034  0.30388006  0.99989196  1  0.03521  0  -0.017617  -0.004366  0  4.019532  0
N  N96  1  0.06416410  0.99122713  0.87515917  1  -1.260811  0  -0.58853  -0.617927  0  3.357611  0
N  N97  1  0.84410168  0.99413854  0.62518682  1  -1.257721  0  -0.588993  -0.616742  0  3.357341  0
N  N98  1  0.06455788  0.99437896  0.12457286  1  -1.268712  0  -0.588826  -0.617638  0  3.35775  0
N  N99  1  0.84415491  0.99839822  0.37499727  1  -1.245486  0  -0.588303  -0.615371  0  3.356479  0
O  O100  1  0.56833123  0.84430044  0.49993919  1  -1.176419  0  -0.3146  -0.564365  0  2.314419  0
O  O101  1  0.30774052  0.86288816  0.50014416  1  -1.130812  0  -0.320893  -0.536799  0  2.263219  0
O  O102  1  0.44319326  0.00241584  0.55526180  1  -1.196189  0  -0.320626  -0.581404  0  2.366784  0
O  O103  1  0.70312128  0.99328671  0.55552529  1  -1.148221  0  -0.322187  -0.546515  0  2.253538  0
O  O104  1  0.32177320  0.15567181  0.49981873  1  -1.134968  0  -0.325102  -0.537243  0  2.218967  0
O  O105  1  0.58222924  0.14442703  0.49995952  1  -1.173953  0  -0.310794  -0.566836  0  2.337187  0
O  O106  1  0.70325660  0.99424240  0.44452187  1  -1.148215  0  -0.321482  -0.545519  0  2.251673  0
O  O107  1  0.44312828  0.00246553  0.44470447  1  -1.194757  0  -0.320778  -0.581359  0  2.366626  0
O  O108  1  0.34153532  0.83877283  0.00001727  1  -1.174658  0  -0.314725  -0.563643  0  2.313723  0
O  O109  1  0.60204309  0.85789349  0.99978024  1  -1.147268  0  -0.321788  -0.536749  0  2.264707  0
O  O110  1  0.46629715  0.99802233  0.94462208  1  -1.181534  0  -0.320513  -0.580896  0  2.364414  0
O  O111  1  0.20632504  0.98884494  0.94456523  1  -1.141472  0  -0.322001  -0.545648  0  2.254487  0
O  O112  1  0.58930468  0.15025334  0.00007428  1  -1.138578  0  -0.325587  -0.537719  0  2.218797  0
O  O113  1  0.32896539  0.13903644  0.99990157  1  -1.18238  0  -0.31078  -0.56733  0  2.334728  0
O  O114  1  0.20659974  0.98847494  0.05536254  1  -1.140922  0  -0.322003  -0.545739  0  2.253564  0
O  O115  1  0.46680008  0.99587204  0.05534676  1  -1.184728  0  -0.320312  -0.580828  0  2.362797  0
O  O116  1  0.79503875  0.48551966  0.49990224  1  -1.10214  0  -0.348881  -0.441273  0  2.358106  0
O  O117  1  0.09034152  0.51916062  0.49998645  1  -1.095888  0  -0.348817  -0.440819  0  2.359026  0
O  O118  1  0.11612954  0.47982640  0.99971952  1  -1.116942  0  -0.348904  -0.441494  0  2.357161  0
O  O119  1  0.82080106  0.51473960  0.99964104  1  -1.10617  0  -0.349071  -0.441184  0  2.358017  0
