# generated using pymatgen
data_FeH2C3O7
_symmetry_space_group_name_H-M   'P 1'
_cell_length_a   4.88311464
_cell_length_b   6.69121136
_cell_length_c   8.74606263
_cell_angle_alpha   90.66857192
_cell_angle_beta   97.91895849
_cell_angle_gamma   94.46601358
_symmetry_Int_Tables_number   1
_chemical_formula_structural   FeH2C3O7
_chemical_formula_sum   'Fe2 H4 C6 O14'
_cell_volume   282.11132807
_cell_formula_units_Z   2
loop_
 _symmetry_equiv_pos_site_id
 _symmetry_equiv_pos_as_xyz
  1  'x, y, z'
loop_
 _atom_site_type_symbol
 _atom_site_label
 _atom_site_symmetry_multiplicity
 _atom_site_fract_x
 _atom_site_fract_y
 _atom_site_fract_z
 _atom_site_occupancy
 _atom_site_hse06_10hf_bader_charge
 _atom_site_hse06_10hf_bader_spin_density
 _atom_site_hse06_10hf_ddec_charge
 _atom_site_hse06_10hf_ddec_spin_density
 _atom_site_hse06_10hf_ddec_sum_bond_order
 _atom_site_hse06_10hf_magmom
 _atom_site_hse06_ddec_charge
 _atom_site_hse06_ddec_spin_density
 _atom_site_hse06_ddec_sum_bond_order
 _atom_site_hse06_magmom
 _atom_site_pbe_cm5_charge
 _atom_site_pbe_ddec_charge
 _atom_site_pbe_ddec_spin_density
 _atom_site_pbe_ddec_sum_bond_order
 _atom_site_pbe_magmom
Fe  Fe0  1  0.50336858  0.29855367  0.24684806  1  1.514876  0.99299  1.015666  1.046971  3.10276  0.991  1.127642  1.067077  3.018847  1.021  0.781051  0.939779  1.004813  3.162942  0.938
Fe  Fe1  1  0.49534695  0.69980651  0.75471520  1  1.516107  0.991802  1.011123  1.046384  3.106569  0.989  1.121501  1.065168  3.023302  1.016  0.783694  0.943401  1.047745  3.16208  0.977
H  H2  1  0.93205679  0.16807126  0.37503041  1  0.668837  0.000692  0.410566  -0.000253  0.901651  0.001  0.423022  -0.000347  0.884922  0.001  0.319102  0.401526  -0.000165  0.91161  0.001
H  H3  1  0.06968457  0.83567685  0.62306026  1  0.664669  0.001044  0.407429  0.000107  0.903837  0.002  0.419691  8.3e-05  0.888205  0.002  0.3175  0.39904  0.000147  0.912878  0.002
H  H4  1  0.77600522  0.00179014  0.25252538  1  0.683065  -0.000164  0.407461  -0.000448  0.919614  0.0  0.421336  -0.000364  0.900018  0.0  0.308338  0.397523  -0.000486  0.933626  0.0
H  H5  1  0.22676317  0.00000161  0.74595673  1  0.676782  7e-06  0.407684  -0.000256  0.919271  0.0  0.421407  -0.000261  0.89986  0.0  0.307477  0.397988  -0.00025  0.932959  0.0
C  C6  1  0.13625611  0.07035307  0.00999208  1  1.639942  -0.002396  0.516459  -0.004296  4.144948  -0.001  0.553207  -0.003977  4.131636  -0.001  0.227762  0.489372  -0.005246  4.15582  -0.001
C  C7  1  0.86473865  0.92786751  0.98941492  1  1.659312  -0.001126  0.518962  -0.003317  4.133048  -0.001  0.553962  -0.003994  4.122294  -0.002  0.231553  0.494049  -0.00243  4.140594  -0.001
C  C8  1  0.36935094  0.43987265  0.51449906  1  1.601643  -0.001322  0.498375  -0.00267  4.107647  0.0  0.535343  -0.001385  4.097388  0.001  0.237876  0.469529  -0.006437  4.118549  -0.002
C  C9  1  0.63110666  0.56020336  0.48633451  1  1.637089  -0.0014  0.493717  -0.002504  4.115449  0.0  0.530055  -0.001263  4.105094  0.0  0.235761  0.465766  -0.006104  4.12588  -0.002
C  C10  1  0.37837554  0.55281155  0.02099223  1  1.619636  0.000993  0.496315  -0.001216  4.144028  0.002  0.533705  -0.000444  4.134082  0.003  0.231249  0.468448  -0.005237  4.151885  -0.001
C  C11  1  0.61822932  0.44520580  0.97996125  1  1.666861  -0.000624  0.492937  -0.002253  4.153468  0.001  0.530241  -0.001561  4.144681  0.001  0.229432  0.465321  -0.005928  4.160067  -0.002
O  O12  1  0.23026589  0.14342656  0.89557526  1  -1.171635  0.006017  -0.487392  0.002056  2.246837  0.006  -0.510135  0.001943  2.235867  0.005  -0.274376  -0.4711  0.002907  2.254595  0.007
O  O13  1  0.76932656  0.85681962  0.10373434  1  -1.172107  0.015987  -0.479405  0.006611  2.250771  0.014  -0.503982  0.004948  2.24172  0.011  -0.267328  -0.460487  0.008868  2.256115  0.018
O  O14  1  0.23703460  0.09898721  0.15314794  1  -1.084705  -0.003422  -0.486927  -0.010552  2.441427  -0.008  -0.5302  -0.01371  2.432898  -0.012  -0.290832  -0.456837  -0.005321  2.448435  -0.002
O  O15  1  0.76226726  0.89939311  0.84581364  1  -1.078655  0.002358  -0.483248  -0.008692  2.425533  -0.005  -0.527457  -0.013434  2.418904  -0.011  -0.288744  -0.452085  -0.002795  2.42942  0.003
O  O16  1  0.28027224  0.29932167  0.41603996  1  -1.088406  0.000343  -0.426813  -0.005015  2.375337  -0.004  -0.463209  -0.005566  2.365041  -0.005  -0.24984  -0.402086  -0.002735  2.383747  -0.001
O  O17  1  0.71497507  0.70500063  0.58178952  1  -1.09923  -0.004097  -0.427051  -0.008541  2.359984  -0.007  -0.461421  -0.009107  2.348568  -0.008  -0.249435  -0.404476  -0.007155  2.368666  -0.005
O  O18  1  0.26039387  0.48687920  0.63173376  1  -1.08068  0.000294  -0.418392  -0.005183  2.328222  -0.004  -0.451589  -0.006603  2.318521  -0.006  -0.254277  -0.396794  -0.00361  2.335843  -0.002
O  O19  1  0.74457155  0.50832391  0.37193751  1  -1.077668  -0.003889  -0.421955  -0.008033  2.32867  -0.006  -0.455087  -0.007996  2.319012  -0.007  -0.254552  -0.399253  -0.006714  2.335803  -0.004
O  O20  1  0.29388392  0.51002447  0.14848408  1  -1.076974  0.00024  -0.413969  -0.007629  2.319043  -0.006  -0.450905  -0.013995  2.312199  -0.012  -0.254108  -0.387904  -0.000263  2.324824  0.004
O  O21  1  0.70107197  0.48756945  0.85181494  1  -1.069514  0.002105  -0.412938  -0.005527  2.328309  -0.002  -0.450956  -0.009073  2.322438  -0.007  -0.253239  -0.386163  -0.000561  2.332122  0.005
O  O22  1  0.28131775  0.67774926  0.92359357  1  -1.072681  -0.001447  -0.430957  -0.00798  2.42152  -0.005  -0.470629  -0.012262  2.41584  -0.01  -0.252841  -0.402541  -0.00123  2.424774  0.004
O  O23  1  0.72064627  0.32432047  0.07873411  1  -1.082548  -0.006567  -0.432498  -0.011724  2.422879  -0.009  -0.472903  -0.017505  2.418692  -0.016  -0.254333  -0.402965  -0.003478  2.425042  0.001
O  O24  1  0.74609393  0.10189110  0.33631674  1  -1.197015  0.008971  -0.675373  -0.000932  2.155417  0.002  -0.709371  -0.005966  2.118777  -0.004  -0.533231  -0.65311  0.002585  2.180325  0.007
O  O25  1  0.25657937  0.90008238  0.66194766  1  -1.197002  0.002613  -0.679777  -0.005106  2.143098  -0.003  -0.713267  -0.010409  2.108497  -0.009  -0.533658  -0.655942  -0.000918  2.16502  0.002
