# generated using pymatgen
data_CuH13C11NO6
_symmetry_space_group_name_H-M   'P 1'
_cell_length_a   5.84093142
_cell_length_b   8.79052036
_cell_length_c   11.82441030
_cell_angle_alpha   90.00000773
_cell_angle_beta   93.69619656
_cell_angle_gamma   89.99965984
_symmetry_Int_Tables_number   1
_chemical_formula_structural   CuH13C11NO6
_chemical_formula_sum   'Cu2 H26 C22 N2 O12'
_cell_volume   605.85942047
_cell_formula_units_Z   2
loop_
 _symmetry_equiv_pos_site_id
 _symmetry_equiv_pos_as_xyz
  1  'x, y, z'
loop_
 _atom_site_type_symbol
 _atom_site_label
 _atom_site_symmetry_multiplicity
 _atom_site_fract_x
 _atom_site_fract_y
 _atom_site_fract_z
 _atom_site_occupancy
 _atom_site_pbe_cm5_charge
 _atom_site_pbe_ddec_charge
 _atom_site_pbe_ddec_spin_density
 _atom_site_pbe_ddec_sum_bond_order
 _atom_site_pbe_magmom
Cu  Cu0  1  0.61325524  0.19984821  0.41268705  1  0.725059  0.895212  -0.748581  2.104908  -0.597
Cu  Cu1  1  0.38674212  0.69984750  0.58731230  1  0.725048  0.895192  -0.748579  2.104876  -0.597
H  H2  1  0.84952221  0.07972402  0.26489281  1  0.292825  0.255735  -1e-05  1.009647  0.0
H  H3  1  0.15047796  0.57972312  0.73510830  1  0.292823  0.255757  -1.1e-05  1.009621  0.0
H  H4  1  0.50308367  0.55533136  0.36862000  1  0.306427  0.365776  -8e-05  0.958298  0.0
H  H5  1  0.49690985  0.05533141  0.63138005  1  0.306422  0.365754  -8e-05  0.95828  0.0
H  H6  1  0.17027410  0.62216194  0.26449006  1  0.107235  0.130353  -5.2e-05  1.001134  0.0
H  H7  1  0.82972224  0.12215958  0.73550755  1  0.107235  0.13037  -5.2e-05  1.001136  0.0
H  H8  1  0.94472228  0.59162412  0.07947841  1  0.098787  0.09618  -2.3e-05  1.008433  0.0
H  H9  1  0.05527605  0.09161910  0.92051841  1  0.098817  0.096231  -2.3e-05  1.008427  0.0
H  H10  1  0.05981694  0.40104560  0.93955364  1  0.095205  0.104137  -0.000266  1.051418  0.0
H  H11  1  0.94018374  0.90104267  0.06044414  1  0.095221  0.104161  -0.000265  1.051406  0.0
H  H12  1  0.41119728  0.24151284  0.98426007  1  0.097548  0.096346  -0.000136  1.017506  0.0
H  H13  1  0.58880312  0.74151127  0.01573937  1  0.097582  0.096436  -0.000136  1.017493  0.0
H  H14  1  0.76013519  0.20188419  0.09318097  1  0.103255  0.084626  -0.004532  0.998562  -0.006
H  H15  1  0.23986559  0.70188410  0.90682101  1  0.103274  0.084644  -0.004532  0.998519  -0.006
H  H16  1  0.84451219  0.32912678  0.20492070  1  0.108912  0.098829  -0.000288  1.000062  -0.001
H  H17  1  0.15548742  0.82912700  0.79508042  1  0.108924  0.098823  -0.000288  1.000076  -0.001
H  H18  1  0.49605225  0.00591678  0.13068101  1  0.115483  0.0868  -0.002546  0.979035  -0.003
H  H19  1  0.50395201  0.50591566  0.86932022  1  0.115493  0.086821  -0.002547  0.979054  -0.003
H  H20  1  0.48479100  0.76887164  0.22485816  1  0.099755  0.117185  -0.000271  1.036334  0.0
H  H21  1  0.51521259  0.26887164  0.77514223  1  0.099741  0.117166  -0.000271  1.036341  0.0
H  H22  1  0.77406309  0.83438029  0.24375804  1  0.113714  0.149642  -0.000109  0.972683  0.0
H  H23  1  0.22594162  0.33438027  0.75624324  1  0.113722  0.149636  -0.000109  0.972746  0.0
H  H24  1  0.00105131  0.34669964  0.48556698  1  0.315051  0.419642  -0.001073  0.87924  -0.002
H  H25  1  0.99894643  0.84670223  0.51443493  1  0.315018  0.419604  -0.001073  0.879298  -0.002
H  H26  1  0.06627677  0.20011092  0.41948226  1  0.294285  0.395297  -0.000977  0.940474  -0.001
H  H27  1  0.93372230  0.70011150  0.58051714  1  0.294281  0.395279  -0.000977  0.940498  -0.001
C  C28  1  0.42089122  0.45243999  0.22553774  1  0.079153  0.276863  0.00033  4.064509  0.0
C  C29  1  0.57910213  0.95243856  0.77446235  1  0.079225  0.276979  0.00033  4.064574  0.0
C  C30  1  0.22316103  0.54045791  0.20178374  1  -0.112705  -0.232688  -0.000255  3.995493  0.0
C  C31  1  0.77683433  0.04045462  0.79821383  1  -0.112766  -0.232751  -0.000255  3.995624  0.0
C  C32  1  0.09657168  0.52161058  0.09852970  1  -0.093242  -0.056264  0.000207  4.045086  0.0
C  C33  1  0.90342729  0.02160567  0.90146713  1  -0.093202  -0.056288  0.000207  4.045098  0.0
C  C34  1  0.16131957  0.41404344  0.01961663  1  -0.11542  -0.135612  -0.00054  4.059175  0.0
C  C35  1  0.83868270  0.91403875  0.98038120  1  -0.115487  -0.135647  -0.000539  4.059131  0.0
C  C36  1  0.35684096  0.32576614  0.04505848  1  -0.097471  -0.125201  -0.000159  4.024383  0.0
C  C37  1  0.64316211  0.82576335  0.95494359  1  -0.097499  -0.125275  -0.000159  4.0243  0.0
C  C38  1  0.48955618  0.34346450  0.14694841  1  -0.034314  -0.03765  -0.000803  3.971327  -0.001
C  C39  1  0.51043815  0.84346563  0.85305340  1  -0.034318  -0.037714  -0.000803  3.971328  -0.001
C  C40  1  0.70584694  0.25393810  0.17191333  1  -0.071532  -0.063842  -0.000935  3.910921  0.001
C  C41  1  0.29415165  0.75393779  0.82808860  1  -0.071557  -0.063802  -0.000935  3.911  0.001
C  C42  1  0.51882905  0.01232137  0.22369774  1  0.00082  0.011467  -0.001209  3.847989  0.001
C  C43  1  0.48117173  0.51232032  0.77630253  1  0.000816  0.011453  -0.001209  3.848038  0.001
C  C44  1  0.28726452  0.04994076  0.27006704  1  0.213369  0.568229  -0.000876  4.146583  -0.001
C  C45  1  0.71273591  0.54993880  0.72993153  1  0.213405  0.568265  -0.000876  4.146612  -0.001
C  C46  1  0.59714346  0.85399949  0.26712994  1  -0.160592  -0.345674  -0.005365  3.854275  -0.006
C  C47  1  0.40285936  0.35399992  0.73287128  1  -0.160594  -0.345669  -0.005366  3.854365  -0.006
C  C48  1  0.59254041  0.83927456  0.39549804  1  0.214446  0.645332  0.000535  4.114806  0.001
C  C49  1  0.40745911  0.33927495  0.60450223  1  0.214466  0.645392  0.000535  4.114706  0.001
N  N50  1  0.68849564  0.13113085  0.25781967  1  -0.498731  -0.365068  -0.076653  3.524725  -0.1
N  N51  1  0.31150406  0.63113045  0.74218142  1  -0.498735  -0.365121  -0.076655  3.524746  -0.1
O  O52  1  0.55521088  0.46732509  0.32314307  1  -0.355597  -0.495147  0.000628  2.425948  -0.001
O  O53  1  0.44478061  0.96732417  0.67685697  1  -0.355623  -0.495184  0.000628  2.425877  -0.001
O  O54  1  0.29471624  0.13969084  0.35755673  1  -0.315133  -0.550541  -0.058007  2.365389  -0.084
O  O55  1  0.70527994  0.63968663  0.64244088  1  -0.315161  -0.550591  -0.058008  2.365484  -0.084
O  O56  1  0.10832210  0.99007202  0.22782362  1  -0.296166  -0.493778  -0.012819  2.170914  -0.017
O  O57  1  0.89168120  0.49007056  0.77217425  1  -0.296172  -0.493755  -0.012819  2.170926  -0.017
O  O58  1  0.69910066  0.93298098  0.45905834  1  -0.317822  -0.583148  -0.003124  2.22948  -0.006
O  O59  1  0.30089801  0.43298178  0.54094277  1  -0.317818  -0.583188  -0.003124  2.229505  -0.006
O  O60  1  0.46914486  0.72807092  0.43042841  1  -0.326539  -0.554647  -0.044363  2.377863  -0.064
O  O61  1  0.53085739  0.22807310  0.56957109  1  -0.326582  -0.554689  -0.044363  2.377853  -0.064
O  O62  1  0.94147996  0.24605872  0.46307168  1  -0.586048  -0.758375  -0.037645  2.154435  -0.053
O  O63  1  0.05851698  0.74605928  0.53692850  1  -0.586014  -0.758307  -0.037644  2.15446  -0.053
