# generated using pymatgen
data_Zn4H6C18N6O13
_symmetry_space_group_name_H-M   'P 1'
_cell_length_a   17.97962775
_cell_length_b   18.19552083
_cell_length_c   18.22924716
_cell_angle_alpha   60.93822634
_cell_angle_beta   60.61446938
_cell_angle_gamma   60.49072962
_symmetry_Int_Tables_number   1
_chemical_formula_structural   Zn4H6C18N6O13
_chemical_formula_sum   'Zn8 H12 C36 N12 O26'
_cell_volume   4281.65525194
_cell_formula_units_Z   2
loop_
 _symmetry_equiv_pos_site_id
 _symmetry_equiv_pos_as_xyz
  1  'x, y, z'
loop_
 _atom_site_type_symbol
 _atom_site_label
 _atom_site_symmetry_multiplicity
 _atom_site_fract_x
 _atom_site_fract_y
 _atom_site_fract_z
 _atom_site_occupancy
 _atom_site_pbe_bader_charge
 _atom_site_pbe_bader_spin_density
 _atom_site_pbe_cm5_charge
 _atom_site_pbe_ddec_charge
 _atom_site_pbe_ddec_spin_density
 _atom_site_pbe_ddec_sum_bond_order
 _atom_site_pbe_magmom
Zn  Zn0  1  0.96273535  0.93995854  0.14743212  1  1.302547  0  0.675575  0.964075  0  2.355733  0
Zn  Zn1  1  0.14235998  0.93618040  0.97322244  1  1.296189  0  0.675607  0.969294  0  2.333322  0
Zn  Zn2  1  0.96404116  0.11260427  0.97565691  1  1.292593  0  0.675023  0.966246  0  2.349676  0
Zn  Zn3  1  0.96436732  0.93638251  0.97167380  1  1.31215  0  0.676684  0.969816  0  2.329157  0
Zn  Zn4  1  0.55127400  0.52497460  0.38630584  1  1.309275  0  0.675696  0.965301  0  2.35273  0
Zn  Zn5  1  0.37486072  0.52396517  0.56071575  1  1.29761  0  0.675629  0.969471  0  2.334893  0
Zn  Zn6  1  0.55560676  0.52613744  0.55970062  1  1.314064  0  0.676616  0.969926  0  2.331795  0
Zn  Zn7  1  0.55327547  0.35039665  0.56013854  1  1.305853  0  0.673981  0.963209  0  2.355505  0
H  H8  1  0.29022188  0.56898541  0.31523562  1  0.075293  0  0.126237  0.103373  0  0.956227  0
H  H9  1  0.21980296  0.88902220  0.22363120  1  0.115047  0  0.126114  0.10298  0  0.957457  0
H  H10  1  0.82756349  0.27380860  0.31471086  1  0.083309  0  0.127258  0.1045  0  0.953627  0
H  H11  1  0.67733150  0.18931063  0.22168895  1  0.11375  0  0.127588  0.105484  0  0.954568  0
H  H12  1  0.59782189  0.80213049  0.31454176  1  0.09906  0  0.127454  0.1052  0  0.953894  0
H  H13  1  0.92436806  0.65670799  0.21560277  1  0.094716  0  0.127314  0.105398  0  0.95478  0
H  H14  1  0.30337633  0.26729659  0.60994104  1  0.100518  0  0.126235  0.103191  0  0.955508  0
H  H15  1  0.21556896  0.19252268  0.92938925  1  0.097744  0  0.126148  0.10306  0  0.956483  0
H  H16  1  0.29516159  0.57282050  0.83677372  1  0.115684  0  0.126075  0.105206  0  0.955031  0
H  H17  1  0.22450463  0.89330318  0.69036838  1  0.109924  0  0.12594  0.104016  0  0.95462  0
H  H18  1  0.59921854  0.27491028  0.83439670  1  0.086263  0  0.125936  0.102834  0  0.956967  0
H  H19  1  0.92626338  0.18936964  0.69291995  1  0.126357  0  0.125746  0.102539  0  0.956375  0
C  C20  1  0.14799631  0.84116430  0.15632756  1  1.603521  0  0.240804  0.602758  0  4.164022  0
C  C21  1  0.20543130  0.78115582  0.21581928  1  0.554568  0  0.12403  0.077083  0  3.970022  0
C  C22  1  0.27456093  0.64092054  0.29414720  1  0.605069  0  0.059052  0.030759  0  3.940351  0
C  C23  1  0.30645690  0.67676238  0.32134489  1  0.55342  0  0.124002  0.076232  0  3.968613  0
C  C24  1  0.23647197  0.81702690  0.24384111  1  0.560833  0  0.058902  0.030162  0  3.943219  0
C  C25  1  0.36525613  0.61789894  0.37956561  1  1.580784  0  0.241487  0.603629  0  4.160687  0
C  C26  1  0.86497393  0.12224053  0.15741274  1  1.5963  0  0.241189  0.600973  0  4.163969  0
C  C27  1  0.80525068  0.18048631  0.21607685  1  0.596914  0  0.123858  0.07697  0  3.970399  0
C  C28  1  0.79432346  0.25469547  0.29337944  1  0.627322  0  0.059632  0.032107  0  3.93811  0
C  C29  1  0.69979745  0.28322799  0.31959160  1  0.520869  0  0.124044  0.07622  0  3.976249  0
C  C30  1  0.71072125  0.20875377  0.24253136  1  0.513148  0  0.059642  0.031146  0  3.938151  0
C  C31  1  0.64167007  0.34170791  0.37798762  1  1.593525  0  0.241197  0.601386  0  4.165468  0
C  C32  1  0.86891564  0.84155896  0.15296154  1  1.569229  0  0.24267  0.604652  0  4.156818  0
C  C33  1  0.81151479  0.78208542  0.21165596  1  0.529912  0  0.124109  0.077091  0  3.969152  0
C  C34  1  0.67122318  0.76983046  0.29210176  1  0.546705  0  0.05962  0.030308  0  3.940738  0
C  C35  1  0.71061537  0.67677889  0.31822519  1  0.542297  0  0.124127  0.07671  0  3.96929  0
C  C36  1  0.85094648  0.68903550  0.23783195  1  0.62863  0  0.059575  0.029391  0  3.940119  0
C  C37  1  0.65227592  0.61823094  0.37762147  1  1.626014  0  0.242132  0.602939  0  4.159039  0
C  C38  1  0.15004492  0.11914578  0.88096768  1  1.619687  0  0.24012  0.601971  0  4.166194  0
C  C39  1  0.20858013  0.17757640  0.82162183  1  0.542542  0  0.123843  0.076522  0  3.971349  0
C  C40  1  0.28357673  0.25017516  0.68178146  1  0.519296  0  0.058861  0.031098  0  3.938371  0
C  C41  1  0.31081776  0.28181447  0.71777718  1  0.582959  0  0.124153  0.077313  0  3.968628  0
C  C42  1  0.23566782  0.20938682  0.85756080  1  0.516139  0  0.058577  0.031092  0  3.942446  0
C  C43  1  0.36882160  0.34071795  0.65864195  1  1.572618  0  0.240027  0.601381  0  4.164352  0
C  C44  1  0.15004986  0.84262595  0.87434012  1  1.583643  0  0.241939  0.603819  0  4.161341  0
C  C45  1  0.20857781  0.78431738  0.81564586  1  0.58161  0  0.123741  0.076213  0  3.968323  0
C  C46  1  0.27892438  0.64491758  0.80424944  1  0.526777  0  0.058299  0.026515  0  3.946495  0
C  C47  1  0.31086542  0.68182621  0.71154428  1  0.507423  0  0.124123  0.076586  0  3.972235  0
C  C48  1  0.24060792  0.82121903  0.72294279  1  0.4952  0  0.059095  0.02984  0  3.938886  0
C  C49  1  0.36925242  0.62271995  0.65366213  1  1.607979  0  0.241352  0.604048  0  4.159333  0
C  C50  1  0.86992895  0.11963729  0.87655947  1  1.620879  0  0.240435  0.603207  0  4.160944  0
C  C51  1  0.81274383  0.17886468  0.81681388  1  0.527703  0  0.124163  0.075724  0  3.974004  0
C  C52  1  0.67277933  0.25541214  0.80302869  1  0.576921  0  0.058103  0.028993  0  3.943983  0
C  C53  1  0.71269144  0.28517796  0.71047994  1  0.537651  0  0.123999  0.076013  0  3.972539  0
C  C54  1  0.85269253  0.20875603  0.72428795  1  0.520262  0  0.058349  0.029866  0  3.941004  0
C  C55  1  0.65445127  0.34406811  0.65170353  1  1.571598  0  0.24165  0.604087  0  4.158676  0
N  N56  1  0.22417965  0.69316134  0.24077831  1  -1.19586  0  -0.300116  -0.234149  0  3.257088  0
N  N57  1  0.28766954  0.76479711  0.29634031  1  -1.167753  0  -0.300147  -0.233092  0  3.259678  0
N  N58  1  0.84751310  0.20314506  0.24133658  1  -1.175756  0  -0.301668  -0.23611  0  3.262675  0
N  N59  1  0.65747659  0.26048628  0.29450700  1  -1.162336  0  -0.301464  -0.235754  0  3.261653  0
N  N60  1  0.72170492  0.82286582  0.23874161  1  -1.187274  0  -0.300602  -0.234012  0  3.260885  0
N  N61  1  0.80043228  0.63596094  0.29138189  1  -1.173218  0  -0.300209  -0.233765  0  3.257781  0
N  N62  1  0.23244285  0.19762794  0.73372230  1  -1.144358  0  -0.301455  -0.235734  0  3.258911  0
N  N63  1  0.28720917  0.26150723  0.80566360  1  -1.141824  0  -0.301767  -0.236365  0  3.260065  0
N  N64  1  0.22757024  0.69613584  0.85668556  1  -1.12458  0  -0.299822  -0.232398  0  3.261481  0
N  N65  1  0.29203189  0.76997736  0.67047219  1  -1.134055  0  -0.300662  -0.234002  0  3.258118  0
N  N66  1  0.72276106  0.20198416  0.85664268  1  -1.158251  0  -0.299566  -0.23157  0  3.261295  0
N  N67  1  0.80267243  0.26201865  0.67062730  1  -1.16659  0  -0.299821  -0.232727  0  3.258094  0
O  O68  1  0.00883492  0.98121698  0.01641341  1  -1.180168  0  -0.569378  -1.0382  0  2.517274  0
O  O69  1  0.19024508  0.86146908  0.07313945  1  -1.15682  0  -0.303085  -0.526747  0  2.303503  0
O  O70  1  0.06311003  0.86629810  0.19599250  1  -1.162605  0  -0.302222  -0.524376  0  2.312949  0
O  O71  1  0.32445150  0.59060098  0.46263262  1  -1.159646  0  -0.304027  -0.528277  0  2.300663  0
O  O72  1  0.44988214  0.60127332  0.33926132  1  -1.147877  0  -0.302476  -0.52445  0  2.311871  0
O  O73  1  0.88606587  0.16262439  0.07412211  1  -1.166522  0  -0.302557  -0.524822  0  2.306854  0
O  O74  1  0.88758849  0.03869514  0.19734666  1  -1.160001  0  -0.301787  -0.522586  0  2.309215  0
O  O75  1  0.62168879  0.30127366  0.46122764  1  -1.161309  0  -0.30319  -0.52468  0  2.310146  0
O  O76  1  0.62039156  0.42524258  0.33785992  1  -1.157244  0  -0.303042  -0.524728  0  2.30922  0
O  O77  1  0.89354585  0.85907737  0.06960125  1  -1.134735  0  -0.302218  -0.524912  0  2.298816  0
O  O78  1  0.88734499  0.86731349  0.19368206  1  -1.162596  0  -0.302671  -0.524866  0  2.31418  0
O  O79  1  0.63080720  0.59879603  0.46084260  1  -1.154119  0  -0.301214  -0.52284  0  2.301688  0
O  O80  1  0.62922462  0.59575440  0.33785610  1  -1.157362  0  -0.302598  -0.52462  0  2.31044  0
O  O81  1  0.06521211  0.16003004  0.90472402  1  -1.152946  0  -0.303427  -0.526679  0  2.307791  0
O  O82  1  0.19139325  0.03553495  0.90180393  1  -1.157052  0  -0.303163  -0.527189  0  2.307335  0
O  O83  1  0.45381792  0.30088509  0.63925938  1  -1.144146  0  -0.302898  -0.525078  0  2.307268  0
O  O84  1  0.32678439  0.42397995  0.63360088  1  -1.158221  0  -0.303542  -0.527308  0  2.304803  0
O  O85  1  0.06514670  0.86462501  0.89514653  1  -1.150323  0  -0.303369  -0.527347  0  2.308643  0
O  O86  1  0.19168845  0.86446096  0.89616129  1  -1.171904  0  -0.302848  -0.52539  0  2.300912  0
O  O87  1  0.45415836  0.60074984  0.63293698  1  -1.147622  0  -0.303119  -0.526904  0  2.308907  0
O  O88  1  0.32744036  0.59980678  0.63311873  1  -1.142907  0  -0.30291  -0.526296  0  2.301613  0
O  O89  1  0.89130207  0.16009756  0.89987830  1  -1.158017  0  -0.303094  -0.526014  0  2.310999  0
O  O90  1  0.89161935  0.03611025  0.89642135  1  -1.142786  0  -0.302355  -0.525572  0  2.302291  0
O  O91  1  0.63448986  0.30337741  0.62727778  1  -1.143755  0  -0.303663  -0.526255  0  2.309508  0
O  O92  1  0.62971150  0.42761744  0.63429513  1  -1.139872  0  -0.302329  -0.525726  0  2.300095  0
O  O93  1  0.50836777  0.48173311  0.51738298  1  -1.205477  0  -0.569277  -1.038382  0  2.52238  0
