# generated using pymatgen
data_CoH4C6(NO5)2
_symmetry_space_group_name_H-M   'P 1'
_cell_length_a   6.94692856
_cell_length_b   8.81131107
_cell_length_c   9.61513492
_cell_angle_alpha   116.83103692
_cell_angle_beta   90.02678069
_cell_angle_gamma   113.18747833
_symmetry_Int_Tables_number   1
_chemical_formula_structural   CoH4C6(NO5)2
_chemical_formula_sum   'Co2 H8 C12 N4 O20'
_cell_volume   471.24107554
_cell_formula_units_Z   2
loop_
 _symmetry_equiv_pos_site_id
 _symmetry_equiv_pos_as_xyz
  1  'x, y, z'
loop_
 _atom_site_type_symbol
 _atom_site_label
 _atom_site_symmetry_multiplicity
 _atom_site_fract_x
 _atom_site_fract_y
 _atom_site_fract_z
 _atom_site_occupancy
 _atom_site_hle17_ddec_charge
 _atom_site_hle17_ddec_spin_density
 _atom_site_hle17_ddec_sum_bond_order
 _atom_site_hle17_magmom
 _atom_site_hse06_10hf_ddec_charge
 _atom_site_hse06_10hf_ddec_spin_density
 _atom_site_hse06_10hf_ddec_sum_bond_order
 _atom_site_hse06_10hf_magmom
 _atom_site_hse06_ddec_charge
 _atom_site_hse06_ddec_spin_density
 _atom_site_hse06_ddec_sum_bond_order
 _atom_site_hse06_magmom
 _atom_site_pbe_cm5_charge
 _atom_site_pbe_ddec_charge
 _atom_site_pbe_ddec_spin_density
 _atom_site_pbe_ddec_sum_bond_order
 _atom_site_pbe_magmom
Co  Co0  1  0.00368358  0.99992559  0.75002141  1  1.144614  2.953006  1.926911  2.677  1.115067  2.909264  2.313879  2.714  1.160248  2.909913  2.25143  2.752  0.703401  1.085105  2.917476  2.355534  2.682
Co  Co1  1  0.99631196  0.00008563  0.24996799  1  1.14516  2.953429  1.926812  2.678  1.114951  2.909188  2.313784  2.714  1.160308  2.909924  2.251343  2.752  0.70339  1.08521  2.917339  2.355443  2.682
H  H2  1  0.24904607  0.01228694  0.96781782  1  0.445887  0.000355  0.834976  0.001  0.41435  0.000715  0.905086  0.002  0.42375  0.000471  0.891283  0.001  0.309997  0.408014  0.000966  0.914273  0.002
H  H3  1  0.23660219  0.98782943  0.53229874  1  0.44527  0.000357  0.835286  0.001  0.41394  0.000717  0.90576  0.002  0.423376  0.000472  0.891914  0.001  0.310108  0.407547  0.000969  0.915041  0.002
H  H4  1  0.75094231  0.98771283  0.03216177  1  0.445822  0.000353  0.834828  0.001  0.414255  0.000715  0.905191  0.002  0.423661  0.000471  0.89138  0.001  0.309946  0.407918  0.000966  0.914381  0.002
H  H5  1  0.76340678  0.01215392  0.46770233  1  0.445292  0.000357  0.835299  0.001  0.413921  0.000717  0.90579  0.002  0.423356  0.000472  0.891945  0.001  0.310081  0.407528  0.000969  0.915071  0.002
H  H6  1  0.30153400  0.22549284  0.01704165  1  0.432682  -0.000277  0.85227  0.0  0.400586  7.8e-05  0.925912  0.0  0.409243  -0.000159  0.913432  0.0  0.30476  0.395107  0.00032  0.933665  0.001
H  H7  1  0.07597353  0.77464554  0.48295646  1  0.432518  -0.000282  0.852733  0.0  0.400746  7.6e-05  0.925692  0.0  0.409415  -0.000161  0.913193  0.0  0.305076  0.395247  0.000318  0.933475  0.001
H  H8  1  0.69846455  0.77449562  0.98293443  1  0.432639  -0.000278  0.852287  0.0  0.400553  7.9e-05  0.925987  0.0  0.409216  -0.000158  0.9135  0.0  0.304698  0.395071  0.00032  0.933747  0.001
H  H9  1  0.92403235  0.22535467  0.51704411  1  0.432465  -0.000282  0.852814  0.0  0.400728  7.6e-05  0.925716  0.0  0.409395  -0.000161  0.913218  0.0  0.305058  0.395232  0.000317  0.933496  0.001
C  C10  1  0.61519137  0.69340580  0.52890175  1  0.32467  -0.037917  3.783639  -0.023  0.298168  -0.016358  4.066758  -0.008  0.326029  -0.008192  4.064885  -0.004  0.133678  0.276926  -0.027523  4.070506  -0.015
C  C11  1  0.92172134  0.30658354  0.97113270  1  0.329031  -0.037738  3.779185  -0.023  0.301248  -0.01627  4.063485  -0.008  0.329368  -0.008148  4.061259  -0.004  0.134914  0.279696  -0.027401  4.067604  -0.015
C  C12  1  0.38480869  0.30659430  0.47109357  1  0.324847  -0.037884  3.783913  -0.023  0.298381  -0.016347  4.066971  -0.008  0.326228  -0.008187  4.065081  -0.004  0.13375  0.277156  -0.027508  4.070728  -0.015
C  C13  1  0.07827961  0.69341257  0.02887350  1  0.329052  -0.037746  3.778947  -0.023  0.301146  -0.016273  4.063557  -0.008  0.329251  -0.00815  4.061292  -0.004  0.134841  0.279594  -0.027409  4.067698  -0.015
C  C14  1  0.67513761  0.62806993  0.63581251  1  0.315086  -0.050139  3.781763  -0.032  0.291109  -0.022021  4.064391  -0.012  0.319977  -0.011625  4.062294  -0.006  0.130513  0.268786  -0.035144  4.0689  -0.02
C  C15  1  0.04692057  0.37184280  0.86417192  1  0.315352  -0.050024  3.782818  -0.032  0.291301  -0.02196  4.065751  -0.012  0.320153  -0.011598  4.063576  -0.006  0.131631  0.269069  -0.035063  4.070205  -0.02
C  C16  1  0.32486537  0.37192448  0.36417949  1  0.315004  -0.050179  3.78185  -0.032  0.291054  -0.022033  4.064401  -0.012  0.319941  -0.011633  4.062299  -0.006  0.130457  0.268704  -0.035157  4.06896  -0.02
C  C17  1  0.95307888  0.62816181  0.13583771  1  0.315577  -0.050025  3.782669  -0.032  0.291433  -0.021951  4.065709  -0.012  0.320397  -0.011595  4.063376  -0.006  0.131616  0.269196  -0.035049  4.070185  -0.02
C  C18  1  0.54854121  0.44245582  0.60976612  1  -0.156048  0.011097  3.653554  0.018  -0.201898  0.003894  3.93842  0.007  -0.224224  0.002302  3.956874  0.004  0.045048  -0.186532  0.006184  3.927466  0.011
C  C19  1  0.10600942  0.55747421  0.89017425  1  -0.158583  0.011063  3.653979  0.018  -0.203339  0.003891  3.938256  0.007  -0.225888  0.0023  3.956802  0.004  0.044889  -0.187793  0.006179  3.927211  0.011
C  C20  1  0.45146099  0.55754282  0.39022654  1  -0.155967  0.011107  3.653437  0.018  -0.201738  0.003897  3.93819  0.007  -0.224098  0.002303  3.956682  0.004  0.045105  -0.186359  0.006186  3.927238  0.011
C  C21  1  0.89398931  0.44252899  0.10983481  1  -0.159058  0.011065  3.65405  0.018  -0.203658  0.003891  3.938199  0.007  -0.226226  0.0023  3.956693  0.004  0.044773  -0.188109  0.006177  3.927153  0.011
N  N22  1  0.59165081  0.39428140  0.72630147  1  0.510746  -0.002923  3.938158  -0.003  0.569943  -0.000349  4.19059  0.0  0.595688  -0.000152  4.196331  0.0  0.04939  0.55255  -0.000787  4.186847  -0.001
N  N23  1  0.19714538  0.60555192  0.77364158  1  0.512174  -0.002933  3.934593  -0.003  0.571291  -0.000355  4.186709  0.0  0.597043  -0.000155  4.192509  0.0  0.049869  0.553928  -0.000815  4.182851  -0.001
N  N24  1  0.40835344  0.60572709  0.27369203  1  0.510842  -0.002924  3.937916  -0.003  0.570019  -0.000348  4.190381  0.0  0.595773  -0.00015  4.196127  0.0  0.049405  0.552637  -0.000787  4.186626  -0.001
N  N25  1  0.80285279  0.39445303  0.22638378  1  0.512643  -0.002936  3.934009  -0.003  0.571433  -0.000355  4.18641  0.0  0.597203  -0.000154  4.192185  0.0  0.049927  0.554069  -0.000815  4.182549  -0.001
O  O26  1  0.72746228  0.86687964  0.57165580  1  -0.483905  0.030433  2.12838  0.057  -0.448146  0.023088  2.378918  0.04  -0.471479  0.018748  2.368203  0.032  -0.255928  -0.432001  0.027694  2.386585  0.049
O  O27  1  0.86062712  0.13311855  0.92840134  1  -0.485627  0.030408  2.127881  0.057  -0.449395  0.023086  2.378847  0.04  -0.472822  0.018735  2.367964  0.032  -0.256288  -0.433098  0.027721  2.38662  0.049
O  O28  1  0.27255197  0.13313158  0.42833360  1  -0.483928  0.030417  2.12867  0.057  -0.448168  0.023081  2.379169  0.04  -0.471482  0.018743  2.368443  0.032  -0.255916  -0.432049  0.027677  2.386874  0.049
O  O29  1  0.13935795  0.86688035  0.07160391  1  -0.485735  0.030418  2.127763  0.057  -0.449416  0.023089  2.378718  0.04  -0.472866  0.018737  2.367861  0.032  -0.256292  -0.433133  0.027721  2.386523  0.049
O  O30  1  0.84676177  0.74581968  0.74158911  1  -0.471761  0.037249  2.119621  0.072  -0.441775  0.027103  2.379973  0.049  -0.465257  0.02196  2.370235  0.04  -0.270176  -0.426349  0.031486  2.38718  0.056
O  O31  1  0.10057620  0.25396418  0.75838914  1  -0.472318  0.037189  2.121976  0.072  -0.442314  0.027082  2.382407  0.049  -0.465917  0.021934  2.372862  0.04  -0.271078  -0.426828  0.031475  2.389469  0.057
O  O32  1  0.15324559  0.25417774  0.25841242  1  -0.471689  0.037259  2.119817  0.072  -0.441765  0.027107  2.380208  0.049  -0.465259  0.021964  2.370476  0.04  -0.270126  -0.426345  0.031476  2.387467  0.056
O  O33  1  0.89940958  0.74604190  0.24162315  1  -0.472516  0.037194  2.121937  0.072  -0.442359  0.02708  2.382162  0.049  -0.46603  0.021933  2.372601  0.04  -0.271046  -0.426884  0.031462  2.389261  0.057
O  O34  1  0.63166107  0.51582262  0.87094416  1  -0.381185  -7.4e-05  1.825479  0.001  -0.369291  -3.9e-05  2.033646  0.0  -0.385466  -5e-05  2.030538  0.0  -0.131772  -0.358395  0.000147  2.036009  0.001
O  O35  1  0.11576408  0.48390077  0.62899131  1  -0.380579  -8.2e-05  1.823578  0.001  -0.369653  -4.4e-05  2.032693  0.0  -0.385894  -4.9e-05  2.029636  0.0  -0.131937  -0.35865  0.000149  2.034935  0.001
O  O36  1  0.36835262  0.48418171  0.12905183  1  -0.381196  -8.1e-05  1.825348  0.001  -0.369308  -4.1e-05  2.033521  0.0  -0.38548  -4.9e-05  2.030403  0.0  -0.131774  -0.358439  0.000147  2.035903  0.001
O  O37  1  0.88424616  0.51611392  0.37102965  1  -0.380755  -8.3e-05  1.823639  0.001  -0.369591  -4.3e-05  2.032693  0.0  -0.385823  -4.9e-05  2.029621  0.0  -0.131872  -0.358613  0.00015  2.034977  0.001
O  O38  1  0.58486508  0.23613550  0.68223062  1  -0.305884  -0.002245  1.752612  -0.002  -0.293353  -0.001478  1.938714  -0.001  -0.303424  -0.001124  1.933457  -0.001  -0.1048  -0.287767  -0.001941  1.942911  -0.001
O  O39  1  0.34833375  0.76370208  0.81771795  1  -0.307611  -0.002243  1.750892  -0.002  -0.294736  -0.001484  1.936806  -0.001  -0.304717  -0.001138  1.931434  -0.001  -0.10554  -0.289377  -0.001967  1.941235  -0.001
O  O40  1  0.41512499  0.76386766  0.31777634  1  -0.305912  -0.002229  1.752488  -0.002  -0.2934  -0.001475  1.938603  -0.001  -0.303465  -0.001129  1.933339  -0.001  -0.10479  -0.287815  -0.001943  1.942802  -0.001
O  O41  1  0.65165929  0.23628686  0.18228121  1  -0.307684  -0.002242  1.750634  -0.002  -0.294683  -0.001485  1.936588  -0.001  -0.30472  -0.00114  1.931264  -0.001  -0.105501  -0.289319  -0.001972  1.941022  -0.001
O  O42  1  0.25410706  0.09704313  0.92583349  1  -0.8026  0.037774  1.951262  0.065  -0.776904  0.030708  2.174153  0.049  -0.804588  0.022866  2.14263  0.037  -0.562703  -0.752609  0.039831  2.192716  0.063
O  O43  1  0.15697616  0.90304507  0.57422575  1  -0.80212  0.037722  1.951882  0.065  -0.776979  0.030684  2.174393  0.049  -0.804691  0.022843  2.142765  0.037  -0.563137  -0.752654  0.039813  2.193059  0.063
O  O44  1  0.74590454  0.90295989  0.07416718  1  -0.802525  0.037794  1.951101  0.065  -0.776814  0.03072  2.174067  0.049  -0.804541  0.022874  2.142555  0.037  -0.562555  -0.752531  0.039841  2.192643  0.063
O  O45  1  0.84302832  0.09695523  0.42577902  1  -0.802188  0.037721  1.951888  0.065  -0.776946  0.030685  2.174322  0.049  -0.804665  0.022842  2.142711  0.037  -0.563088  -0.752643  0.039808  2.193004  0.063
