# generated using pymatgen
data_AgH11C8IN
_symmetry_space_group_name_H-M   'P 1'
_cell_length_a   4.48407805
_cell_length_b   13.44807660
_cell_length_c   15.90608745
_cell_angle_alpha   89.99967189
_cell_angle_beta   90.00039500
_cell_angle_gamma   91.49247325
_symmetry_Int_Tables_number   1
_chemical_formula_structural   AgH11C8IN
_chemical_formula_sum   'Ag4 H44 C32 I4 N4'
_cell_volume   958.84707140
_cell_formula_units_Z   4
loop_
 _symmetry_equiv_pos_site_id
 _symmetry_equiv_pos_as_xyz
  1  'x, y, z'
loop_
 _atom_site_type_symbol
 _atom_site_label
 _atom_site_symmetry_multiplicity
 _atom_site_fract_x
 _atom_site_fract_y
 _atom_site_fract_z
 _atom_site_occupancy
 _atom_site_hle17_bader_spin_density
 _atom_site_hle17_ddec_charge
 _atom_site_hle17_ddec_spin_density
 _atom_site_hle17_ddec_sum_bond_order
 _atom_site_hle17_magmom
 _atom_site_hse06_10hf_bader_spin_density
 _atom_site_hse06_10hf_ddec_charge
 _atom_site_hse06_10hf_ddec_spin_density
 _atom_site_hse06_10hf_ddec_sum_bond_order
 _atom_site_hse06_10hf_magmom
 _atom_site_hse06_bader_spin_density
 _atom_site_hse06_ddec_charge
 _atom_site_hse06_ddec_spin_density
 _atom_site_hse06_ddec_sum_bond_order
 _atom_site_hse06_magmom
 _atom_site_pbe_bader_spin_density
 _atom_site_pbe_cm5_charge
 _atom_site_pbe_ddec_charge
 _atom_site_pbe_ddec_spin_density
 _atom_site_pbe_ddec_sum_bond_order
 _atom_site_pbe_magmom
Ag  Ag0  1  0.82835729  0.57373653  0.55963485  1  0  0.346436  0  1.798233  0  0  0.245817  0  2.267264  0  0  0.273026  0  2.223186  0  0  0.251053  0.226016  0  2.300157  0
Ag  Ag1  1  0.17165286  0.92626959  0.05963608  1  0  0.346448  0  1.798232  0  0  0.245892  0  2.267204  0  0  0.273104  0  2.223118  0  0  0.25105  0.22609  0  2.300107  0
Ag  Ag2  1  0.17165381  0.42626275  0.44036575  1  0  0.346488  0  1.798203  0  0  0.245914  0  2.267171  0  0  0.273121  0  2.22309  0  0  0.25106  0.226109  0  2.30008  0
Ag  Ag3  1  0.82834958  0.07373268  0.94036829  1  0  0.346486  0  1.798187  0  0  0.245898  0  2.26721  0  0  0.273107  0  2.223129  0  0  0.251071  0.226095  0  2.300114  0
H  H4  1  0.16888976  0.66863405  0.45847772  1  0  0.102011  0  1.027665  0  0  0.116397  0  1.104964  0  0  0.118753  0  1.102784  0  0  0.066056  0.114327  0  1.107173  0
H  H5  1  0.83110272  0.83136651  0.95848152  1  0  0.102007  0  1.027673  0  0  0.116403  0  1.10495  0  0  0.11876  0  1.102769  0  0  0.066085  0.114321  0  1.107172  0
H  H6  1  0.83111873  0.33136077  0.54152036  1  0  0.102056  0  1.027615  0  0  0.116414  0  1.104946  0  0  0.118771  0  1.102764  0  0  0.066059  0.114346  0  1.107162  0
H  H7  1  0.16889979  0.16863649  0.04152160  1  0  0.101986  0  1.027719  0  0  0.116365  0  1.105029  0  0  0.118722  0  1.102847  0  0  0.066063  0.11429  0  1.107247  0
H  H8  1  0.16296214  0.78324275  0.40356387  1  0  0.114028  0  0.955367  0  0  0.138208  0  1.012803  0  0  0.139372  0  1.013072  0  0  0.091349  0.137365  0  1.012593  0
H  H9  1  0.83704453  0.71675667  0.90357264  1  0  0.114019  0  0.955517  0  0  0.138206  0  1.012946  0  0  0.139372  0  1.013213  0  0  0.091346  0.137367  0  1.012733  0
H  H10  1  0.83705534  0.21675280  0.59643170  1  0  0.114088  0  0.95536  0  0  0.138246  0  1.01281  0  0  0.139409  0  1.01308  0  0  0.091364  0.137406  0  1.0126  0
H  H11  1  0.16295778  0.28324411  0.09643299  1  0  0.114002  0  0.955388  0  0  0.138155  0  1.012868  0  0  0.139319  0  1.013137  0  0  0.091325  0.137317  0  1.012654  0
H  H12  1  0.48035766  0.75214834  0.46370853  1  0  0.119119  0  0.956116  0  0  0.138569  0  1.020811  0  0  0.140145  0  1.020506  0  0  0.087229  0.1375  0  1.020839  0
H  H13  1  0.51963500  0.74785293  0.96371274  1  0  0.119261  0  0.956044  0  0  0.138693  0  1.020735  0  0  0.140269  0  1.020429  0  0  0.087268  0.137626  0  1.020768  0
H  H14  1  0.51964892  0.24785019  0.53629270  1  0  0.119167  0  0.956147  0  0  0.138626  0  1.020814  0  0  0.140202  0  1.020509  0  0  0.087245  0.137561  0  1.020844  0
H  H15  1  0.48036535  0.25215082  0.03629163  1  0  0.119214  0  0.956135  0  0  0.138647  0  1.020825  0  0  0.140223  0  1.020519  0  0  0.087256  0.137575  0  1.02086  0
H  H16  1  0.33234333  0.93646402  0.51363284  1  0  0.100334  0  0.963211  0  0  0.114162  0  1.023181  0  0  0.117032  0  1.023019  0  0  0.099416  0.112072  0  1.023552  0
H  H17  1  0.66762994  0.56354094  0.01364249  1  0  0.100399  0  0.963066  0  0  0.114218  0  1.023045  0  0  0.117088  0  1.02288  0  0  0.099407  0.112126  0  1.023419  0
H  H18  1  0.66763656  0.06353529  0.48635896  1  0  0.100338  0  0.963224  0  0  0.114152  0  1.023201  0  0  0.117019  0  1.023044  0  0  0.099406  0.112068  0  1.023579  0
H  H19  1  0.33236391  0.43646505  0.98636377  1  0  0.100231  0  0.963063  0  0  0.114051  0  1.023057  0  0  0.116917  0  1.0229  0  0  0.099376  0.111966  0  1.023432  0
H  H20  1  0.27374313  0.08482462  0.59876579  1  0  0.106728  0  0.955971  0  0  0.128362  0  1.016823  0  0  0.129814  0  1.016814  0  0  0.089752  0.127279  0  1.016872  0
H  H21  1  0.72626795  0.41517377  0.09877196  1  0  0.106685  0  0.956017  0  0  0.12836  0  1.016813  0  0  0.129811  0  1.016811  0  0  0.089736  0.127274  0  1.01686  0
H  H22  1  0.72626562  0.91517318  0.40122915  1  0  0.106757  0  0.955979  0  0  0.128408  0  1.016789  0  0  0.12986  0  1.016781  0  0  0.089768  0.127324  0  1.016834  0
H  H23  1  0.27373220  0.58482775  0.90122739  1  0  0.106708  0  0.956003  0  0  0.128392  0  1.01679  0  0  0.129846  0  1.01678  0  0  0.089753  0.127305  0  1.016837  0
H  H24  1  0.31797098  0.04417697  0.70499193  1  0  0.116747  0  0.971242  0  0  0.138022  0  1.034904  0  0  0.139515  0  1.034975  0  0  0.085712  0.137022  0  1.034637  0
H  H25  1  0.68204672  0.45581700  0.20500095  1  0  0.116817  0  0.971378  0  0  0.138035  0  1.035078  0  0  0.139528  0  1.035152  0  0  0.085723  0.137029  0  1.034816  0
H  H26  1  0.68203725  0.95581487  0.29500112  1  0  0.116801  0  0.971365  0  0  0.138025  0  1.035071  0  0  0.139519  0  1.035143  0  0  0.085708  0.137025  0  1.034803  0
H  H27  1  0.31795330  0.54418303  0.79500090  1  0  0.116762  0  0.971357  0  0  0.137994  0  1.035051  0  0  0.139488  0  1.035123  0  0  0.085694  0.136989  0  1.034787  0
H  H28  1  0.97178823  0.08800496  0.67170459  1  0  0.107533  0  0.962593  0  0  0.132669  0  1.018888  0  0  0.133888  0  1.01865  0  0  0.092087  0.13172  0  1.019122  0
H  H29  1  0.02823628  0.41199963  0.17170938  1  0  0.107606  0  0.962601  0  0  0.132722  0  1.018914  0  0  0.133947  0  1.018666  0  0  0.092102  0.131777  0  1.019141  0
H  H30  1  0.02822740  0.91199506  0.32829287  1  0  0.10752  0  0.962622  0  0  0.132629  0  1.018961  0  0  0.133855  0  1.018711  0  0  0.092058  0.131679  0  1.019201  0
H  H31  1  0.97176170  0.58800263  0.82829122  1  0  0.107569  0  0.962528  0  0  0.13267  0  1.018876  0  0  0.133888  0  1.018639  0  0  0.092068  0.131717  0  1.019115  0
H  H32  1  0.78772755  0.91538220  0.73635122  1  0  0.109189  0  0.973796  0  0  0.116697  0  1.042533  0  0  0.11994  0  1.041918  0  0  0.089839  0.11383  0  1.044241  0
H  H33  1  0.21226004  0.58462353  0.23635609  1  0  0.109298  0  0.973959  0  0  0.116906  0  1.042564  0  0  0.120158  0  1.041927  0  0  0.089914  0.114039  0  1.04427  0
H  H34  1  0.21226591  0.08461933  0.26364498  1  0  0.109226  0  0.973963  0  0  0.116776  0  1.042637  0  0  0.120024  0  1.042009  0  0  0.08987  0.113907  0  1.044348  0
H  H35  1  0.78774667  0.41537650  0.76364262  1  0  0.109227  0  0.973959  0  0  0.116796  0  1.042614  0  0  0.120047  0  1.041976  0  0  0.089889  0.113927  0  1.044324  0
H  H36  1  0.40514489  0.69825339  0.67642400  1  0  0.121303  0  0.967883  0  0  0.138583  0  1.035603  0  0  0.139732  0  1.036326  0  0  0.088252  0.1378  0  1.034947  0
H  H37  1  0.59483875  0.80174902  0.17643172  1  0  0.121383  0  0.967874  0  0  0.138712  0  1.035533  0  0  0.139861  0  1.036254  0  0  0.088285  0.137926  0  1.034884  0
H  H38  1  0.59485513  0.30174665  0.32357849  1  0  0.121315  0  0.967834  0  0  0.138583  0  1.035566  0  0  0.139733  0  1.036286  0  0  0.088261  0.137801  0  1.034913  0
H  H39  1  0.40515459  0.19825102  0.82357706  1  0  0.121312  0  0.967883  0  0  0.138588  0  1.035614  0  0  0.139738  0  1.036336  0  0  0.088268  0.137807  0  1.034957  0
H  H40  1  0.71679156  0.65568356  0.73141657  1  0  0.10567  0  0.970996  0  0  0.123427  0  1.042005  0  0  0.125389  0  1.039987  0  0  0.085368  0.121951  0  1.043537  0
H  H41  1  0.28320930  0.84432218  0.23142283  1  0  0.105639  0  0.971066  0  0  0.123433  0  1.042032  0  0  0.125391  0  1.040018  0  0  0.085382  0.121957  0  1.043565  0
H  H42  1  0.28321095  0.34431944  0.26858152  1  0  0.105676  0  0.970976  0  0  0.123433  0  1.041996  0  0  0.125394  0  1.039977  0  0  0.08539  0.121956  0  1.043529  0
H  H43  1  0.71679079  0.15567859  0.76858469  1  0  0.105657  0  0.970981  0  0  0.123395  0  1.042022  0  0  0.125359  0  1.039993  0  0  0.08536  0.121917  0  1.043558  0
H  H44  1  0.53276335  0.76461954  0.76746898  1  0  0.121714  0  0.950039  0  0  0.143029  0  1.007541  0  0  0.144974  0  1.007136  0  0  0.088214  0.141598  0  1.007875  0
H  H45  1  0.46724072  0.73538746  0.26747802  1  0  0.1217  0  0.950032  0  0  0.143029  0  1.007546  0  0  0.144976  0  1.007136  0  0  0.088216  0.141596  0  1.007875  0
H  H46  1  0.46724585  0.23538346  0.23253099  1  0  0.121757  0  0.950072  0  0  0.143052  0  1.007591  0  0  0.144996  0  1.00719  0  0  0.088224  0.141618  0  1.007925  0
H  H47  1  0.53275924  0.26461183  0.73253012  1  0  0.121776  0  0.950101  0  0  0.143068  0  1.007618  0  0  0.145012  0  1.007216  0  0  0.088241  0.141635  0  1.007953  0
C  C48  1  0.10571330  0.79646629  0.53743831  1  0  0.322089  0  3.734088  0  0  0.328728  0  3.979983  0  0  0.339275  0  3.999683  0  0  0.115954  0.321675  0  3.966423  0
C  C49  1  0.89426683  0.70353405  0.03744270  1  0  0.322477  0  3.734109  0  0  0.329198  0  3.979885  0  0  0.339754  0  3.999574  0  0  0.116085  0.322135  0  3.966337  0
C  C50  1  0.89428213  0.20353226  0.46255349  1  0  0.322262  0  3.734173  0  0  0.328898  0  3.980063  0  0  0.339447  0  3.99976  0  0  0.116033  0.321842  0  3.966505  0
C  C51  1  0.10573122  0.29646896  0.96256042  1  0  0.322302  0  3.734049  0  0  0.329002  0  3.979855  0  0  0.339553  0  3.99955  0  0  0.116032  0.321949  0  3.966294  0
C  C52  1  0.23559725  0.74750329  0.46188007  1  0  -0.376549  0  3.714154  0  0  -0.459924  0  3.950465  0  0  -0.463181  0  3.95707  0  0  -0.253261  -0.457326  0  3.945726  0
C  C53  1  0.76439950  0.75249427  0.96188663  1  0  -0.376752  0  3.714478  0  0  -0.460135  0  3.950753  0  0  -0.4634  0  3.957363  0  0  -0.253316  -0.457527  0  3.946031  0
C  C54  1  0.76440684  0.25249228  0.53811802  1  0  -0.376784  0  3.714158  0  0  -0.460118  0  3.950498  0  0  -0.463375  0  3.957099  0  0  -0.25334  -0.457524  0  3.945768  0
C  C55  1  0.23560275  0.24750576  0.03811648  1  0  -0.376652  0  3.714396  0  0  -0.459994  0  3.950667  0  0  -0.463257  0  3.957277  0  0  -0.253284  -0.457393  0  3.945936  0
C  C56  1  0.18185292  0.89559679  0.55584179  1  0  -0.250221  0  3.694569  0  0  -0.275101  0  3.937827  0  0  -0.285892  0  3.960136  0  0  -0.099738  -0.268138  0  3.923038  0
C  C57  1  0.81814567  0.60440564  0.05585405  1  0  -0.250495  0  3.69484  0  0  -0.27534  0  3.938083  0  0  -0.286135  0  3.960382  0  0  -0.099811  -0.268373  0  3.923296  0
C  C58  1  0.81812901  0.10440028  0.44415064  1  0  -0.25036  0  3.694423  0  0  -0.275236  0  3.9377  0  0  -0.286018  0  3.960007  0  0  -0.099863  -0.268288  0  3.922928  0
C  C59  1  0.18185015  0.39559738  0.94414843  1  0  -0.250106  0  3.694783  0  0  -0.274975  0  3.938016  0  0  -0.285764  0  3.960322  0  0  -0.099688  -0.268027  0  3.923236  0
C  C60  1  0.07212644  0.94119948  0.62777064  1  0  0.211815  0  3.771248  0  0  0.233963  0  4.01054  0  0  0.241292  0  4.031782  0  0  0.005801  0.229246  0  3.995795  0
C  C61  1  0.92786256  0.55880100  0.12777517  1  0  0.211988  0  3.771201  0  0  0.234021  0  4.010603  0  0  0.241364  0  4.031822  0  0  0.005867  0.229309  0  3.995857  0
C  C62  1  0.92786231  0.05879908  0.37222368  1  0  0.211831  0  3.771198  0  0  0.234013  0  4.010424  0  0  0.241324  0  4.03169  0  0  0.005907  0.2293  0  3.995677  0
C  C63  1  0.07213504  0.44119680  0.87222669  1  0  0.211774  0  3.771558  0  0  0.233897  0  4.010854  0  0  0.24123  0  4.032088  0  0  0.00578  0.22919  0  3.996099  0
C  C64  1  0.16406035  0.04538504  0.65108097  1  0  -0.341974  0  3.705444  0  0  -0.420505  0  3.931525  0  0  -0.423587  0  3.939338  0  0  -0.240193  -0.417968  0  3.925754  0
C  C65  1  0.83595909  0.45461820  0.15108967  1  0  -0.342091  0  3.70562  0  0  -0.420549  0  3.931699  0  0  -0.42364  0  3.939511  0  0  -0.24019  -0.418011  0  3.925923  0
C  C66  1  0.83594381  0.95461127  0.34891397  1  0  -0.341974  0  3.705528  0  0  -0.420465  0  3.931584  0  0  -0.423544  0  3.939398  0  0  -0.240139  -0.417927  0  3.925812  0
C  C67  1  0.16404112  0.54538406  0.84891156  1  0  -0.341998  0  3.70545  0  0  -0.420493  0  3.931516  0  0  -0.423577  0  3.93933  0  0  -0.240151  -0.417948  0  3.925742  0
C  C68  1  0.87989323  0.88403491  0.67896330  1  0  -0.240819  0  3.670267  0  0  -0.264523  0  3.908507  0  0  -0.274925  0  3.93017  0  0  -0.099238  -0.257775  0  3.894191  0
C  C69  1  0.12010353  0.61596374  0.17897475  1  0  -0.241116  0  3.670183  0  0  -0.264888  0  3.908418  0  0  -0.27529  0  3.930066  0  0  -0.099458  -0.258145  0  3.8941  0
C  C70  1  0.12009985  0.11596215  0.32102913  1  0  -0.240956  0  3.670364  0  0  -0.264723  0  3.908589  0  0  -0.275121  0  3.930256  0  0  -0.099401  -0.25798  0  3.894269  0
C  C71  1  0.87990777  0.38403777  0.82102900  1  0  -0.24097  0  3.670218  0  0  -0.264729  0  3.908461  0  0  -0.275131  0  3.930118  0  0  -0.099402  -0.257982  0  3.894141  0
C  C72  1  0.80694815  0.78589681  0.65753079  1  0  0.319242  0  3.736605  0  0  0.328279  0  3.977563  0  0  0.338164  0  3.998326  0  0  0.11456  0.321678  0  3.963267  0
C  C73  1  0.19304423  0.71410868  0.15754128  1  0  0.319336  0  3.736321  0  0  0.3284  0  3.977336  0  0  0.338283  0  3.998104  0  0  0.114606  0.321811  0  3.963021  0
C  C74  1  0.19304984  0.21410546  0.34246541  1  0  0.319375  0  3.736393  0  0  0.328429  0  3.977347  0  0  0.338319  0  3.998101  0  0  0.11468  0.321838  0  3.963035  0
C  C75  1  0.80695356  0.28589135  0.84246435  1  0  0.31923  0  3.736257  0  0  0.328256  0  3.977304  0  0  0.338144  0  3.998065  0  0  0.114544  0.321659  0  3.962999  0
C  C76  1  0.60373734  0.72345591  0.71172697  1  0  -0.376737  0  3.710929  0  0  -0.456592  0  3.942386  0  0  -0.45992  0  3.94932  0  0  -0.24761  -0.453909  0  3.937331  0
C  C77  1  0.39625644  0.77655071  0.21173316  1  0  -0.376747  0  3.710944  0  0  -0.456661  0  3.942323  0  0  -0.459999  0  3.94929  0  0  -0.247634  -0.453974  0  3.937251  0
C  C78  1  0.39626702  0.27654263  0.28826986  1  0  -0.376811  0  3.710954  0  0  -0.45662  0  3.942403  0  0  -0.459948  0  3.949337  0  0  -0.24767  -0.453943  0  3.937347  0
C  C79  1  0.60373295  0.22345528  0.78826933  1  0  -0.376691  0  3.710849  0  0  -0.456497  0  3.942283  0  0  -0.459823  0  3.949222  0  0  -0.247568  -0.453818  0  3.937234  0
I  I80  1  0.31970682  0.46454643  0.61998194  1  0  -0.438708  0  1.572372  0  0  -0.359527  0  2.012177  0  0  -0.383044  0  1.978132  0  0  -0.175114  -0.341671  0  2.039219  0
I  I81  1  0.68030303  0.03545777  0.11998295  1  0  -0.438679  0  1.572349  0  0  -0.359534  0  2.012203  0  0  -0.383042  0  1.978144  0  0  -0.175095  -0.341672  0  2.039244  0
I  I82  1  0.68030390  0.53544838  0.38001677  1  0  -0.438715  0  1.572321  0  0  -0.359562  0  2.012152  0  0  -0.383073  0  1.978103  0  0  -0.175121  -0.341706  0  2.039192  0
I  I83  1  0.31969088  0.96454897  0.88001576  1  0  -0.438704  0  1.572267  0  0  -0.359546  0  2.012075  0  0  -0.38306  0  1.978033  0  0  -0.175121  -0.341687  0  2.039116  0
N  N84  1  0.91979139  0.74252742  0.58768982  1  0  -0.398947  0  3.155334  0  0  -0.328729  0  3.413033  0  0  -0.34976  0  3.428404  0  0  -0.335475  -0.314279  0  3.402178  0
N  N85  1  0.08020387  0.75747927  0.08769799  1  0  -0.399195  0  3.155063  0  0  -0.329122  0  3.412915  0  0  -0.350157  0  3.428286  0  0  -0.335568  -0.314669  0  3.402057  0
N  N86  1  0.08020385  0.25746890  0.41230763  1  0  -0.399054  0  3.15554  0  0  -0.328876  0  3.413298  0  0  -0.349911  0  3.428669  0  0  -0.335508  -0.314422  0  3.402436  0
N  N87  1  0.91979653  0.24252523  0.91230764  1  0  -0.39911  0  3.155194  0  0  -0.328951  0  3.41293  0  0  -0.349989  0  3.428306  0  0  -0.33551  -0.314498  0  3.40207  0
