# generated using pymatgen
data_ZnHC9N5O13
_symmetry_space_group_name_H-M   'P 1'
_cell_length_a   7.91976908
_cell_length_b   8.87152486
_cell_length_c   16.02188933
_cell_angle_alpha   84.92969784
_cell_angle_beta   87.01006477
_cell_angle_gamma   80.87029734
_symmetry_Int_Tables_number   1
_chemical_formula_structural   ZnHC9N5O13
_chemical_formula_sum   'Zn2 H2 C18 N10 O26'
_cell_volume   1106.26222021
_cell_formula_units_Z   2
loop_
 _symmetry_equiv_pos_site_id
 _symmetry_equiv_pos_as_xyz
  1  'x, y, z'
loop_
 _atom_site_type_symbol
 _atom_site_label
 _atom_site_symmetry_multiplicity
 _atom_site_fract_x
 _atom_site_fract_y
 _atom_site_fract_z
 _atom_site_occupancy
 _atom_site_pbe_bader_charge
 _atom_site_pbe_bader_spin_density
 _atom_site_pbe_cm5_charge
 _atom_site_pbe_ddec_charge
 _atom_site_pbe_ddec_spin_density
 _atom_site_pbe_ddec_sum_bond_order
 _atom_site_pbe_magmom
Zn  Zn0  1  0.67770182  0.49053102  0.49018497  1  1.318192  0  0.704328  0.862315  0  2.420114  0
Zn  Zn1  1  0.32298151  0.50818687  0.51002556  1  1.321695  0  0.705425  0.864022  0  2.419629  0
H  H2  1  0.36579043  0.85257492  0.03366692  1  0.653225  0  0.326764  0.371176  0  0.916922  0
H  H3  1  0.63247932  0.14869372  0.96655462  1  0.647062  0  0.326491  0.370404  0  0.918138  0
C  C4  1  0.45029898  0.79245338  0.49186523  1  1.654363  0  0.226729  0.597132  0  4.187898  0
C  C5  1  0.55535856  0.20624116  0.50756897  1  1.655989  0  0.228545  0.600925  0  4.185343  0
C  C6  1  0.47674810  0.49756376  0.33956612  1  1.692301  0  0.232493  0.675696  0  4.213247  0
C  C7  1  0.52051080  0.50114092  0.66083095  1  1.692643  0  0.233222  0.678171  0  4.207742  0
C  C8  1  0.43683186  0.96114593  0.49699840  1  0.349806  0  0.097726  -0.052571  0  3.797034  0
C  C9  1  0.56889115  0.03757268  0.50224797  1  0.180262  0  0.098341  -0.055912  0  3.799421  0
C  C10  1  0.57663950  0.62254647  0.97095525  1  0.295337  0  0.096886  -0.035719  0  3.637575  0
C  C11  1  0.42174998  0.37868316  0.02927128  1  0.288825  0  0.096819  -0.034191  0  3.637014  0
C  C12  1  0.40016322  0.63657366  0.02137853  1  0.712954  0  0.118303  0.243706  0  3.754829  0
C  C13  1  0.59819221  0.36466592  0.97887668  1  0.730754  0  0.117433  0.242704  0  3.753568  0
C  C14  1  0.46816239  0.49559854  0.24997783  1  0.27349  0  -0.012244  -0.11855  0  3.886392  0
C  C15  1  0.52962585  0.50379353  0.75033057  1  0.277583  0  -0.012421  -0.120287  0  3.884639  0
C  C16  1  0.65485255  0.48780671  0.03339585  1  0.304335  0  0.104341  -0.01582  0  3.581156  0
C  C17  1  0.34356939  0.51337233  0.96685132  1  0.31193  0  0.104627  -0.01657  0  3.583641  0
C  C18  1  0.47847174  0.49544519  0.08648992  1  0.048986  0  0.021672  0.031763  0  3.788754  0
C  C19  1  0.51988779  0.50575884  0.91373374  1  0.132989  0  0.021698  0.031799  0  3.789356  0
C  C20  1  0.46609622  0.49222736  0.17436483  1  -0.41322  0  -0.027746  -0.023638  0  4.075647  0
C  C21  1  0.53202329  0.50832714  0.82588546  1  -0.504394  0  -0.026841  -0.021802  0  4.072417  0
N  N22  1  0.05746617  0.49739572  0.52030636  1  -0.033744  0  -0.018256  0.012022  0  3.102476  0
N  N23  1  0.94299850  0.50232349  0.47966336  1  -0.140153  0  -0.017786  0.014376  0  3.103187  0
N  N24  1  0.65963150  0.75442649  0.94012749  1  0.427761  0  0.063239  0.528258  0  4.22111  0
N  N25  1  0.33875575  0.24681150  0.06009449  1  0.397612  0  0.063215  0.526646  0  4.220446  0
N  N26  1  0.18352614  0.52873839  0.92337582  1  0.401282  0  0.057664  0.523811  0  4.240647  0
N  N27  1  0.81499672  0.47219197  0.07678358  1  0.41634  0  0.058362  0.524258  0  4.240529  0
N  N28  1  0.25753755  0.04155469  0.49798657  1  0.459925  0  0.059323  0.534767  0  4.266624  0
N  N29  1  0.74795658  0.95683444  0.50144867  1  0.45954  0  0.060411  0.537295  0  4.2669  0
N  N30  1  0.00553961  0.45015967  0.66495289  1  0.731173  0  0.108097  0.385889  0  4.016533  0
N  N31  1  0.99254254  0.55068271  0.33493714  1  0.746213  0  0.107364  0.384104  0  4.016835  0
O  O32  1  0.60010019  0.72096894  0.48003800  1  -1.152296  0  -0.300677  -0.527192  0  2.385641  0
O  O33  1  0.40455850  0.27865864  0.51403671  1  -1.149612  0  -0.300433  -0.528928  0  2.392917  0
O  O34  1  0.31122181  0.73820671  0.50081804  1  -1.124173  0  -0.294991  -0.498061  0  2.312603  0
O  O35  1  0.69488586  0.25977806  0.50405287  1  -1.118268  0  -0.297548  -0.500947  0  2.305534  0
O  O36  1  0.62619519  0.48737507  0.36728240  1  -1.123267  0  -0.302175  -0.531545  0  2.292846  0
O  O37  1  0.37213647  0.50142521  0.63383805  1  -1.125654  0  -0.302061  -0.531428  0  2.289595  0
O  O38  1  0.33554073  0.50907210  0.38199656  1  -1.13031  0  -0.301374  -0.540017  0  2.313092  0
O  O39  1  0.66033410  0.49921858  0.61767351  1  -1.124938  0  -0.302819  -0.543546  0  2.314008  0
O  O40  1  0.30044694  0.76624926  0.04171714  1  -1.13198  0  -0.337027  -0.412196  0  2.279791  0
O  O41  1  0.69785353  0.23499476  0.95852807  1  -1.132371  0  -0.335989  -0.410637  0  2.280077  0
O  O42  1  0.61389689  0.87216754  0.97820343  1  -0.465587  0  -0.124401  -0.339203  0  1.929012  0
O  O43  1  0.76293814  0.74040158  0.88062980  1  -0.400028  0  -0.08011  -0.26028  0  1.92688  0
O  O44  1  0.38452267  0.12910825  0.02198979  1  -0.462214  0  -0.124491  -0.338954  0  1.930113  0
O  O45  1  0.23547262  0.26079746  0.11959772  1  -0.371524  0  -0.079834  -0.259409  0  1.92595  0
O  O46  1  0.10156762  0.41995955  0.93191982  1  -0.442759  0  -0.128517  -0.321826  0  1.894811  0
O  O47  1  0.14845408  0.65008797  0.87938996  1  -0.392177  0  -0.09821  -0.281836  0  1.896871  0
O  O48  1  0.85011659  0.35065818  0.12060369  1  -0.396886  0  -0.097629  -0.281443  0  1.898175  0
O  O49  1  0.89699531  0.58095328  0.06833777  1  -0.445407  0  -0.129239  -0.322303  0  1.894279  0
O  O50  1  0.18179662  0.04716574  0.56689203  1  -0.399404  0  -0.103328  -0.285128  0  1.905844  0
O  O51  1  0.19911714  0.08806088  0.42898912  1  -0.405485  0  -0.110365  -0.291444  0  1.878176  0
O  O52  1  0.82513652  0.95489211  0.43283408  1  -0.401599  0  -0.10289  -0.284849  0  1.907157  0
O  O53  1  0.80477268  0.90610850  0.57021653  1  -0.402844  0  -0.111378  -0.293655  0  1.878942  0
O  O54  1  0.98935530  0.56486077  0.70072752  1  -0.286071  0  0.015364  -0.109461  0  2.038373  0
O  O55  1  0.00962130  0.31536813  0.68282706  1  -0.302376  0  0.004986  -0.121901  0  2.006029  0
O  O56  1  0.01053949  0.43596293  0.29908651  1  -0.300147  0  0.015418  -0.109489  0  2.0382  0
O  O57  1  0.98464838  0.68583722  0.31709532  1  -0.303677  0  0.00549  -0.120499  0  2.00744  0
