# generated using pymatgen
data_CdH10C11S3N3O5
_symmetry_space_group_name_H-M   'P 1'
_cell_length_a   8.39250223
_cell_length_b   12.55054494
_cell_length_c   15.70000000
_cell_angle_alpha   113.35694210
_cell_angle_beta   90.00000000
_cell_angle_gamma   90.00000000
_symmetry_Int_Tables_number   1
_chemical_formula_structural   CdH10C11S3N3O5
_chemical_formula_sum   'Cd4 H40 C44 S12 N12 O20'
_cell_volume   1518.17337862
_cell_formula_units_Z   4
loop_
 _symmetry_equiv_pos_site_id
 _symmetry_equiv_pos_as_xyz
  1  'x, y, z'
loop_
 _atom_site_type_symbol
 _atom_site_label
 _atom_site_symmetry_multiplicity
 _atom_site_fract_x
 _atom_site_fract_y
 _atom_site_fract_z
 _atom_site_occupancy
 _atom_site_hle17_bader_spin_density
 _atom_site_hle17_ddec_charge
 _atom_site_hle17_ddec_spin_density
 _atom_site_hle17_ddec_sum_bond_order
 _atom_site_hle17_magmom
 _atom_site_hse06_10hf_bader_spin_density
 _atom_site_hse06_10hf_ddec_charge
 _atom_site_hse06_10hf_ddec_spin_density
 _atom_site_hse06_10hf_ddec_sum_bond_order
 _atom_site_hse06_10hf_magmom
 _atom_site_hse06_bader_spin_density
 _atom_site_hse06_ddec_charge
 _atom_site_hse06_ddec_spin_density
 _atom_site_hse06_ddec_sum_bond_order
 _atom_site_hse06_magmom
 _atom_site_pbe_bader_charge
 _atom_site_pbe_bader_spin_density
 _atom_site_pbe_cm5_charge
 _atom_site_pbe_ddec_charge
 _atom_site_pbe_ddec_spin_density
 _atom_site_pbe_ddec_sum_bond_order
 _atom_site_pbe_magmom
Cd  Cd0  1  0.46078391  0.33059270  0.79664214  1  0  1.173033  0  1.67764  0  0  0.986156  0  2.124385  0  0  1.044844  0  2.069413  0  1.301261  0  0.765778  0.944342  0  2.161922  0
Cd  Cd1  1  0.96078497  0.16940890  0.70335980  1  0  1.17303  0  1.677635  0  0  0.986147  0  2.12439  0  0  1.044835  0  2.069416  0  1.301249  0  0.765775  0.944332  0  2.161928  0
Cd  Cd2  1  0.53921463  0.66940876  0.20335928  1  0  1.173049  0  1.677646  0  0  0.98616  0  2.124399  0  0  1.044852  0  2.069426  0  1.301185  0  0.765795  0.944347  0  2.161937  0
Cd  Cd3  1  0.03921596  0.83059169  0.29664071  1  0  1.173031  0  1.677652  0  0  0.98615  0  2.1244  0  0  1.044839  0  2.069427  0  1.301245  0  0.765783  0.944336  0  2.161938  0
H  H4  1  0.19446763  0.24721614  0.03117257  1  0  0.128284  0  0.927528  0  0  0.141297  0  0.98763  0  0  0.143137  0  0.987879  0  0.107298  0  0.106212  0.140015  0  0.987521  0
H  H5  1  0.69446869  0.25278285  0.46882663  1  0  0.128293  0  0.927508  0  0  0.14129  0  0.987618  0  0  0.143134  0  0.987861  0  0.10731  0  0.106213  0.140008  0  0.987509  0
H  H6  1  0.80553330  0.75278271  0.96882674  1  0  0.128304  0  0.927571  0  0  0.141297  0  0.987668  0  0  0.143148  0  0.987905  0  0.107681  0  0.106227  0.140015  0  0.987557  0
H  H7  1  0.30553224  0.74721774  0.53117388  1  0  0.128315  0  0.92756  0  0  0.141318  0  0.987644  0  0  0.143158  0  0.987891  0  0.107301  0  0.106227  0.140035  0  0.987534  0
H  H8  1  0.34424894  0.34001289  0.10134040  1  0  0.131495  0  0.95076  0  0  0.140313  0  1.018418  0  0  0.142944  0  1.016687  0  0.134132  0  0.106734  0.138415  0  1.019752  0
H  H9  1  0.84425000  0.15998524  0.39865980  1  0  0.131537  0  0.950729  0  0  0.140332  0  1.018394  0  0  0.142963  0  1.016662  0  0.134081  0  0.106733  0.138433  0  1.019728  0
H  H10  1  0.65575079  0.65998683  0.89866047  1  0  0.131495  0  0.950776  0  0  0.140303  0  1.018432  0  0  0.142933  0  1.016702  0  0.134103  0  0.106725  0.138405  0  1.019765  0
H  H11  1  0.15575093  0.84001362  0.60133951  1  0  0.131542  0  0.950742  0  0  0.140343  0  1.018396  0  0  0.142974  0  1.016663  0  0.134096  0  0.106739  0.138444  0  1.019729  0
H  H12  1  0.50181339  0.07443372  0.38899266  1  0  0.134933  0  0.92307  0  0  0.149198  0  0.980073  0  0  0.1518  0  0.978606  0  0.106544  0  0.110874  0.147355  0  0.981158  0
H  H13  1  0.00181472  0.42556614  0.11100746  1  0  0.134941  0  0.923036  0  0  0.149202  0  0.980052  0  0  0.151804  0  0.978587  0  0.106529  0  0.11088  0.147359  0  0.981137  0
H  H14  1  0.49818634  0.92556600  0.61100821  1  0  0.134915  0  0.923088  0  0  0.149184  0  0.980098  0  0  0.151786  0  0.978634  0  0.106538  0  0.110865  0.147342  0  0.981183  0
H  H15  1  0.99818740  0.57443358  0.88899213  1  0  0.134895  0  0.923102  0  0  0.149172  0  0.980092  0  0  0.151774  0  0.978627  0  0.106547  0  0.110865  0.14733  0  0.981177  0
H  H16  1  0.38947264  0.02799238  0.46345627  1  0  0.147112  0  0.91825  0  0  0.161909  0  0.974431  0  0  0.165206  0  0.972381  0  0.125537  0  0.115887  0.159489  0  0.976097  0
H  H17  1  0.88947251  0.47200835  0.03654412  1  0  0.147115  0  0.918249  0  0  0.161913  0  0.974436  0  0  0.165211  0  0.972387  0  0.125542  0  0.115891  0.159493  0  0.976102  0
H  H18  1  0.61052709  0.97200907  0.53654514  1  0  0.147125  0  0.918247  0  0  0.161935  0  0.974423  0  0  0.165236  0  0.972365  0  0.125612  0  0.115896  0.159513  0  0.976091  0
H  H19  1  0.11052723  0.52799224  0.96345575  1  0  0.147122  0  0.91824  0  0  0.161918  0  0.974418  0  0  0.165216  0  0.972371  0  0.125598  0  0.115895  0.159498  0  0.976085  0
H  H20  1  0.30603984  0.28278529  0.60274097  1  0  0.091525  0  0.933629  0  0  0.098997  0  0.99895  0  0  0.101861  0  0.996165  0  0.124781  0  0.115644  0.096852  0  1.001073  0
H  H21  1  0.80603970  0.21721457  0.89725979  1  0  0.091503  0  0.93363  0  0  0.098973  0  0.998954  0  0  0.101836  0  0.996171  0  0.124698  0  0.115635  0.09683  0  1.001076  0
H  H22  1  0.69395990  0.71721269  0.39725999  1  0  0.091468  0  0.933598  0  0  0.098932  0  0.998948  0  0  0.101797  0  0.996165  0  0.124735  0  0.1156  0.096788  0  1.00107  0
H  H23  1  0.19395884  0.78278689  0.10273972  1  0  0.091469  0  0.933664  0  0  0.098935  0  0.999001  0  0  0.101795  0  0.996217  0  0.12473  0  0.115608  0.096792  0  1.001122  0
H  H24  1  0.30623167  0.35163928  0.47608563  1  0  0.09881  0  0.993377  0  0  0.101935  0  1.069518  0  0  0.105148  0  1.068546  0  0.117135  0  0.098461  0.099631  0  1.070368  0
H  H25  1  0.80623154  0.14836058  0.02391448  1  0  0.098816  0  0.993376  0  0  0.101939  0  1.069521  0  0  0.105153  0  1.068549  0  0.117135  0  0.098458  0.099636  0  1.07037  0
H  H26  1  0.69376806  0.64835610  0.52391322  1  0  0.098803  0  0.993344  0  0  0.101922  0  1.069501  0  0  0.105136  0  1.068528  0  0.117168  0  0.098453  0.099619  0  1.07035  0
H  H27  1  0.19376819  0.85164174  0.97608593  1  0  0.098781  0  0.993373  0  0  0.101905  0  1.069517  0  0  0.105119  0  1.068544  0  0.117153  0  0.098441  0.099601  0  1.070367  0
H  H28  1  0.69069985  0.58556353  0.62090041  1  0  0.110318  0  0.969241  0  0  0.116939  0  1.036891  0  0  0.120285  0  1.035352  0  0.107223  0  0.104609  0.114519  0  1.038185  0
H  H29  1  0.19070117  0.91443779  0.87909984  1  0  0.110307  0  0.969218  0  0  0.116916  0  1.036894  0  0  0.120262  0  1.035355  0  0.107227  0  0.104591  0.114496  0  1.038188  0
H  H30  1  0.30929631  0.41443619  0.37909854  1  0  0.110255  0  0.969288  0  0  0.116893  0  1.036933  0  0  0.120239  0  1.035394  0  0.107188  0  0.104597  0.114473  0  1.038227  0
H  H31  1  0.80929856  0.08556280  0.12090066  1  0  0.110297  0  0.969259  0  0  0.116912  0  1.036929  0  0  0.120259  0  1.035389  0  0.107216  0  0.104606  0.114492  0  1.038223  0
H  H32  1  0.67394918  0.50381341  0.73986670  1  0  0.088086  0  0.94675  0  0  0.095918  0  1.011002  0  0  0.098832  0  1.007813  0  0.11792  0  0.114799  0.093726  0  1.01341  0
H  H33  1  0.17395050  0.99618790  0.76013356  1  0  0.088161  0  0.94664  0  0  0.095933  0  1.010966  0  0  0.098847  0  1.007777  0  0.117924  0  0.114806  0.093741  0  1.013375  0
H  H34  1  0.32604817  0.49618717  0.26013253  1  0  0.088117  0  0.946677  0  0  0.09591  0  1.010983  0  0  0.098825  0  1.007793  0  0.117891  0  0.114794  0.093718  0  1.013392  0
H  H35  1  0.82604923  0.00381269  0.23986631  1  0  0.088145  0  0.946665  0  0  0.095935  0  1.010969  0  0  0.09885  0  1.00778  0  0.117912  0  0.114813  0.093743  0  1.013377  0
H  H36  1  0.77071412  0.41955854  0.85826272  1  0  0.427573  0  0.882033  0  0  0.393312  0  0.950385  0  0  0.405181  0  0.933235  0  0.668889  0  0.284139  0.384937  0  0.962466  0
H  H37  1  0.27071426  0.08044132  0.64173740  1  0  0.427552  0  0.882064  0  0  0.393289  0  0.950419  0  0  0.405158  0  0.933269  0  0.668886  0  0.284133  0.384914  0  0.9625  0
H  H38  1  0.22928561  0.58044031  0.14173724  1  0  0.427572  0  0.882026  0  0  0.393289  0  0.950408  0  0  0.405158  0  0.933254  0  0.668888  0  0.28414  0.384914  0  0.962488  0
H  H39  1  0.72928667  0.91955840  0.35826283  1  0  0.427558  0  0.882051  0  0  0.393295  0  0.950405  0  0  0.405167  0  0.933251  0  0.668889  0  0.284129  0.38492  0  0.962486  0
H  H40  1  0.65231320  0.50679031  0.93660060  1  0  0.423555  0  0.888293  0  0  0.388788  0  0.958225  0  0  0.40075  0  0.941127  0  0.650028  0  0.280264  0.380308  0  0.970329  0
H  H41  1  0.15231453  0.99321014  0.56340002  1  0  0.423529  0  0.888338  0  0  0.388744  0  0.958298  0  0  0.400705  0  0.941201  0  0.65003  0  0.280247  0.380264  0  0.970402  0
H  H42  1  0.34768534  0.49321028  0.06339990  1  0  0.423524  0  0.888343  0  0  0.388741  0  0.958298  0  0  0.400702  0  0.941203  0  0.650034  0  0.280248  0.380262  0  0.9704  0
H  H43  1  0.84768640  0.00679045  0.43660049  1  0  0.423509  0  0.888362  0  0  0.388749  0  0.958286  0  0  0.400711  0  0.941189  0  0.650026  0  0.28026  0.38027  0  0.970389  0
C  C44  1  0.37577947  0.29023882  0.95403759  1  0  0.695946  0  3.876166  0  0  0.649909  0  4.167568  0  0  0.683517  0  4.16236  0  1.573855  0  0.194714  0.627124  0  4.170171  0
C  C45  1  0.87577814  0.20976018  0.54596225  1  0  0.695892  0  3.876255  0  0  0.649851  0  4.167642  0  0  0.683457  0  4.162438  0  1.573858  0  0.194696  0.627066  0  4.170245  0
C  C46  1  0.62422384  0.70976177  0.04596228  1  0  0.695916  0  3.876231  0  0  0.649866  0  4.167626  0  0  0.683474  0  4.162423  0  1.573841  0  0.194705  0.627081  0  4.170228  0
C  C47  1  0.12422159  0.79024041  0.45403825  1  0  0.696003  0  3.876236  0  0  0.64993  0  4.167654  0  0  0.683537  0  4.16245  0  1.573847  0  0.194743  0.627144  0  4.170256  0
C  C48  1  0.32344823  0.26467482  0.03631782  1  0  -0.300017  0  3.641674  0  0  -0.331788  0  3.893805  0  0  -0.33606  0  3.898416  0  -0.147677  0  -0.150631  -0.328912  0  3.890574  0
C  C49  1  0.82344810  0.23532244  0.46368084  1  0  -0.300144  0  3.641768  0  0  -0.331806  0  3.893729  0  0  -0.336081  0  3.898336  0  -0.147671  0  -0.150631  -0.328931  0  3.890501  0
C  C50  1  0.67655389  0.73532403  0.96368087  1  0  -0.300082  0  3.64181  0  0  -0.331804  0  3.893893  0  0  -0.336084  0  3.898499  0  -0.148052  0  -0.150645  -0.328928  0  3.890661  0
C  C51  1  0.17655283  0.76467728  0.53631876  1  0  -0.300177  0  3.641778  0  0  -0.331864  0  3.893805  0  0  -0.336137  0  3.898414  0  -0.147656  0  -0.150649  -0.328987  0  3.890574  0
C  C52  1  0.34685722  0.14877370  0.14459764  1  0  0.070558  0  3.793392  0  0  0.067949  0  4.103812  0  0  0.078832  0  4.117294  0  0.327442  0  0.111777  0.060582  0  4.094547  0
C  C53  1  0.84686066  0.35122269  0.35540201  1  0  0.070515  0  3.793358  0  0  0.067916  0  4.103764  0  0  0.078782  0  4.117269  0  0.327887  0  0.111751  0.060549  0  4.094498  0
C  C54  1  0.65314132  0.85122428  0.85540204  1  0  0.070586  0  3.793337  0  0  0.06799  0  4.103725  0  0  0.078859  0  4.117225  0  0.327449  0  0.111793  0.060623  0  4.094461  0
C  C55  1  0.15314265  0.64877617  0.64459795  1  0  0.070528  0  3.793445  0  0  0.067927  0  4.103839  0  0  0.078804  0  4.117329  0  0.327452  0  0.111765  0.060559  0  4.094574  0
C  C56  1  0.26904014  0.12840148  0.28355004  1  0  0.055376  0  3.77958  0  0  0.055256  0  4.089932  0  0  0.064177  0  4.104676  0  0.347192  0  0.109027  0.049136  0  4.079902  0
C  C57  1  0.76904358  0.37160011  0.21645126  1  0  0.055339  0  3.779487  0  0  0.055244  0  4.089809  0  0  0.064164  0  4.104553  0  0.347196  0  0.109113  0.049125  0  4.079778  0
C  C58  1  0.73095959  0.87160258  0.71645157  1  0  0.055409  0  3.779418  0  0  0.055278  0  4.089791  0  0  0.064186  0  4.104556  0  0.347141  0  0.109087  0.049159  0  4.079759  0
C  C59  1  0.23096092  0.62839874  0.78354869  1  0  0.055389  0  3.779464  0  0  0.055255  0  4.089844  0  0  0.064163  0  4.104607  0  0.347177  0  0.109077  0.049135  0  4.079812  0
C  C60  1  0.39737136  0.02334651  0.39219024  1  0  -0.322705  0  3.645101  0  0  -0.35857  0  3.910048  0  0  -0.363004  0  3.913106  0  -0.169863  0  -0.151249  -0.355502  0  3.90772  0
C  C61  1  0.89737242  0.47665335  0.10780988  1  0  -0.322713  0  3.645043  0  0  -0.358588  0  3.909998  0  0  -0.363019  0  3.913045  0  -0.169839  0  -0.151253  -0.355521  0  3.907671  0
C  C62  1  0.60262838  0.97665407  0.60781090  1  0  -0.322668  0  3.645079  0  0  -0.358561  0  3.910046  0  0  -0.362989  0  3.913091  0  -0.169848  0  -0.151223  -0.355494  0  3.90772  0
C  C63  1  0.10262851  0.52334637  0.89218972  1  0  -0.32263  0  3.645032  0  0  -0.358521  0  3.910023  0  0  -0.362943  0  3.913055  0  -0.169859  0  -0.151219  -0.355454  0  3.907696  0
C  C64  1  0.42321824  0.89622056  0.32775433  1  0  0.71938  0  3.845562  0  0  0.663755  0  4.148138  0  0  0.698442  0  4.141385  0  1.605737  0  0.206884  0.640183  0  4.151929  0
C  C65  1  0.92321810  0.60377902  0.17224538  1  0  0.719437  0  3.845488  0  0  0.66384  0  4.148029  0  0  0.698523  0  4.141281  0  1.605742  0  0.206917  0.640267  0  4.151821  0
C  C66  1  0.57678269  0.10378089  0.67224773  1  0  0.719398  0  3.845517  0  0  0.663769  0  4.148111  0  0  0.69845  0  4.141366  0  1.605767  0  0.206873  0.640196  0  4.151905  0
C  C67  1  0.07678282  0.39621984  0.82775394  1  0  0.719381  0  3.845536  0  0  0.663759  0  4.148104  0  0  0.698439  0  4.141359  0  1.605747  0  0.206877  0.640187  0  4.151897  0
C  C68  1  0.39088342  0.34856518  0.60295468  1  0  0.125979  0  3.731079  0  0  0.092405  0  3.989769  0  0  0.099792  0  4.008339  0  0.499513  0  0.039296  0.087566  0  3.977154  0
C  C69  1  0.89088210  0.15143382  0.89704516  1  0  0.126029  0  3.731044  0  0  0.092458  0  3.989721  0  0  0.099844  0  4.008294  0  0.499476  0  0.039308  0.087619  0  3.977105  0
C  C70  1  0.60911631  0.65143194  0.39704409  1  0  0.125965  0  3.731113  0  0  0.092377  0  3.98981  0  0  0.099761  0  4.008388  0  0.499594  0  0.039291  0.087538  0  3.977192  0
C  C71  1  0.10911525  0.84856590  0.10295443  1  0  0.125968  0  3.731207  0  0  0.092395  0  3.989888  0  0  0.099787  0  4.008455  0  0.499557  0  0.039267  0.087556  0  3.977271  0
C  C72  1  0.39203207  0.38837923  0.53218113  1  0  -0.166488  0  3.717686  0  0  -0.185581  0  3.970622  0  0  -0.193658  0  3.992385  0  -0.059141  0  -0.087349  -0.180389  0  3.956122  0
C  C73  1  0.89203193  0.11162150  0.96781862  1  0  -0.166577  0  3.717646  0  0  -0.185639  0  3.9706  0  0  -0.193716  0  3.992363  0  -0.059035  0  -0.087363  -0.180446  0  3.956099  0
C  C74  1  0.60796648  0.61161789  0.46781764  1  0  -0.166482  0  3.717708  0  0  -0.185537  0  3.97061  0  0  -0.193615  0  3.992375  0  -0.059091  0  -0.087311  -0.180344  0  3.956108  0
C  C75  1  0.10796661  0.88838082  0.03218180  1  0  -0.166419  0  3.717771  0  0  -0.185492  0  3.970655  0  0  -0.193569  0  3.992419  0  -0.059111  0  -0.087268  -0.180299  0  3.956154  0
C  C76  1  0.49916341  0.47628275  0.53616249  1  0  0.099664  0  3.731625  0  0  0.112427  0  3.95739  0  0  0.116285  0  3.978563  0  0.007573  0  0.012967  0.109978  0  3.943022  0
C  C77  1  0.99916327  0.02371624  0.96383735  1  0  0.099834  0  3.731443  0  0  0.112499  0  3.957319  0  0  0.116356  0  3.978492  0  0.007567  0  0.013  0.11005  0  3.942951  0
C  C78  1  0.50083633  0.52371349  0.46383728  1  0  0.099781  0  3.731543  0  0  0.112497  0  3.957365  0  0  0.116353  0  3.97854  0  -0.036616  0  0.012966  0.110047  0  3.942998  0
C  C79  1  0.00083765  0.97628522  0.03616215  1  0  0.099619  0  3.731595  0  0  0.1124  0  3.957383  0  0  0.116255  0  3.978558  0  -0.036603  0  0.012938  0.109951  0  3.943013  0
C  C80  1  0.60378655  0.51764080  0.61208783  1  0  -0.137758  0  3.671205  0  0  -0.157643  0  3.919762  0  0  -0.164666  0  3.940087  0  -0.022732  0  -0.079256  -0.153193  0  3.906278  0
C  C81  1  0.10378669  0.98235965  0.88791279  1  0  -0.137772  0  3.671067  0  0  -0.157612  0  3.919627  0  0  -0.164635  0  3.939951  0  -0.022731  0  -0.079239  -0.153162  0  3.906143  0
C  C82  1  0.39621318  0.48235719  0.38791248  1  0  -0.137707  0  3.671143  0  0  -0.157609  0  3.919715  0  0  -0.16463  0  3.940039  0  -0.022191  0  -0.079231  -0.153159  0  3.90623  0
C  C83  1  0.89621305  0.01764094  0.11208708  1  0  -0.137707  0  3.671136  0  0  -0.157598  0  3.919677  0  0  -0.16462  0  3.940002  0  -0.022257  0  -0.079245  -0.153148  0  3.906192  0
C  C84  1  0.59579251  0.47265493  0.67963821  1  0  0.143717  0  3.691304  0  0  0.111568  0  3.94547  0  0  0.118856  0  3.963739  0  0.475169  0  0.045337  0.106816  0  3.933065  0
C  C85  1  0.09579265  0.02734666  0.82036246  1  0  0.143685  0  3.691174  0  0  0.111578  0  3.945332  0  0  0.118866  0  3.963599  0  0.475191  0  0.045374  0.106824  0  3.932928  0
C  C86  1  0.40420484  0.52734479  0.32036202  1  0  0.143722  0  3.69121  0  0  0.111597  0  3.94539  0  0  0.118884  0  3.96366  0  0.47511  0  0.045375  0.106844  0  3.932985  0
C  C87  1  0.90420590  0.97265479  0.17963769  1  0  0.143658  0  3.691225  0  0  0.11155  0  3.945388  0  0  0.118837  0  3.963657  0  0.475149  0  0.04534  0.106797  0  3.932982  0
S  S88  1  0.42694657  0.13992459  0.04003388  1  0  0.061716  0  2.490564  0  0  0.048885  0  2.855113  0  0  0.045252  0  2.854359  0  0.177796  0  0.035347  0.051548  0  2.855698  0
S  S89  1  0.92694643  0.36007353  0.45996760  1  0  0.0618  0  2.49053  0  0  0.048938  0  2.855046  0  0  0.045311  0  2.854298  0  0.177828  0  0.035377  0.051602  0  2.855631  0
S  S90  1  0.57305317  0.86007513  0.95996635  1  0  0.061741  0  2.490594  0  0  0.048889  0  2.855124  0  0  0.045263  0  2.854377  0  0.177784  0  0.035353  0.051554  0  2.855708  0
S  S91  1  0.07305330  0.63992532  0.54003363  1  0  0.061745  0  2.490521  0  0  0.048886  0  2.855048  0  0  0.045257  0  2.854294  0  0.177799  0  0.035336  0.051551  0  2.855632  0
S  S92  1  0.40881967  0.05716251  0.19716543  1  0  0.143496  0  2.459307  0  0  0.144547  0  2.779989  0  0  0.147575  0  2.778466  0  0.282788  0  0.119267  0.141664  0  2.781505  0
S  S93  1  0.90882669  0.44283562  0.30283669  1  0  0.143553  0  2.459211  0  0  0.144605  0  2.779858  0  0  0.147637  0  2.778339  0  0.282312  0  0.119275  0.141721  0  2.781374  0
S  S94  1  0.59117768  0.94283721  0.80283608  1  0  0.143509  0  2.459252  0  0  0.144563  0  2.77993  0  0  0.147596  0  2.778417  0  0.282757  0  0.11928  0.141681  0  2.781446  0
S  S95  1  0.09117662  0.55716323  0.69716327  1  0  0.143513  0  2.459185  0  0  0.144569  0  2.77987  0  0  0.147601  0  2.778353  0  0.282769  0  0.119275  0.141686  0  2.781386  0
S  S96  1  0.21815186  0.09245740  0.37645645  1  0  0.094022  0  2.465937  0  0  0.092911  0  2.814206  0  0  0.08977  0  2.812416  0  0.161303  0  0.056717  0.095264  0  2.815416  0
S  S97  1  0.71815173  0.40754073  0.12354502  1  0  0.093992  0  2.4659  0  0  0.092874  0  2.814175  0  0  0.089731  0  2.812387  0  0.161331  0  0.056669  0.095227  0  2.815385  0
S  S98  1  0.78184787  0.90754319  0.62354596  1  0  0.093964  0  2.465912  0  0  0.092859  0  2.814219  0  0  0.089719  0  2.812438  0  0.161375  0  0.056677  0.095213  0  2.815429  0
S  S99  1  0.28184800  0.59245639  0.87645438  1  0  0.09399  0  2.465917  0  0  0.092878  0  2.814217  0  0  0.089739  0  2.812433  0  0.161382  0  0.056686  0.095232  0  2.815426  0
N  N100  1  0.23364903  0.22248706  0.19045435  1  0  -0.22442  0  3.037318  0  0  -0.204815  0  3.330774  0  0  -0.214532  0  3.346755  0  -0.676732  0  -0.227388  -0.197933  0  3.319483  0
N  N101  1  0.73364651  0.27751453  0.30954695  1  0  -0.224482  0  3.037338  0  0  -0.204888  0  3.330797  0  0  -0.214601  0  3.346782  0  -0.676761  0  -0.227427  -0.198007  0  3.319507  0
N  N102  1  0.76635309  0.77751353  0.80954679  1  0  -0.224473  0  3.037319  0  0  -0.20487  0  3.33077  0  0  -0.214582  0  3.346753  0  -0.676769  0  -0.22743  -0.197988  0  3.319478  0
N  N103  1  0.26635322  0.72248692  0.69045383  1  0  -0.22446  0  3.037319  0  0  -0.204855  0  3.330764  0  0  -0.21457  0  3.346744  0  -0.676767  0  -0.227413  -0.197975  0  3.319479  0
N  N104  1  0.19097999  0.21137968  0.27022329  1  0  -0.218199  0  3.082248  0  0  -0.20205  0  3.379508  0  0  -0.210499  0  3.39591  0  -0.691233  0  -0.222993  -0.195907  0  3.367969  0
N  N105  1  0.69098105  0.28862279  0.22977829  1  0  -0.218153  0  3.082211  0  0  -0.202013  0  3.379477  0  0  -0.210462  0  3.39588  0  -0.691194  0  -0.223028  -0.19587  0  3.367936  0
N  N106  1  0.80901974  0.78862352  0.72977868  1  0  -0.218186  0  3.082164  0  0  -0.202035  0  3.379439  0  0  -0.210481  0  3.395848  0  -0.691173  0  -0.223011  -0.195891  0  3.367898  0
N  N107  1  0.30902226  0.71137693  0.77022194  1  0  -0.218165  0  3.082154  0  0  -0.202007  0  3.379418  0  0  -0.210454  0  3.39583  0  -0.691239  0  -0.223  -0.195864  0  3.367878  0
N  N108  1  0.49072611  0.38999178  0.67578837  1  0  -0.34826  0  3.288962  0  0  -0.269702  0  3.553121  0  0  -0.29115  0  3.57388  0  -1.233782  0  -0.336061  -0.25503  0  3.538658  0
N  N109  1  0.99072598  0.11000808  0.82421174  1  0  -0.348264  0  3.28895  0  0  -0.269698  0  3.553085  0  0  -0.291146  0  3.573845  0  -1.233777  0  -0.336065  -0.255026  0  3.538624  0
N  N110  1  0.50927243  0.61000620  0.32421131  1  0  -0.348257  0  3.288967  0  0  -0.269675  0  3.553099  0  0  -0.291123  0  3.573861  0  -1.233774  0  -0.336065  -0.255003  0  3.538635  0
N  N111  1  0.00927256  0.88999251  0.17578813  1  0  -0.348233  0  3.288976  0  0  -0.269675  0  3.55311  0  0  -0.291123  0  3.573869  0  -1.233738  0  -0.336052  -0.255003  0  3.538647  0
O  O112  1  0.35168891  0.39364478  0.95961426  1  0  -0.660235  0  2.004472  0  0  -0.585872  0  2.226582  0  0  -0.61667  0  2.219062  0  -1.180227  0  -0.325518  -0.564259  0  2.230988  0
O  O113  1  0.85168878  0.10635422  0.54038558  1  0  -0.660191  0  2.004584  0  0  -0.585853  0  2.226699  0  0  -0.616651  0  2.219179  0  -1.180249  0  -0.32551  -0.564238  0  2.231103  0
O  O114  1  0.64831082  0.60635581  0.04038433  1  0  -0.660235  0  2.004511  0  0  -0.585859  0  2.2266  0  0  -0.616657  0  2.219078  0  -1.180208  0  -0.325508  -0.564254  0  2.231026  0
O  O115  1  0.14831214  0.89364637  0.45961556  1  0  -0.66025  0  2.004511  0  0  -0.585887  0  2.226632  0  0  -0.616681  0  2.219109  0  -1.180265  0  -0.32554  -0.564287  0  2.231067  0
O  O116  1  0.43607733  0.21130330  0.88343093  1  0  -0.61822  0  1.956526  0  0  -0.560845  0  2.196272  0  0  -0.589467  0  2.189017  0  -1.163508  0  -0.323606  -0.540737  0  2.200462  0
O  O117  1  0.93607482  0.28869656  0.61656919  1  0  -0.618181  0  1.956489  0  0  -0.560809  0  2.196226  0  0  -0.589437  0  2.188986  0  -1.163473  0  -0.323602  -0.5407  0  2.200414  0
O  O118  1  0.56392836  0.78869468  0.11657130  1  0  -0.618173  0  1.9565  0  0  -0.560795  0  2.196233  0  0  -0.589428  0  2.189001  0  -1.163476  0  -0.323612  -0.540686  0  2.200422  0
O  O119  1  0.06392730  0.71130663  0.38342960  1  0  -0.618199  0  1.956458  0  0  -0.560811  0  2.196206  0  0  -0.589439  0  2.188967  0  -1.163438  0  -0.323614  -0.540701  0  2.200396  0
O  O120  1  0.56130220  0.85645859  0.33230425  1  0  -0.64145  0  2.038523  0  0  -0.564915  0  2.272436  0  0  -0.595284  0  2.262639  0  -1.180316  0  -0.312708  -0.543665  0  2.278457  0
O  O121  1  0.06130234  0.64354186  0.16769765  1  0  -0.641456  0  2.038542  0  0  -0.564937  0  2.272463  0  0  -0.595293  0  2.262657  0  -1.180386  0  -0.312712  -0.543689  0  2.278491  0
O  O122  1  0.43869753  0.14354200  0.66769817  1  0  -0.641453  0  2.038492  0  0  -0.564932  0  2.272433  0  0  -0.595282  0  2.262623  0  -1.180378  0  -0.312707  -0.543678  0  2.27845  0
O  O123  1  0.93869859  0.35645786  0.83230322  1  0  -0.641456  0  2.038539  0  0  -0.564932  0  2.272462  0  0  -0.59528  0  2.262652  0  -1.180386  0  -0.312696  -0.543677  0  2.278476  0
O  O124  1  0.31681255  0.83435057  0.27389633  1  0  -0.652547  0  2.066002  0  0  -0.584557  0  2.330784  0  0  -0.614896  0  2.320256  0  -1.170839  0  -0.317157  -0.563301  0  2.337227  0
O  O125  1  0.81680884  0.66564901  0.22610211  1  0  -0.652587  0  2.065934  0  0  -0.584618  0  2.33073  0  0  -0.614948  0  2.320179  0  -1.170836  0  -0.317185  -0.563362  0  2.337174  0
O  O126  1  0.68318838  0.16565089  0.72610445  1  0  -0.65256  0  2.06603  0  0  -0.584583  0  2.330862  0  0  -0.614914  0  2.320316  0  -1.170895  0  -0.317163  -0.563328  0  2.337306  0
O  O127  1  0.18318732  0.33434984  0.77389594  1  0  -0.652549  0  2.065983  0  0  -0.584551  0  2.330754  0  0  -0.6149  0  2.320254  0  -1.170869  0  -0.317161  -0.563297  0  2.337197  0
O  O128  1  0.66094472  0.45361060  0.86919361  1  0  -0.874318  0  1.91248  0  0  -0.80805  0  2.130872  0  0  -0.832623  0  2.094104  0  -1.301219  0  -0.600833  -0.790636  0  2.15633  0
O  O129  1  0.16094485  0.04639013  0.63080614  1  0  -0.874292  0  1.912538  0  0  -0.807998  0  2.130952  0  0  -0.832571  0  2.094184  0  -1.301228  0  -0.600818  -0.790581  0  2.156402  0
O  O130  1  0.33905502  0.54638999  0.13080625  1  0  -0.874294  0  1.91251  0  0  -0.807994  0  2.130976  0  0  -0.832562  0  2.094212  0  -1.301228  0  -0.600824  -0.790578  0  2.156426  0
O  O131  1  0.83905489  0.95361046  0.36919437  1  0  -0.874268  0  1.91253  0  0  -0.807996  0  2.130906  0  0  -0.832569  0  2.094134  0  -1.301217  0  -0.600816  -0.790578  0  2.156354  0
