# generated using pymatgen
data_Zn2Cu3H18C20S3N5O7
_symmetry_space_group_name_H-M   'P 1'
_cell_length_a   11.92767162
_cell_length_b   11.92765676
_cell_length_c   25.86626371
_cell_angle_alpha   95.10151589
_cell_angle_beta   95.10150681
_cell_angle_gamma   108.37147794
_symmetry_Int_Tables_number   1
_chemical_formula_structural   Zn2Cu3H18C20S3N5O7
_chemical_formula_sum   'Zn8 Cu12 H72 C80 S12 N20 O28'
_cell_volume   3451.85650301
_cell_formula_units_Z   4
loop_
 _symmetry_equiv_pos_site_id
 _symmetry_equiv_pos_as_xyz
  1  'x, y, z'
loop_
 _atom_site_type_symbol
 _atom_site_label
 _atom_site_symmetry_multiplicity
 _atom_site_fract_x
 _atom_site_fract_y
 _atom_site_fract_z
 _atom_site_occupancy
 _atom_site_pbe_bader_charge
 _atom_site_pbe_bader_spin_density
 _atom_site_pbe_cm5_charge
 _atom_site_pbe_ddec_charge
 _atom_site_pbe_ddec_spin_density
 _atom_site_pbe_ddec_sum_bond_order
 _atom_site_pbe_magmom
Zn  Zn0  1  0.52728042  0.50656088  0.06304784  1  1.295826  0  0.649709  0.90333  0  2.265981  0
Zn  Zn1  1  0.49343842  0.47272429  0.43695350  1  1.295838  0  0.649684  0.903315  0  2.266033  0
Zn  Zn2  1  0.47272239  0.49343605  0.93695078  1  1.295728  0  0.649707  0.903362  0  2.266054  0
Zn  Zn3  1  0.50656076  0.52728154  0.56305036  1  1.295899  0  0.649697  0.903284  0  2.266015  0
Zn  Zn4  1  0.53571744  0.25950939  0.00472632  1  1.299209  0  0.67126  0.947848  0  2.317328  0
Zn  Zn5  1  0.74049055  0.46428214  0.49527445  1  1.299203  0  0.671236  0.947801  0  2.317408  0
Zn  Zn6  1  0.46428090  0.74049027  0.99527262  1  1.299221  0  0.671232  0.947789  0  2.317418  0
Zn  Zn7  1  0.25950781  0.53571247  0.50472814  1  1.299256  0  0.671256  0.947838  0  2.317246  0
Cu  Cu8  1  0.86661543  0.04172407  0.19834939  1  0.45886  0  0.353457  0.169873  0  2.823205  0
Cu  Cu9  1  0.95827096  0.13338058  0.30164908  1  0.45813  0  0.353472  0.169897  0  2.823319  0
Cu  Cu10  1  0.13338023  0.95827386  0.80164974  1  0.458352  0  0.353445  0.169874  0  2.823204  0
Cu  Cu11  1  0.04172738  0.86661740  0.69835055  1  0.458586  0  0.353475  0.169885  0  2.823241  0
Cu  Cu12  1  0.02912694  0.87519696  0.20296987  1  0.479476  0  0.365107  0.193865  0  2.775137  0
Cu  Cu13  1  0.12480505  0.97087823  0.29702736  1  0.47862  0  0.365087  0.193816  0  2.775168  0
Cu  Cu14  1  0.97087498  0.12479968  0.79702947  1  0.478313  0  0.365076  0.193789  0  2.775204  0
Cu  Cu15  1  0.87519685  0.02912093  0.70297016  1  0.479367  0  0.365075  0.19379  0  2.775161  0
Cu  Cu16  1  0.09789034  0.14517302  0.21461700  1  0.469006  0  0.361398  0.185569  0  2.802306  0
Cu  Cu17  1  0.85482332  0.90211062  0.28538097  1  0.468971  0  0.36136  0.185525  0  2.802381  0
Cu  Cu18  1  0.90211065  0.85482837  0.78538250  1  0.468972  0  0.361394  0.185584  0  2.802337  0
Cu  Cu19  1  0.14517056  0.09788672  0.71461923  1  0.468985  0  0.36141  0.185676  0  2.802263  0
H  H20  1  0.44163015  0.51424565  0.15270516  1  0.403888  0  0.306078  0.291529  0  0.919308  0
H  H21  1  0.48575239  0.55836794  0.34729392  1  0.403894  0  0.306048  0.291545  0  0.919257  0
H  H22  1  0.55836998  0.48575208  0.84729299  1  0.403874  0  0.306035  0.2915  0  0.919276  0
H  H23  1  0.51425130  0.44163096  0.65270752  1  0.4039  0  0.306062  0.291555  0  0.919198  0
H  H24  1  0.36985362  0.57784931  0.11292851  1  0.478586  0  0.296844  0.294074  0  0.9551  0
H  H25  1  0.42215284  0.63015045  0.38707060  1  0.47857  0  0.296917  0.294217  0  0.954956  0
H  H26  1  0.63014651  0.42214841  0.88707041  1  0.478601  0  0.29692  0.294188  0  0.955026  0
H  H27  1  0.57785081  0.36985350  0.61292912  1  0.478603  0  0.296927  0.294194  0  0.954981  0
H  H28  1  0.14758816  0.74877356  0.12831089  1  0.124228  0  0.117904  0.094298  0  0.981804  0
H  H29  1  0.25122544  0.85241890  0.37169170  1  0.12417  0  0.117892  0.094261  0  0.981789  0
H  H30  1  0.85241553  0.25122535  0.87168823  1  0.124141  0  0.117899  0.094298  0  0.981786  0
H  H31  1  0.74877733  0.14758391  0.62831025  1  0.124151  0  0.117904  0.094313  0  0.981815  0
H  H32  1  0.67448223  0.73502000  0.06586257  1  0.459605  0  0.287137  0.28263  0  0.979791  0
H  H33  1  0.26497942  0.32552028  0.43413597  1  0.459502  0  0.287143  0.282641  0  0.979782  0
H  H34  1  0.32551878  0.26497887  0.93413605  1  0.459497  0  0.287139  0.282656  0  0.979783  0
H  H35  1  0.73502157  0.67448194  0.56586433  1  0.459502  0  0.287123  0.282612  0  0.979816  0
H  H36  1  0.75339521  0.65322862  0.08611436  1  0.413404  0  0.302837  0.290792  0  0.923015  0
H  H37  1  0.34676735  0.24660354  0.41388620  1  0.413445  0  0.30283  0.290751  0  0.923067  0
H  H38  1  0.24660402  0.34676881  0.91388606  1  0.413384  0  0.302809  0.290745  0  0.92308  0
H  H39  1  0.65323632  0.75339872  0.58611460  1  0.413443  0  0.302815  0.290765  0  0.923044  0
H  H40  1  0.71160956  0.13552132  0.12912765  1  0.123303  0  0.120037  0.096891  0  0.984642  0
H  H41  1  0.86447828  0.28838586  0.37087254  1  0.123277  0  0.120056  0.096928  0  0.984617  0
H  H42  1  0.28839234  0.86447868  0.87087144  1  0.123292  0  0.120041  0.096888  0  0.984619  0
H  H43  1  0.13552184  0.71161270  0.62912758  1  0.123286  0  0.120029  0.096868  0  0.984649  0
H  H44  1  0.17893110  0.02104995  0.00109588  1  0.108777  0  0.114991  0.121987  0  0.977468  0
H  H45  1  0.97895130  0.82106866  0.49890146  1  0.108851  0  0.115024  0.122019  0  0.977468  0
H  H46  1  0.82106724  0.97894803  0.99890375  1  0.108794  0  0.114986  0.121966  0  0.977494  0
H  H47  1  0.02104973  0.17892768  0.50109783  1  0.108871  0  0.115034  0.122055  0  0.977419  0
H  H48  1  0.00610735  0.89073007  0.04075502  1  0.087817  0  0.106768  0.123521  0  0.98617  0
H  H49  1  0.10927388  0.99389024  0.45924159  1  0.087874  0  0.106793  0.123579  0  0.986186  0
H  H50  1  0.99388919  0.10927152  0.95924547  1  0.087839  0  0.106782  0.123531  0  0.986218  0
H  H51  1  0.89072983  0.00610447  0.54075697  1  0.087839  0  0.106779  0.123568  0  0.986228  0
H  H52  1  0.44106214  0.14289972  0.18932556  1  0.088619  0  0.106112  0.122656  0  0.987428  0
H  H53  1  0.85710022  0.55894414  0.31067316  1  0.088665  0  0.106121  0.122687  0  0.987333  0
H  H54  1  0.55893706  0.85710444  0.81067011  1  0.088621  0  0.10612  0.122706  0  0.987326  0
H  H55  1  0.14290075  0.44105976  0.68932876  1  0.088598  0  0.106136  0.122683  0  0.987373  0
H  H56  1  0.47651636  0.01881909  0.11242228  1  0.144684  0  0.113396  0.121888  0  0.995962  0
H  H57  1  0.98117497  0.52348935  0.38757772  1  0.144633  0  0.113353  0.12186  0  0.996033  0
H  H58  1  0.52348287  0.98117919  0.88757469  1  0.14465  0  0.113377  0.121908  0  0.995921  0
H  H59  1  0.01882065  0.47651531  0.61242402  1  0.144679  0  0.113382  0.121936  0  0.995952  0
H  H60  1  0.97827603  0.49182552  0.24066589  1  0.112223  0  0.100507  0.119559  0  1.014102  0
H  H61  1  0.50817072  0.02172412  0.25933552  1  0.112199  0  0.100528  0.119517  0  1.01416  0
H  H62  1  0.02171874  0.50817212  0.75933629  1  0.112248  0  0.100538  0.119519  0  1.014088  0
H  H63  1  0.49182670  0.97827860  0.74066428  1  0.112288  0  0.100548  0.119545  0  1.014093  0
H  H64  1  0.23988714  0.28253360  0.13530143  1  0.139505  0  0.116029  0.08949  0  0.986351  0
H  H65  1  0.71746758  0.76011117  0.36469586  1  0.139349  0  0.116011  0.08946  0  0.986406  0
H  H66  1  0.76010761  0.71746993  0.86469674  1  0.139372  0  0.116002  0.089479  0  0.986377  0
H  H67  1  0.28252896  0.23988958  0.63530498  1  0.139492  0  0.115988  0.089432  0  0.98639  0
H  H68  1  0.81071716  0.51139992  0.18065753  1  0.086332  0  0.099201  0.102049  0  1.033601  0
H  H69  1  0.48859923  0.18928383  0.31934365  1  0.086369  0  0.099194  0.102016  0  1.033619  0
H  H70  1  0.18927849  0.48860054  0.81934326  1  0.086366  0  0.099174  0.101998  0  1.033622  0
H  H71  1  0.51139907  0.81072171  0.68065475  1  0.086366  0  0.099179  0.101996  0  1.033654  0
H  H72  1  0.72022085  0.79185048  0.15826909  1  0.04386  0  0.082826  0.080662  0  1.03948  0
H  H73  1  0.20814962  0.27978120  0.34173140  1  0.043874  0  0.082814  0.08066  0  1.039481  0
H  H74  1  0.27977659  0.20814888  0.84172979  1  0.043839  0  0.082798  0.080628  0  1.039521  0
H  H75  1  0.79185314  0.72022245  0.65826982  1  0.043809  0  0.082828  0.080669  0  1.039539  0
H  H76  1  0.68781084  0.63916119  0.16682180  1  0.036353  0  0.099662  0.084307  0  0.993135  0
H  H77  1  0.36083786  0.31219041  0.33317783  1  0.036399  0  0.09967  0.084306  0  0.993144  0
H  H78  1  0.31218838  0.36083876  0.83317756  1  0.036342  0  0.099654  0.084308  0  0.993132  0
H  H79  1  0.63916491  0.68781324  0.66682261  1  0.036393  0  0.099651  0.084275  0  0.99312  0
H  H80  1  0.52439026  0.71700350  0.18967760  1  0.058713  0  0.095548  0.071926  0  0.985903  0
H  H81  1  0.28299492  0.47561109  0.31032318  1  0.058729  0  0.095576  0.07194  0  0.985933  0
H  H82  1  0.47560719  0.28299503  0.81032202  1  0.058689  0  0.095577  0.071904  0  0.985925  0
H  H83  1  0.71700696  0.52439227  0.68967721  1  0.05871  0  0.095564  0.071884  0  0.985952  0
H  H84  1  0.51050815  0.75889958  0.12622615  1  0.057818  0  0.107098  0.084765  0  1.001625  0
H  H85  1  0.24110169  0.48949223  0.37377586  1  0.057772  0  0.107114  0.084806  0  1.001618  0
H  H86  1  0.48949018  0.24110007  0.87377355  1  0.057817  0  0.107107  0.084749  0  1.001642  0
H  H87  1  0.75890019  0.51051029  0.62622488  1  0.05778  0  0.107159  0.084801  0  1.00165  0
H  H88  1  0.34508974  0.54495434  0.01235622  1  0.639825  0  0.298946  0.390541  0  0.913669  0
H  H89  1  0.45504220  0.65491344  0.48764456  1  0.639809  0  0.298918  0.390497  0  0.913703  0
H  H90  1  0.65491485  0.45504234  0.98764208  1  0.639762  0  0.298891  0.390427  0  0.913735  0
H  H91  1  0.54495165  0.34508810  0.51235890  1  0.639777  0  0.298939  0.390493  0  0.913691  0
C  C92  1  0.31689530  0.87174397  0.11655089  1  -0.00672  0  -0.024399  -0.094477  0  3.989692  0
C  C93  1  0.12825447  0.68311000  0.38345199  1  -0.006645  0  -0.02441  -0.094439  0  3.989645  0
C  C94  1  0.68310661  0.12825351  0.88345042  1  -0.006707  0  -0.024374  -0.094501  0  3.989724  0
C  C95  1  0.87174649  0.31689558  0.61655116  1  -0.006575  0  -0.024363  -0.094322  0  3.98951  0
C  C96  1  0.74854288  0.32456699  0.14963637  1  0.013713  0  -0.027142  -0.102564  0  3.99626  0
C  C97  1  0.67543346  0.25145456  0.35036355  1  0.013564  0  -0.02715  -0.102582  0  3.996274  0
C  C98  1  0.25145634  0.67543297  0.85036339  1  0.013722  0  -0.027141  -0.102563  0  3.996347  0
C  C99  1  0.32456666  0.74854401  0.64963618  1  0.013695  0  -0.027158  -0.102689  0  3.996318  0
C  C100  1  0.21890004  0.16382662  0.06440159  1  -0.009203  0  -0.028646  -0.11166  0  4.011242  0
C  C101  1  0.83617272  0.78110507  0.43559783  1  -0.00884  0  -0.028586  -0.111552  0  4.011261  0
C  C102  1  0.78110367  0.83616808  0.93559968  1  -0.009286  0  -0.028704  -0.11179  0  4.011318  0
C  C103  1  0.16382918  0.21889409  0.56440238  1  -0.008846  0  -0.028594  -0.111621  0  4.01116  0
C  C104  1  0.21480901  0.83521228  0.14145034  1  0.456136  0  0.047441  0.084481  0  3.909131  0
C  C105  1  0.16478708  0.78519655  0.35855220  1  0.456132  0  0.047393  0.084501  0  3.909053  0
C  C106  1  0.78519290  0.16478519  0.85855020  1  0.456262  0  0.047418  0.084509  0  3.909072  0
C  C107  1  0.83521391  0.21480566  0.64145081  1  0.456461  0  0.047395  0.084373  0  3.908938  0
C  C108  1  0.76806935  0.21616231  0.15372284  1  0.484392  0  0.050849  0.091941  0  3.892444  0
C  C109  1  0.78383685  0.23192838  0.34627665  1  0.484477  0  0.050808  0.091879  0  3.892617  0
C  C110  1  0.23193164  0.78383908  0.84627627  1  0.484406  0  0.05087  0.092009  0  3.892493  0
C  C111  1  0.21616149  0.76806959  0.65372376  1  0.484438  0  0.050814  0.091992  0  3.892495  0
C  C112  1  0.27573587  0.01027011  0.19922830  1  0.347999  0  0.101996  0.250143  0  3.982718  0
C  C113  1  0.98973266  0.72426796  0.30077082  1  0.347595  0  0.102013  0.250284  0  3.982843  0
C  C114  1  0.72426335  0.98973069  0.80076801  1  0.347484  0  0.102047  0.250288  0  3.982624  0
C  C115  1  0.01026921  0.27573539  0.69923150  1  0.347553  0  0.102035  0.250295  0  3.982595  0
C  C116  1  0.15426928  0.05027536  0.03828027  1  -0.00423  0  -0.063645  -0.03689  0  3.959514  0
C  C117  1  0.94972400  0.84573472  0.46171872  1  -0.004174  0  -0.063695  -0.036908  0  3.959523  0
C  C118  1  0.84573175  0.94972099  0.96172019  1  -0.004178  0  -0.063685  -0.036895  0  3.95953  0
C  C119  1  0.05027702  0.15426246  0.53828176  1  -0.004795  0  -0.063731  -0.037  0  3.95955  0
C  C120  1  0.06012455  0.97824975  0.06033149  1  -0.02935  0  -0.092208  -0.171125  0  3.966689  0
C  C121  1  0.02175073  0.93987930  0.43966755  1  -0.029488  0  -0.092162  -0.171126  0  3.966654  0
C  C122  1  0.93987556  0.02175050  0.93966870  1  -0.029373  0  -0.092182  -0.17111  0  3.966633  0
C  C123  1  0.97824851  0.06011813  0.56033364  1  -0.028188  0  -0.092144  -0.171066  0  3.966838  0
C  C124  1  0.37864318  0.05476850  0.17484068  1  -0.032345  0  -0.093892  -0.172113  0  3.969021  0
C  C125  1  0.94523525  0.62136272  0.32515935  1  -0.032328  0  -0.094007  -0.1723  0  3.9691  0
C  C126  1  0.62135424  0.94523507  0.82515683  1  -0.032128  0  -0.094047  -0.172343  0  3.968948  0
C  C127  1  0.05476661  0.37864232  0.67484382  1  -0.032243  0  -0.094041  -0.172291  0  3.969003  0
C  C128  1  0.39868695  0.98601413  0.13283595  1  -0.025161  0  -0.06496  -0.039958  0  3.939269  0
C  C129  1  0.01398524  0.60132028  0.36716666  1  -0.02498  0  -0.064872  -0.039871  0  3.939333  0
C  C130  1  0.60131405  0.01398725  0.86716316  1  -0.025233  0  -0.064928  -0.0399  0  3.939233  0
C  C131  1  0.98601483  0.39868668  0.63283728  1  -0.025216  0  -0.064877  -0.039938  0  3.939276  0
C  C132  1  0.91660696  0.41486634  0.21572661  1  -0.059706  0  -0.094773  -0.16744  0  3.947644  0
C  C133  1  0.58512965  0.08339161  0.28427433  1  -0.059889  0  -0.094769  -0.167393  0  3.947675  0
C  C134  1  0.08338780  0.58513298  0.78427525  1  -0.060115  0  -0.094768  -0.167384  0  3.947488  0
C  C135  1  0.41486777  0.91661112  0.71572508  1  -0.06003  0  -0.094806  -0.167485  0  3.947572  0
C  C136  1  0.32238625  0.24469716  0.04342409  1  1.563862  0  0.210036  0.587062  0  4.215645  0
C  C137  1  0.75530318  0.67761635  0.45657488  1  1.563545  0  0.209967  0.586927  0  4.215711  0
C  C138  1  0.67761568  0.75529696  0.95657553  1  1.563875  0  0.210051  0.587087  0  4.215505  0
C  C139  1  0.24469783  0.32238250  0.54342645  1  1.5635  0  0.209935  0.586859  0  4.21583  0
C  C140  1  0.18891729  0.19672967  0.11307531  1  0.445545  0  0.050122  0.094432  0  3.909454  0
C  C141  1  0.80326961  0.81108608  0.38692326  1  0.445706  0  0.050096  0.094369  0  3.909529  0
C  C142  1  0.81108371  0.80327087  0.88692493  1  0.44569  0  0.050145  0.094458  0  3.909436  0
C  C143  1  0.19672871  0.18891526  0.61307767  1  0.445552  0  0.050148  0.09452  0  3.909277  0
C  C144  1  0.33815987  0.78979678  0.07413827  1  1.566825  0  0.198002  0.567117  0  4.269529  0
C  C145  1  0.21020512  0.66184131  0.42586304  1  1.567283  0  0.197938  0.566962  0  4.269754  0
C  C146  1  0.66184116  0.21019872  0.92586292  1  1.567388  0  0.197956  0.566973  0  4.269836  0
C  C147  1  0.78979856  0.33815759  0.57414034  1  1.566702  0  0.197903  0.566917  0  4.269683  0
C  C148  1  0.03453147  0.01800372  0.10928564  1  0.376172  0  0.104147  0.256605  0  3.980332  0
C  C149  1  0.98199767  0.96547125  0.39071299  1  0.376184  0  0.104059  0.256441  0  3.980409  0
C  C150  1  0.96546863  0.98199820  0.89071423  1  0.376232  0  0.104184  0.256677  0  3.980293  0
C  C151  1  0.01800156  0.03452703  0.60928746  1  0.375639  0  0.104116  0.256495  0  3.980455  0
C  C152  1  0.65458936  0.33443784  0.10989346  1  1.56162  0  0.211374  0.592202  0  4.217039  0
C  C153  1  0.66555978  0.34540931  0.39010833  1  1.561572  0  0.211503  0.592365  0  4.216687  0
C  C154  1  0.34541342  0.66556330  0.89010610  1  1.56174  0  0.211327  0.592056  0  4.217106  0
C  C155  1  0.33443589  0.65458694  0.60989345  1  1.561675  0  0.211384  0.592261  0  4.216863  0
C  C156  1  0.82402339  0.42538839  0.18233705  1  -0.042966  0  -0.071702  -0.043117  0  3.960764  0
C  C157  1  0.57461193  0.17597583  0.31766449  1  -0.042847  0  -0.071701  -0.043084  0  3.960823  0
C  C158  1  0.17597136  0.57461176  0.81766446  1  -0.042771  0  -0.071648  -0.043026  0  3.960783  0
C  C159  1  0.42538816  0.82402694  0.68233503  1  -0.042775  0  -0.071633  -0.042959  0  3.96083  0
C  C160  1  0.93121747  0.30277817  0.21741892  1  0.399853  0  0.106352  0.25901  0  3.974905  0
C  C161  1  0.69721695  0.06878083  0.28258120  1  0.39982  0  0.106419  0.259163  0  3.974606  0
C  C162  1  0.06877906  0.69722342  0.78258156  1  0.399989  0  0.106365  0.259086  0  3.974745  0
C  C163  1  0.30277871  0.93121878  0.71741917  1  0.399945  0  0.10637  0.259125  0  3.974691  0
C  C164  1  0.66170955  0.70121365  0.14332208  1  0.29418  0  -0.08256  -0.006602  0  3.883683  0
C  C165  1  0.29878495  0.33829362  0.35667878  1  0.294207  0  -0.082565  -0.00666  0  3.883692  0
C  C166  1  0.33828967  0.29878630  0.85667845  1  0.294255  0  -0.082554  -0.006618  0  3.883692  0
C  C167  1  0.70121692  0.66171058  0.64332125  1  0.294204  0  -0.08256  -0.006655  0  3.883785  0
C  C168  1  0.53327663  0.69329486  0.14851704  1  0.27155  0  -0.076011  -0.001679  0  3.911968  0
C  C169  1  0.30670278  0.46672553  0.35148336  1  0.271515  0  -0.076173  -0.001848  0  3.912115  0
C  C170  1  0.46672262  0.30670173  0.85148181  1  0.271498  0  -0.076039  -0.001609  0  3.91194  0
C  C171  1  0.69329910  0.53327615  0.64851735  1  0.271525  0  -0.076142  -0.001636  0  3.912048  0
S  S172  1  0.91949043  0.92731213  0.13899622  1  -0.30331  0  -0.254052  -0.336366  0  3.186143  0
S  S173  1  0.07268660  0.08051298  0.36100195  1  -0.303622  0  -0.254057  -0.336379  0  3.186211  0
S  S174  1  0.08051145  0.07269038  0.86100453  1  -0.303278  0  -0.254077  -0.336398  0  3.186134  0
S  S175  1  0.92731086  0.91948303  0.63899679  1  -0.303523  0  -0.254069  -0.336359  0  3.186215  0
S  S176  1  0.04849878  0.28730079  0.25856677  1  -0.285548  0  -0.253256  -0.326133  0  3.124111  0
S  S177  1  0.71269031  0.95149579  0.24143226  1  -0.285592  0  -0.253268  -0.326203  0  3.124047  0
S  S178  1  0.95149689  0.71269630  0.74143349  1  -0.285594  0  -0.253258  -0.326164  0  3.124037  0
S  S179  1  0.28730712  0.04850357  0.75856817  1  -0.28562  0  -0.253253  -0.326207  0  3.123984  0
S  S180  1  0.24880841  0.09452532  0.25282961  1  -0.300086  0  -0.257105  -0.339723  0  3.20181  0
S  S181  1  0.90548450  0.75119977  0.24716921  1  -0.300018  0  -0.257119  -0.339794  0  3.202018  0
S  S182  1  0.75119348  0.90547636  0.74716839  1  -0.300001  0  -0.257078  -0.339732  0  3.201875  0
S  S183  1  0.09452005  0.24880278  0.75283203  1  -0.299942  0  -0.257075  -0.339764  0  3.2019  0
N  N184  1  0.19246973  0.90298593  0.18107731  1  -1.222303  0  -0.368146  -0.237818  0  3.612092  0
N  N185  1  0.09701595  0.80753545  0.31892222  1  -1.222148  0  -0.36804  -0.237835  0  3.612015  0
N  N186  1  0.80753128  0.09701378  0.81892096  1  -1.222011  0  -0.3681  -0.237869  0  3.611983  0
N  N187  1  0.90298683  0.19246568  0.68107889  1  -1.222078  0  -0.36808  -0.23782  0  3.611986  0
N  N188  1  0.45195053  0.57422546  0.12626183  1  -1.14717  0  -0.621625  -0.568719  0  3.370335  0
N  N189  1  0.42577475  0.54805073  0.37373863  1  -1.147155  0  -0.621574  -0.568782  0  3.370187  0
N  N190  1  0.54804960  0.42577227  0.87373710  1  -1.147021  0  -0.621652  -0.568829  0  3.370266  0
N  N191  1  0.57422803  0.45195124  0.62626251  1  -1.14715  0  -0.621662  -0.568895  0  3.370202  0
N  N192  1  0.85523883  0.20441598  0.18724907  1  -1.223062  0  -0.361231  -0.224923  0  3.593055  0
N  N193  1  0.79557895  0.14475823  0.31275022  1  -1.223038  0  -0.361253  -0.225004  0  3.593107  0
N  N194  1  0.14476129  0.79558343  0.81275070  1  -1.223006  0  -0.361268  -0.225023  0  3.593179  0
N  N195  1  0.20441671  0.85523971  0.68724969  1  -1.223082  0  -0.361227  -0.224982  0  3.593111  0
N  N196  1  0.10163013  0.12524650  0.13595946  1  -1.226299  0  -0.3642  -0.233441  0  3.585984  0
N  N197  1  0.87475543  0.89837177  0.36403917  1  -1.226352  0  -0.364213  -0.233357  0  3.585931  0
N  N198  1  0.89836996  0.87475795  0.86403974  1  -1.22629  0  -0.364222  -0.233471  0  3.585969  0
N  N199  1  0.12524379  0.10162734  0.63596210  1  -1.226399  0  -0.364258  -0.233526  0  3.585898  0
N  N200  1  0.67397982  0.66783374  0.08820972  1  -1.140148  0  -0.622082  -0.573206  0  3.358117  0
N  N201  1  0.33216439  0.32602028  0.41179060  1  -1.140123  0  -0.622028  -0.573076  0  3.358068  0
N  N202  1  0.32601853  0.33216340  0.91178988  1  -1.140039  0  -0.622045  -0.573166  0  3.358154  0
N  N203  1  0.66783837  0.67398337  0.58821061  1  -1.140107  0  -0.622013  -0.573094  0  3.35819  0
O  O204  1  0.42741791  0.56930287  0.00471747  1  -1.263642  0  -0.563969  -0.858451  0  2.300293  0
O  O205  1  0.43069413  0.57258480  0.49528253  1  -1.263509  0  -0.563947  -0.858378  0  2.300319  0
O  O206  1  0.57258579  0.43069520  0.99527969  1  -1.263539  0  -0.563941  -0.85832  0  2.300329  0
O  O207  1  0.56930507  0.42741682  0.50472000  1  -1.263635  0  -0.563972  -0.858409  0  2.300323  0
O  O208  1  0.62938503  0.43011474  0.11358299  1  -1.186714  0  -0.31787  -0.565718  0  2.318873  0
O  O209  1  0.56988289  0.37061424  0.38641767  1  -1.186733  0  -0.317924  -0.565809  0  2.318762  0
O  O210  1  0.37061153  0.56988265  0.88641732  1  -1.186721  0  -0.317892  -0.56568  0  2.318869  0
O  O211  1  0.43011542  0.62938794  0.61358369  1  -1.186702  0  -0.317886  -0.565725  0  2.318759  0
O  O212  1  0.60894139  0.24490324  0.07436152  1  -1.173709  0  -0.325123  -0.56426  0  2.314474  0
O  O213  1  0.75509328  0.39105519  0.42563975  1  -1.173462  0  -0.325201  -0.564296  0  2.314403  0
O  O214  1  0.39106852  0.75510026  0.92563534  1  -1.173844  0  -0.325073  -0.564173  0  2.314528  0
O  O215  1  0.24489976  0.60893261  0.57436350  1  -1.173801  0  -0.325089  -0.564231  0  2.314439  0
O  O216  1  0.27679380  0.68159259  0.06660415  1  -1.186772  0  -0.343477  -0.578598  0  2.081432  0
O  O217  1  0.31840628  0.72320886  0.43339748  1  -1.186788  0  -0.343447  -0.578534  0  2.081516  0
O  O218  1  0.72320633  0.31840430  0.93339475  1  -1.187184  0  -0.343479  -0.578568  0  2.081424  0
O  O219  1  0.68159472  0.27679084  0.56660504  1  -1.186727  0  -0.34347  -0.578517  0  2.081416  0
O  O220  1  0.36017224  0.19814886  0.00435071  1  -1.17502  0  -0.328745  -0.566302  0  2.302373  0
O  O221  1  0.80185228  0.63982902  0.49564746  1  -1.175016  0  -0.328687  -0.566212  0  2.302392  0
O  O222  1  0.63982791  0.80184467  0.99564765  1  -1.174902  0  -0.328714  -0.566205  0  2.302418  0
O  O223  1  0.19814786  0.36016618  0.50435329  1  -1.174943  0  -0.328696  -0.566208  0  2.3024  0
O  O224  1  0.36737695  0.35073594  0.06518957  1  -1.191726  0  -0.315514  -0.563029  0  2.293109  0
O  O225  1  0.64926438  0.63262297  0.43480852  1  -1.19176  0  -0.315515  -0.563017  0  2.293058  0
O  O226  1  0.63262140  0.64926036  0.93480845  1  -1.191887  0  -0.315513  -0.56306  0  2.293057  0
O  O227  1  0.35073393  0.36737921  0.56519283  1  -1.191813  0  -0.31549  -0.562941  0  2.293137  0
O  O228  1  0.42599169  0.84118644  0.04884580  1  -1.155651  0  -0.336791  -0.562664  0  2.299921  0
O  O229  1  0.15881806  0.57400490  0.45115078  1  -1.15609  0  -0.336729  -0.562588  0  2.300016  0
O  O230  1  0.57401021  0.15881356  0.95115329  1  -1.155738  0  -0.336739  -0.562547  0  2.300192  0
O  O231  1  0.84118652  0.42599514  0.54884881  1  -1.155764  0  -0.336707  -0.562585  0  2.299991  0
