# generated using pymatgen
data_Zn2H13C24N8ClO
_symmetry_space_group_name_H-M   'P 1'
_cell_length_a   15.69695373
_cell_length_b   15.85910552
_cell_length_c   17.49928256
_cell_angle_alpha   102.91350213
_cell_angle_beta   107.99806754
_cell_angle_gamma   112.70897816
_symmetry_Int_Tables_number   1
_chemical_formula_structural   Zn2H13C24N8ClO
_chemical_formula_sum   'Zn4 H26 C48 N16 Cl2 O2'
_cell_volume   3518.16621032
_cell_formula_units_Z   2
loop_
 _symmetry_equiv_pos_site_id
 _symmetry_equiv_pos_as_xyz
  1  'x, y, z'
loop_
 _atom_site_type_symbol
 _atom_site_label
 _atom_site_symmetry_multiplicity
 _atom_site_fract_x
 _atom_site_fract_y
 _atom_site_fract_z
 _atom_site_occupancy
 _atom_site_pbe_bader_charge
 _atom_site_pbe_bader_spin_density
 _atom_site_pbe_cm5_charge
 _atom_site_pbe_ddec_charge
 _atom_site_pbe_ddec_spin_density
 _atom_site_pbe_ddec_sum_bond_order
 _atom_site_pbe_magmom
Zn  Zn0  1  0.87001415  0.86883511  0.49412274  1  1.192824  0  0.747633  0.616979  0  2.442415  0
Zn  Zn1  1  0.13584343  0.13754821  0.49761591  1  1.192498  0  0.746915  0.612071  0  2.44834  0
Zn  Zn2  1  0.12285990  0.99792015  0.61124951  1  1.205653  0  0.74644  0.653234  0  2.407478  0
Zn  Zn3  1  0.88272066  0.00669268  0.38042243  1  1.196428  0  0.744066  0.622852  0  2.45155  0
H  H4  1  0.80652222  0.76860299  0.63365651  1  0.095197  0  0.124252  0.116085  0  0.984857  0
H  H5  1  0.89186171  0.77330476  0.96575854  1  0.082198  0  0.110659  0.134267  0  0.983852  0
H  H6  1  0.17737891  0.34830461  0.46233535  1  0.097862  0  0.12629  0.117709  0  0.97992  0
H  H7  1  0.12333472  0.13665363  0.77702466  1  0.115708  0  0.121303  0.113085  0  1.00084  0
H  H8  1  0.82528805  0.16000254  0.48136587  1  0.112671  0  0.119091  0.111926  0  1.006047  0
H  H9  1  0.13861288  0.32245026  0.62787000  1  0.104398  0  0.121859  0.112135  0  0.994643  0
H  H10  1  0.81324910  0.97922739  0.63512061  1  0.105774  0  0.124774  0.116356  0  0.990693  0
H  H11  1  0.64016222  0.66799348  0.35229433  1  0.079349  0  0.124575  0.114963  0  0.9863  0
H  H12  1  0.22107993  0.74829954  0.45573948  1  0.047572  0  0.106956  0.071405  0  0.95838  0
H  H13  1  0.18949312  0.71190624  0.53694842  1  0.052069  0  0.105525  0.072063  0  0.965394  0
H  H14  1  0.35723047  0.85709868  0.65475003  1  0.031258  0  0.093148  0.12446  0  0.996038  0
H  H15  1  0.38161529  0.21821288  0.53006662  1  0.096563  0  0.123653  0.113684  0  0.985473  0
H  H16  1  0.37820776  0.77982188  0.58048776  1  0.04005  0  0.098058  0.131458  0  0.988477  0
H  H17  1  0.38993128  0.89399274  0.57398443  1  0.036549  0  0.096435  0.13405  0  0.995817  0
H  H18  1  0.24532315  0.88711932  0.13723853  1  0.042558  0  0.099357  0.060487  0  0.966771  0
H  H19  1  0.24257127  0.99964611  0.14235811  1  0.052564  0  0.09881  0.059281  0  0.966883  0
H  H20  1  0.31558115  0.01050872  0.03305654  1  0.043958  0  0.089384  0.124186  0  1.004197  0
H  H21  1  0.39905972  0.00648080  0.12648059  1  0.018368  0  0.093137  0.124325  0  0.997534  0
H  H22  1  0.31850189  0.89827753  0.02771844  1  0.040069  0  0.094355  0.129078  0  0.99123  0
H  H23  1  0.87144891  0.85244515  0.21628305  1  0.104536  0  0.125374  0.11619  0  0.988573  0
H  H24  1  0.20244716  0.01712016  0.37266751  1  0.083666  0  0.122968  0.114307  0  0.994838  0
H  H25  1  0.84909355  0.68510583  0.35261331  1  0.108345  0  0.123071  0.114092  0  0.989535  0
H  H26  1  0.65576561  0.85275625  0.20267931  1  0.100572  0  0.124679  0.114861  0  0.98894  0
H  H27  1  0.36200452  0.03779801  0.68356450  1  0.123152  0  0.124446  0.112621  0  0.995747  0
H  H28  1  0.32895285  0.42633144  0.04120412  1  0.079207  0  0.112561  0.117804  0  0.965513  0
H  H29  1  0.33016302  0.57785314  0.95673435  1  0.084796  0  0.111825  0.115107  0  0.966997  0
C  C30  1  0.88881611  0.81635062  0.65921428  1  0.421071  0  0.013779  -0.050363  0  3.969508  0
C  C31  1  0.92840111  0.73680247  0.39987961  1  0.45355  0  0.021053  -0.020804  0  3.955749  0
C  C32  1  0.66820791  0.82085499  0.25113965  1  0.447341  0  0.016564  -0.050566  0  3.958475  0
C  C33  1  0.09686181  0.29161271  0.42856031  1  0.435414  0  0.021047  -0.038416  0  3.960723  0
C  C34  1  0.35023486  0.08007534  0.64440197  1  0.453587  0  0.024157  -0.030279  0  3.953332  0
C  C35  1  0.60570165  0.72579890  0.24633985  1  0.141217  0  -0.030128  0.044313  0  4.215125  0
C  C36  1  0.41654486  0.13524655  0.61367554  1  0.098597  0  -0.030654  0.028837  0  4.215164  0
C  C37  1  0.01311682  0.71958119  0.42166180  1  0.12388  0  -0.041272  -0.095889  0  4.209018  0
C  C38  1  0.04277596  0.91534740  0.26201084  1  0.148098  0  -0.026361  0.035408  0  4.185843  0
C  C39  1  0.73611101  0.11906653  0.60410899  1  -0.232279  0  -0.033956  -0.072695  0  4.086567  0
C  C40  1  0.67042687  0.13501904  0.61768800  1  0.00717  0  -0.054622  -0.055428  0  4.334859  0
C  C41  1  0.01117399  0.30015392  0.38262636  1  0.169232  0  -0.030077  -0.020247  0  4.21063  0
C  C42  1  0.59036963  0.14349490  0.62409955  1  -0.156559  0  -0.054013  -0.053445  0  4.342806  0
C  C43  1  0.51177470  0.14385161  0.62269411  1  -0.065374  0  -0.038761  -0.084338  0  4.109069  0
C  C44  1  0.00841584  0.38442316  0.37322708  1  -0.15328  0  -0.046462  -0.084534  0  4.131023  0
C  C45  1  0.12225350  0.16816791  0.72790597  1  0.432338  0  0.020681  -0.034588  0  3.913017  0
C  C46  1  0.00669623  0.46084753  0.37181416  1  -0.07594  0  -0.048963  -0.04006  0  4.339156  0
C  C47  1  0.00702371  0.54723981  0.37829020  1  -0.306676  0  -0.056338  -0.069608  0  4.329233  0
C  C48  1  0.01041626  0.62830190  0.39423738  1  0.137862  0  -0.032015  -0.054914  0  4.142094  0
C  C49  1  0.18582435  0.34868902  0.81287752  1  -0.153834  0  -0.050609  -0.102889  0  4.144325  0
C  C50  1  0.30678682  0.50472193  0.96001576  1  0.089119  0  -0.079781  -0.056626  0  4.098192  0
C  C51  1  0.35333276  0.49937579  0.03766362  1  0.082834  0  -0.083549  -0.065642  0  4.104956  0
C  C52  1  0.14384659  0.26572639  0.73581352  1  0.098369  0  -0.025375  0.047103  0  4.181185  0
C  C53  1  0.43586486  0.58081913  0.11218678  1  -0.018852  0  -0.057752  -0.073911  0  4.223063  0
C  C54  1  0.23662127  0.42124055  0.88222325  1  -0.163508  0  -0.057832  -0.078372  0  4.207723  0
C  C55  1  0.51353417  0.64851415  0.17608087  1  -0.390655  0  -0.05903  -0.118716  0  4.172079  0
C  C56  1  0.05334307  0.88024769  0.18624338  1  -0.335734  0  -0.036779  -0.049908  0  4.133464  0
C  C57  1  0.83094134  0.10899809  0.51234915  1  0.442536  0  0.019425  -0.037874  0  3.920204  0
C  C58  1  0.05414246  0.84530387  0.03266717  1  0.539046  0  0.092092  0.27741  0  4.161156  0
C  C59  1  0.96306062  0.80447088  0.95912468  1  0.165966  0  -0.113555  -0.225306  0  4.102893  0
C  C60  1  0.95992041  0.80901684  0.87975776  1  -0.33572  0  -0.052397  -0.018218  0  4.242881  0
C  C61  1  0.05651031  0.85847532  0.11585094  1  0.012872  0  -0.059853  -0.191517  0  4.173975  0
C  C62  1  0.95992467  0.82096430  0.81301224  1  0.036415  0  -0.070987  -0.135509  0  4.182288  0
C  C63  1  0.79724021  0.08801958  0.57538299  1  0.126918  0  -0.023933  0.039148  0  4.19022  0
C  C64  1  0.13028844  0.26344006  0.65159988  1  0.437741  0  0.018493  -0.040592  0  3.92398  0
C  C65  1  0.82432111  0.01610930  0.59090118  1  0.437093  0  0.019235  -0.040343  0  3.922604  0
C  C66  1  0.92825806  0.20371760  0.35368555  1  0.596228  0  0.112948  0.17317  0  4.098083  0
C  C67  1  0.05680914  0.90606934  0.73721506  1  0.609038  0  0.113191  0.171553  0  4.091719  0
C  C68  1  0.96684621  0.84412997  0.74188529  1  0.118544  0  -0.029099  -0.00297  0  4.206571  0
C  C69  1  0.23366764  0.77555568  0.52403177  1  0.406452  0  -0.060079  0.092021  0  3.883999  0
C  C70  1  0.34646715  0.83035043  0.58709443  1  -0.022433  0  -0.239457  -0.396856  0  3.974434  0
C  C71  1  0.23957901  0.93431685  0.10044712  1  0.395611  0  -0.063913  0.086199  0  3.923105  0
C  C72  1  0.32311584  0.96410991  0.07000106  1  -0.03219  0  -0.243296  -0.396998  0  3.989809  0
C  C73  1  0.66015641  0.72634776  0.32764096  1  0.430323  0  0.015756  -0.052897  0  3.963477  0
C  C74  1  0.35987916  0.17173914  0.56530329  1  0.423407  0  0.016074  -0.052685  0  3.966207  0
C  C75  1  0.09577044  0.81301773  0.48746738  1  1.082004  0  0.199749  0.311187  0  4.061529  0
C  C76  1  0.94996332  0.90072436  0.26639749  1  0.440678  0  0.021857  -0.034691  0  3.91983  0
C  C77  1  0.11953975  0.98487676  0.34636509  1  0.440816  0  0.018077  -0.041545  0  3.922541  0
N  N78  1  0.92940311  0.85798529  0.61099503  1  -0.787984  0  -0.26797  -0.162514  0  3.553323  0
N  N79  1  0.10030282  0.11436108  0.64644123  1  -0.800948  0  -0.281029  -0.191834  0  3.631559  0
N  N80  1  0.87200411  0.05225305  0.49152070  1  -0.782359  0  -0.279482  -0.180176  0  3.632754  0
N  N81  1  0.10548929  0.17278321  0.59963998  1  -0.793128  0  -0.281241  -0.185232  0  3.633174  0
N  N82  1  0.86788730  0.99528693  0.53950659  1  -0.792028  0  -0.282023  -0.184636  0  3.633758  0
N  N83  1  0.96156214  0.14431537  0.37993270  1  -0.77927  0  -0.270459  -0.238971  0  3.526047  0
N  N84  1  0.03420723  0.91407586  0.65972398  1  -0.783082  0  -0.273259  -0.244989  0  3.53311  0
N  N85  1  0.74695195  0.81397771  0.37595847  1  -0.786434  0  -0.266638  -0.172677  0  3.548625  0
N  N86  1  0.26816698  0.14029143  0.56715927  1  -0.759339  0  -0.269374  -0.17461  0  3.557417  0
N  N87  1  0.06115321  0.87757190  0.50200026  1  -0.829816  0  -0.289819  -0.290658  0  3.564052  0
N  N88  1  0.97126465  0.95871498  0.34599097  1  -0.793582  0  -0.278858  -0.179383  0  3.646506  0
N  N89  1  0.07500259  0.01045095  0.39505719  1  -0.788773  0  -0.276755  -0.179134  0  3.622744  0
N  N90  1  0.95781800  0.83013761  0.44856681  1  -0.787292  0  -0.287986  -0.186518  0  3.643238  0
N  N91  1  0.75192628  0.87259483  0.32834001  1  -0.807392  0  -0.270431  -0.178205  0  3.556822  0
N  N92  1  0.26229325  0.08314493  0.61617934  1  -0.822416  0  -0.269462  -0.178243  0  3.548513  0
N  N93  1  0.06673757  0.19925875  0.42669189  1  -0.786619  0  -0.265402  -0.159603  0  3.542573  0
Cl  Cl94  1  0.80039310  0.16004740  0.29460697  1  -0.19615  0  0.010682  -0.066964  0  1.466544  0
Cl  Cl95  1  0.18103010  0.96708808  0.81487477  1  -0.19628  0  0.011015  -0.068193  0  1.48065  0
O  O96  1  0.19566345  0.84533055  0.53596829  1  -1.092063  0  -0.173798  -0.215867  0  2.553726  0
O  O97  1  0.14284669  0.87937229  0.02312838  1  -1.039786  0  -0.172586  -0.188823  0  2.510019  0
