# generated using pymatgen
data_Zn4H6C24S4Cl2O17
_symmetry_space_group_name_H-M   'P 1'
_cell_length_a   19.69197840
_cell_length_b   19.70675616
_cell_length_c   33.43880301
_cell_angle_alpha   78.97725973
_cell_angle_beta   79.01909758
_cell_angle_gamma   63.84712503
_symmetry_Int_Tables_number   1
_chemical_formula_structural   Zn4H6C24S4Cl2O17
_chemical_formula_sum   'Zn16 H24 C96 S16 Cl8 O68'
_cell_volume   11349.65890366
_cell_formula_units_Z   4
loop_
 _symmetry_equiv_pos_site_id
 _symmetry_equiv_pos_as_xyz
  1  'x, y, z'
loop_
 _atom_site_type_symbol
 _atom_site_label
 _atom_site_symmetry_multiplicity
 _atom_site_fract_x
 _atom_site_fract_y
 _atom_site_fract_z
 _atom_site_occupancy
 _atom_site_pbe_bader_charge
 _atom_site_pbe_bader_spin_density
 _atom_site_pbe_cm5_charge
 _atom_site_pbe_ddec_charge
 _atom_site_pbe_ddec_spin_density
 _atom_site_pbe_ddec_sum_bond_order
 _atom_site_pbe_magmom
Zn  Zn0  1  0.05726499  0.40021306  0.47865182  1  1.320043  0  0.677695  0.972875  0  2.342289  0
Zn  Zn1  1  0.98375109  0.48326327  0.55943459  1  1.319083  0  0.679001  0.966311  0  2.391145  0
Zn  Zn2  1  0.05844087  0.56152416  0.48258223  1  1.323078  0  0.678559  0.970293  0  2.364986  0
Zn  Zn3  1  0.90062652  0.55467906  0.47934819  1  1.320969  0  0.678427  0.969688  0  2.365331  0
Zn  Zn4  1  0.69343438  0.34961555  0.27098364  1  1.321039  0  0.678202  0.971607  0  2.349356  0
Zn  Zn5  1  0.68932858  0.19007334  0.26757186  1  1.317716  0  0.677883  0.967331  0  2.362407  0
Zn  Zn6  1  0.76873317  0.26563142  0.19019862  1  1.32351  0  0.678181  0.969547  0  2.361188  0
Zn  Zn7  1  0.84732500  0.19417343  0.27208191  1  1.315513  0  0.677707  0.964672  0  2.377346  0
Zn  Zn8  1  0.26734064  0.76787391  0.68979792  1  1.315254  0  0.677421  0.96332  0  2.36826  0
Zn  Zn9  1  0.34861860  0.69547074  0.77092056  1  1.318937  0  0.67855  0.968104  0  2.373582  0
Zn  Zn10  1  0.19285082  0.84907532  0.77159544  1  1.317487  0  0.677804  0.971925  0  2.348276  0
Zn  Zn11  1  0.19171931  0.68871820  0.76723106  1  1.323449  0  0.678241  0.969635  0  2.362683  0
Zn  Zn12  1  0.56022608  0.05986746  0.98249972  1  1.320802  0  0.678157  0.967044  0  2.361758  0
Zn  Zn13  1  0.40127807  0.05610614  0.97871379  1  1.31686  0  0.677668  0.964038  0  2.364911  0
Zn  Zn14  1  0.55614175  0.90120174  0.97872589  1  1.316355  0  0.678207  0.96916  0  2.362726  0
Zn  Zn15  1  0.48280824  0.98226813  0.06003165  1  1.319702  0  0.677774  0.966587  0  2.361384  0
H  H16  1  0.46287859  0.24004434  0.34090197  1  0.144282  0  0.124316  0.150288  0  0.963741  0
H  H17  1  0.47925639  0.70243040  0.60124620  1  0.119296  0  0.124264  0.150627  0  0.964102  0
H  H18  1  0.20242757  0.97926529  0.60145526  1  0.12248  0  0.124205  0.150343  0  0.964654  0
H  H19  1  0.94879179  0.97027953  0.34806287  1  0.149496  0  0.124379  0.150113  0  0.964171  0
H  H20  1  0.54767117  0.77053096  0.14854262  1  0.126609  0  0.124728  0.150869  0  0.963787  0
H  H21  1  0.16259939  0.14126636  0.04036020  1  0.123649  0  0.124296  0.150344  0  0.964293  0
H  H22  1  0.30086899  0.27980520  0.90190805  1  0.143572  0  0.124355  0.149523  0  0.964312  0
H  H23  1  0.78692195  0.01004744  0.90909038  1  0.143739  0  0.124677  0.150734  0  0.963444  0
H  H24  1  0.81013570  0.52706604  0.41858865  1  0.644026  0  0.306958  0.351431  0  0.970091  0
H  H25  1  0.93982823  0.22297540  0.33130064  1  0.642052  0  0.306269  0.350828  0  0.970851  0
H  H26  1  0.72275759  0.44004572  0.33135142  1  0.644447  0  0.307003  0.35119  0  0.969358  0
H  H27  1  0.02722983  0.30993446  0.41860773  1  0.645016  0  0.306876  0.351019  0  0.97024  0
H  H28  1  0.13583553  0.63579287  0.52702995  1  0.655201  0  0.306477  0.350992  0  0.970571  0
H  H29  1  0.11442979  0.61444773  0.72290185  1  0.651075  0  0.306902  0.350738  0  0.970411  0
H  H30  1  0.22302458  0.72299895  0.61439429  1  0.656585  0  0.305725  0.349698  0  0.974272  0
H  H31  1  0.02719555  0.52716077  0.63570620  1  0.625564  0  0.306935  0.351837  0  0.970581  0
H  H32  1  0.72290861  0.22284904  0.11441312  1  0.658781  0  0.306898  0.351296  0  0.970348  0
H  H33  1  0.52697392  0.02710161  0.13556155  1  0.655758  0  0.30672  0.350734  0  0.971661  0
H  H34  1  0.63564691  0.13573563  0.02706930  1  0.653417  0  0.306869  0.350668  0  0.970397  0
H  H35  1  0.61424745  0.11413142  0.22286747  1  0.619075  0  0.306429  0.350669  0  0.971035  0
H  H36  1  0.22273264  0.94012558  0.83142592  1  0.642558  0  0.306985  0.351535  0  0.969059  0
H  H37  1  0.52732482  0.80995677  0.91865845  1  0.645481  0  0.307579  0.35178  0  0.967686  0
H  H38  1  0.31017143  0.02714938  0.91868282  1  0.641579  0  0.306182  0.350306  0  0.971371  0
H  H39  1  0.43990015  0.72301282  0.83146520  1  0.643111  0  0.307384  0.351612  0  0.969012  0
C  C40  1  0.06157871  0.31618853  0.56154599  1  1.595619  0  0.216467  0.62382  0  4.208884  0
C  C41  1  0.06996250  0.57046536  0.56993869  1  1.474141  0  0.226925  0.629523  0  4.117154  0
C  C42  1  0.18383161  0.43931729  0.43878588  1  1.593031  0  0.216213  0.626339  0  4.206032  0
C  C43  1  0.93754612  0.68404633  0.43883658  1  1.568906  0  0.215812  0.622613  0  4.208448  0
C  C44  1  0.93010638  0.42957583  0.43014761  1  1.453464  0  0.227833  0.630578  0  4.116346  0
C  C45  1  0.81628858  0.56114574  0.56175140  1  1.589851  0  0.215374  0.621297  0  4.211358  0
C  C46  1  0.56542986  0.31119388  0.31147793  1  1.563593  0  0.219917  0.613946  0  4.210303  0
C  C47  1  0.68017733  0.17954515  0.18011595  1  1.45111  0  0.227408  0.629898  0  4.115375  0
C  C48  1  0.68910345  0.43345225  0.18838524  1  1.58159  0  0.216897  0.626068  0  4.203201  0
C  C49  1  0.93449832  0.18788073  0.18922973  1  1.543788  0  0.216688  0.624811  0  4.204459  0
C  C50  1  0.81965222  0.32013257  0.32006668  1  1.451635  0  0.227071  0.630271  0  4.11631  0
C  C51  1  0.81140718  0.06553512  0.31164785  1  1.57055  0  0.220509  0.61511  0  4.208597  0
C  C52  1  0.43412721  0.68915903  0.68813310  1  1.550405  0  0.219728  0.613861  0  4.2119  0
C  C53  1  0.31987045  0.82043988  0.81990942  1  1.454611  0  0.227268  0.629902  0  4.116867  0
C  C54  1  0.18881784  0.93425492  0.68832657  1  1.567273  0  0.220649  0.615179  0  4.211715  0
C  C55  1  0.06607953  0.81067956  0.81129706  1  1.60651  0  0.216674  0.626229  0  4.204985  0
C  C56  1  0.18045365  0.67986808  0.67994317  1  1.458384  0  0.226879  0.62999  0  4.115054  0
C  C57  1  0.31234305  0.56596467  0.81122724  1  1.568146  0  0.216252  0.622672  0  4.205741  0
C  C58  1  0.43810391  0.18431038  0.93852115  1  1.541594  0  0.220608  0.614806  0  4.208441  0
C  C59  1  0.43006358  0.93001092  0.93009578  1  1.447915  0  0.226791  0.63108  0  4.116278  0
C  C60  1  0.68437627  0.93884638  0.93856574  1  1.568382  0  0.220019  0.614598  0  4.209185  0
C  C61  1  0.56134801  0.81572691  0.06168495  1  1.566119  0  0.220571  0.614483  0  4.211613  0
C  C62  1  0.57002545  0.06995153  0.06989347  1  1.449651  0  0.227089  0.631145  0  4.112612  0
C  C63  1  0.31550291  0.06161902  0.06126878  1  1.528048  0  0.220871  0.616227  0  4.209715  0
C  C64  1  0.90218171  0.40189571  0.40197500  1  0.003564  0  -0.049431  -0.298643  0  4.02467  0
C  C65  1  0.84792421  0.34810472  0.34788145  1  -0.003937  0  -0.05043  -0.300318  0  4.028245  0
C  C66  1  0.82920158  0.44778974  0.38832627  1  0.592194  0  0.069849  0.197455  0  4.062443  0
C  C67  1  0.92098069  0.30228875  0.36147772  1  0.5874  0  0.069326  0.197155  0  4.06313  0
C  C68  1  0.80228935  0.42105078  0.36148876  1  0.587205  0  0.070011  0.196892  0  4.06385  0
C  C69  1  0.94789469  0.32900165  0.38831699  1  0.591203  0  0.06919  0.195453  0  4.065592  0
C  C70  1  0.09814134  0.59820417  0.59792672  1  0.034768  0  -0.049659  -0.298665  0  4.025856  0
C  C71  1  0.15223084  0.65212673  0.65198324  1  -0.017601  0  -0.05027  -0.301022  0  4.026749  0
C  C72  1  0.14148856  0.64146438  0.58183205  1  0.567673  0  0.069205  0.196289  0  4.06566  0
C  C73  1  0.10885515  0.60886653  0.66808072  1  0.590099  0  0.070468  0.198282  0  4.061071  0
C  C74  1  0.16829193  0.66828873  0.60865924  1  0.618954  0  0.068973  0.196881  0  4.063566  0
C  C75  1  0.08205591  0.58202304  0.64123783  1  0.561611  0  0.070098  0.197856  0  4.063051  0
C  C76  1  0.30449310  0.45488584  0.40103703  1  0.142593  0  0.011003  0.102183  0  4.091297  0
C  C77  1  0.44590756  0.29673423  0.34890849  1  0.036464  0  -0.083577  -0.126268  0  3.947807  0
C  C78  1  0.25842950  0.41571781  0.41393041  1  -0.104923  0  -0.029811  -0.191731  0  3.949255  0
C  C79  1  0.49077245  0.33662874  0.33649621  1  -0.168299  0  -0.022893  -0.119783  0  3.979214  0
C  C80  1  0.37773129  0.33980085  0.37248981  1  -0.159511  0  -0.018627  0.00482  0  4.070339  0
C  C81  1  0.37257464  0.41146195  0.37738102  1  -0.156951  0  -0.027361  -0.085277  0  4.087142  0
C  C82  1  0.72604791  0.57587637  0.62979924  1  0.211787  0  0.011482  0.102438  0  4.090775  0
C  C83  1  0.52406822  0.67361765  0.62117231  1  0.004041  0  -0.083934  -0.127672  0  3.949852  0
C  C84  1  0.74236201  0.58538259  0.58718463  1  -0.141814  0  -0.0301  -0.190433  0  3.951283  0
C  C85  1  0.50915266  0.66367092  0.66353505  1  -0.082484  0  -0.02268  -0.118668  0  3.978316  0
C  C86  1  0.60331504  0.64154113  0.60874102  1  -0.184312  0  -0.018387  0.005227  0  4.071044  0
C  C87  1  0.64659947  0.60800233  0.64204975  1  -0.146548  0  -0.026706  -0.084323  0  4.086942  0
C  C88  1  0.07592981  0.22599712  0.62965846  1  0.218688  0  0.011377  0.101711  0  4.091174  0
C  C89  1  0.17362792  0.02410538  0.62131464  1  0.005861  0  -0.083813  -0.126809  0  3.949725  0
C  C90  1  0.08550244  0.24226364  0.58702842  1  -0.142859  0  -0.0298  -0.189695  0  3.950481  0
C  C91  1  0.16361481  0.00926456  0.66368249  1  -0.084264  0  -0.023102  -0.119682  0  3.978583  0
C  C92  1  0.14160603  0.10328588  0.60877040  1  -0.184609  0  -0.018322  0.004889  0  4.070608  0
C  C93  1  0.10801883  0.14661118  0.64201628  1  -0.149422  0  -0.02705  -0.084171  0  4.086948  0
C  C94  1  0.84312134  0.80066600  0.39713604  1  0.113383  0  0.010911  0.101117  0  4.091476  0
C  C95  1  0.90457527  0.94971869  0.35257250  1  0.053072  0  -0.08365  -0.125024  0  3.945291  0
C  C96  1  0.91171504  0.75836090  0.41374128  1  -0.110025  0  -0.029887  -0.189241  0  3.948255  0
C  C97  1  0.83594017  0.99071023  0.33644802  1  -0.165162  0  -0.022928  -0.120076  0  3.978286  0
C  C98  1  0.90745370  0.88013168  0.37477904  1  -0.166826  0  -0.018233  0.004061  0  4.069231  0
C  C99  1  0.84077924  0.87015320  0.37492196  1  -0.103675  0  -0.027103  -0.083717  0  4.086598  0
C  C100  1  0.65198223  0.15188359  0.15205456  1  0.032073  0  -0.049944  -0.298569  0  4.023594  0
C  C101  1  0.59796225  0.09794639  0.09789366  1  -0.009614  0  -0.050773  -0.301812  0  4.026179  0
C  C102  1  0.66809548  0.16808665  0.10874250  1  0.565807  0  0.070299  0.19717  0  4.063329  0
C  C103  1  0.58179749  0.08184645  0.14120693  1  0.602259  0  0.070111  0.19777  0  4.064267  0
C  C104  1  0.64130204  0.14127358  0.08186753  1  0.590817  0  0.070316  0.19746  0  4.060924  0
C  C105  1  0.60857454  0.10864635  0.16807018  1  0.588765  0  0.069409  0.196045  0  4.06562  0
C  C106  1  0.67411119  0.52380703  0.12027343  1  0.193918  0  0.011532  0.101876  0  4.090143  0
C  C107  1  0.57650832  0.72571419  0.12866857  1  0.004026  0  -0.083026  -0.125422  0  3.946651  0
C  C108  1  0.66468910  0.50744614  0.16289288  1  -0.139624  0  -0.030202  -0.191968  0  3.947259  0
C  C109  1  0.58652059  0.74067008  0.08629331  1  -0.080055  0  -0.023043  -0.120051  0  3.975503  0
C  C110  1  0.60843595  0.64650464  0.14119338  1  -0.184087  0  -0.018095  0.004371  0  4.069495  0
C  C111  1  0.64196513  0.60322812  0.10792278  1  -0.147567  0  -0.026969  -0.083218  0  4.083713  0
C  C112  1  0.08176540  0.12399053  0.17803490  1  0.09472  0  0.011657  0.103  0  4.088523  0
C  C113  1  0.17001962  0.12488470  0.07273883  1  0.089189  0  -0.083509  -0.125662  0  3.946156  0
C  C114  1  0.00965662  0.16282922  0.16493063  1  -0.087364  0  -0.030512  -0.191768  0  3.947233  0
C  C115  1  0.24103261  0.08624504  0.08648281  1  -0.167416  0  -0.023334  -0.121083  0  3.976931  0
C  C116  1  0.11163666  0.13879238  0.10612374  1  -0.159366  0  -0.018094  0.004585  0  4.069635  0
C  C117  1  0.13989355  0.11030151  0.14443736  1  -0.174466  0  -0.026995  -0.084181  0  4.086266  0
C  C118  1  0.34791385  0.84829171  0.84794203  1  0.000485  0  -0.049514  -0.298706  0  4.024238  0
C  C119  1  0.40206277  0.90214676  0.90208319  1  -0.000539  0  -0.050046  -0.301503  0  4.026881  0
C  C120  1  0.30219001  0.92119026  0.86160582  1  0.588537  0  0.069477  0.19649  0  4.064547  0
C  C121  1  0.44778309  0.82920440  0.88845538  1  0.593576  0  0.070042  0.197465  0  4.061156  0
C  C122  1  0.32904188  0.94793377  0.88844733  1  0.589163  0  0.069563  0.197204  0  4.062302  0
C  C123  1  0.42087836  0.80245468  0.86160597  1  0.586548  0  0.070083  0.196901  0  4.063068  0
C  C124  1  0.40681250  0.44918446  0.85285942  1  0.167164  0  0.011582  0.102004  0  4.089843  0
C  C125  1  0.34517033  0.30023916  0.89745030  1  0.102278  0  -0.08389  -0.125018  0  3.946266  0
C  C126  1  0.33817985  0.49154650  0.83626985  1  -0.104415  0  -0.029927  -0.189974  0  3.946712  0
C  C127  1  0.41376809  0.25908521  0.91361336  1  -0.211222  0  -0.023361  -0.121014  0  3.977054  0
C  C128  1  0.34246078  0.36973883  0.87520946  1  -0.175486  0  -0.018267  0.004203  0  4.069919  0
C  C129  1  0.40917587  0.37963681  0.87506523  1  -0.149241  0  -0.027102  -0.084204  0  4.084976  0
C  C130  1  0.94531589  0.79519006  0.84898837  1  0.148343  0  0.011023  0.102018  0  4.090751  0
C  C131  1  0.80388656  0.95332600  0.90113819  1  0.05047  0  -0.083334  -0.125532  0  3.946013  0
C  C132  1  0.99138073  0.83435775  0.83607724  1  -0.110899  0  -0.029655  -0.1917  0  3.94839  0
C  C133  1  0.75909990  0.91336649  0.91362859  1  -0.183131  0  -0.022814  -0.12106  0  3.978983  0
C  C134  1  0.87200894  0.91028490  0.87751750  1  -0.154109  0  -0.018272  0.005236  0  4.06836  0
C  C135  1  0.87720877  0.83858481  0.87265274  1  -0.157839  0  -0.026734  -0.08474  0  4.085064  0
S  S136  1  0.29862722  0.32622810  0.39705079  1  0.300884  0  0.095114  0.149186  0  2.730456  0
S  S137  1  0.45099129  0.42616633  0.35315946  1  0.316387  0  0.096178  0.151685  0  2.759173  0
S  S138  1  0.66065359  0.63332680  0.56244650  1  0.299822  0  0.095296  0.149046  0  2.733269  0
S  S139  1  0.59044135  0.61568222  0.68854126  1  0.296445  0  0.096961  0.152432  0  2.760293  0
S  S140  1  0.13346989  0.16053606  0.56241411  1  0.294275  0  0.094691  0.148045  0  2.731924  0
S  S141  1  0.11560816  0.09056427  0.68857397  1  0.293804  0  0.096318  0.151468  0  2.759442  0
S  S142  1  0.97280764  0.80374889  0.40205752  1  0.292361  0  0.095386  0.149003  0  2.731565  0
S  S143  1  0.77468623  0.94566643  0.34793110  1  0.303747  0  0.095347  0.150251  0  2.762112  0
S  S144  1  0.61664068  0.58917166  0.18753658  1  0.298599  0  0.095962  0.15012  0  2.729578  0
S  S145  1  0.63445228  0.65936684  0.06137840  1  0.291348  0  0.097241  0.152385  0  2.756593  0
S  S146  1  0.01347477  0.18235035  0.11168201  1  0.318681  0  0.095799  0.149825  0  2.729036  0
S  S147  1  0.23771510  0.06653911  0.13964288  1  0.326899  0  0.095747  0.151166  0  2.759883  0
S  S148  1  0.27709988  0.44614507  0.84794263  1  0.288231  0  0.095674  0.14979  0  2.729751  0
S  S149  1  0.47518089  0.30399127  0.90208016  1  0.307237  0  0.096563  0.151977  0  2.758311  0
S  S150  1  0.95110734  0.92388703  0.85293927  1  0.299323  0  0.095469  0.149504  0  2.72857  0
S  S151  1  0.79885724  0.82382817  0.89695067  1  0.316203  0  0.096712  0.15282  0  2.757874  0
Cl  Cl152  1  0.28547283  0.54347742  0.41122208  1  -0.149584  0  0.017117  -0.017434  0  1.497718  0
Cl  Cl153  1  0.79014286  0.53212820  0.66459314  1  -0.158248  0  0.017744  -0.016862  0  1.500407  0
Cl  Cl154  1  0.03221907  0.29006340  0.66440445  1  -0.15833  0  0.017172  -0.017337  0  1.500647  0
Cl  Cl155  1  0.76907169  0.77582320  0.40161713  1  -0.150269  0  0.017322  -0.01723  0  1.497771  0
Cl  Cl156  1  0.71773656  0.45974910  0.08552598  1  -0.141598  0  0.017302  -0.017097  0  1.497659  0
Cl  Cl157  1  0.10201872  0.09497504  0.22746802  1  -0.147284  0  0.016861  -0.017784  0  1.496493  0
Cl  Cl158  1  0.48087461  0.47398666  0.84840593  1  -0.14803  0  0.018551  -0.015602  0  1.496756  0
Cl  Cl159  1  0.96443876  0.70659562  0.83877449  1  -0.150367  0  0.018127  -0.016152  0  1.497421  0
O  O160  1  0.00050573  0.49938875  0.49944728  1  -1.233347  0  -0.571922  -1.028192  0  2.541371  0
O  O161  1  0.07807219  0.31447813  0.52260266  1  -1.177788  0  -0.320998  -0.549193  0  2.322114  0
O  O162  1  0.03101760  0.53126936  0.58524984  1  -1.187766  0  -0.306759  -0.544975  0  2.375532  0
O  O163  1  0.15498454  0.50508104  0.45076449  1  -1.168337  0  -0.316427  -0.544301  0  2.382894  0
O  O164  1  0.02675519  0.37541860  0.58008556  1  -1.170956  0  -0.316554  -0.541778  0  2.384239  0
O  O165  1  0.15429581  0.39100116  0.44622764  1  -1.169373  0  -0.321258  -0.549846  0  2.322259  0
O  O166  1  0.08474341  0.58600849  0.53083279  1  -1.188434  0  -0.3066  -0.546983  0  2.367537  0
O  O167  1  0.00412248  0.65854874  0.45014920  1  -1.165675  0  -0.320573  -0.546617  0  2.324157  0
O  O168  1  0.88738828  0.49558275  0.44221167  1  -1.181604  0  -0.307507  -0.546672  0  2.373565  0
O  O169  1  0.89238930  0.65137624  0.44730371  1  -1.160019  0  -0.315938  -0.543472  0  2.380961  0
O  O170  1  0.99635676  0.38722167  0.44208303  1  -1.171222  0  -0.307515  -0.548279  0  2.366401  0
O  O171  1  0.87572736  0.52661355  0.58018112  1  -1.172525  0  -0.315825  -0.541225  0  2.383273  0
O  O172  1  0.81437699  0.57711294  0.52278730  1  -1.17362  0  -0.320406  -0.546585  0  2.325526  0
O  O173  1  0.74911592  0.25028889  0.25025532  1  -1.230564  0  -0.571044  -1.02746  0  2.538322  0
O  O174  1  0.59656363  0.35802138  0.30336758  1  -1.181931  0  -0.319159  -0.546984  0  2.334276  0
O  O175  1  0.66470629  0.16439869  0.21921461  1  -1.188365  0  -0.307647  -0.548028  0  2.369225  0
O  O176  1  0.72456139  0.37404748  0.17002612  1  -1.167628  0  -0.317097  -0.545026  0  2.379426  0
O  O177  1  0.59254059  0.24492187  0.30005692  1  -1.167602  0  -0.316135  -0.539235  0  2.314903  0
O  O178  1  0.67227075  0.43542393  0.22731966  1  -1.174756  0  -0.320856  -0.548473  0  2.3232  0
O  O179  1  0.71973318  0.21817581  0.16490344  1  -1.165965  0  -0.306621  -0.546455  0  2.369601  0
O  O180  1  0.87701503  0.22274346  0.16880394  1  -1.162176  0  -0.320595  -0.546777  0  2.321819  0
O  O181  1  0.86190092  0.25368149  0.30838683  1  -1.183431  0  -0.307838  -0.547366  0  2.374126  0
O  O182  1  0.93236854  0.17311020  0.22815377  1  -1.131572  0  -0.316423  -0.54466  0  2.379673  0
O  O183  1  0.75346150  0.36250603  0.30804218  1  -1.170364  0  -0.307595  -0.548812  0  2.36714  0
O  O184  1  0.74507097  0.09302881  0.29996262  1  -1.17703  0  -0.320316  -0.549468  0  2.333182  0
O  O185  1  0.85817544  0.09653005  0.30394621  1  -1.178306  0  -0.315737  -0.53778  0  2.316243  0
O  O186  1  0.24968457  0.75087863  0.74979686  1  -1.232422  0  -0.57125  -1.027782  0  2.538719  0
O  O187  1  0.37583013  0.72444524  0.66865924  1  -1.161911  0  -0.316267  -0.540127  0  2.315389  0
O  O188  1  0.36249563  0.75434776  0.80791177  1  -1.180838  0  -0.306903  -0.546014  0  2.372868  0
O  O189  1  0.17279721  0.93402997  0.72730588  1  -1.179707  0  -0.319443  -0.547473  0  2.334503  0
O  O190  1  0.43409155  0.67354794  0.72713348  1  -1.17099  0  -0.319094  -0.545968  0  2.337343  0
O  O191  1  0.22428805  0.87616713  0.66875023  1  -1.171547  0  -0.317085  -0.540466  0  2.317293  0
O  O192  1  0.25352042  0.86265995  0.80804649  1  -1.171965  0  -0.306982  -0.548381  0  2.366994  0
O  O193  1  0.09557707  0.85906082  0.80384877  1  -1.176622  0  -0.321452  -0.54942  0  2.321601  0
O  O194  1  0.16561720  0.66427188  0.71903522  1  -1.186483  0  -0.307072  -0.546232  0  2.369623  0
O  O195  1  0.09523035  0.74486633  0.79935921  1  -1.16714  0  -0.316152  -0.544445  0  2.381526  0
O  O196  1  0.21944774  0.71911708  0.66465913  1  -1.175134  0  -0.307963  -0.548834  0  2.371136  0
O  O197  1  0.35750746  0.59867413  0.80289823  1  -1.157828  0  -0.316274  -0.543408  0  2.379996  0
O  O198  1  0.24582570  0.59165776  0.79983022  1  -1.166195  0  -0.320146  -0.546171  0  2.323454  0
O  O199  1  0.50006026  0.99994056  0.99999280  1  -1.233783  0  -0.571338  -1.027769  0  2.539626  0
O  O200  1  0.50465088  0.15663791  0.94996787  1  -1.17269  0  -0.31986  -0.547781  0  2.333825  0
O  O201  1  0.38763468  0.99623374  0.94203737  1  -1.181241  0  -0.308283  -0.549985  0  2.372208  0
O  O202  1  0.65324067  0.89200066  0.94661099  1  -1.182057  0  -0.31895  -0.546263  0  2.334952  0
O  O203  1  0.39110641  0.15355976  0.94656918  1  -1.156259  0  -0.316306  -0.539614  0  2.314207  0
O  O204  1  0.65710726  0.00511444  0.94999284  1  -1.174615  0  -0.316101  -0.539478  0  2.314773  0
O  O205  1  0.49630897  0.88758230  0.94204348  1  -1.168156  0  -0.307401  -0.54782  0  2.370591  0
O  O206  1  0.57732217  0.81591308  0.02269282  1  -1.177373  0  -0.319285  -0.546684  0  2.336354  0
O  O207  1  0.53093803  0.03080605  0.08513150  1  -1.166999  0  -0.307815  -0.549052  0  2.369934  0
O  O208  1  0.52592244  0.87393643  0.08116355  1  -1.169831  0  -0.316524  -0.539728  0  2.315415  0
O  O209  1  0.58529144  0.08519834  0.03078318  1  -1.18856  0  -0.307159  -0.547775  0  2.368253  0
O  O210  1  0.31536252  0.07784832  0.02239852  1  -1.141965  0  -0.316378  -0.540437  0  2.315017  0
O  O211  1  0.37407059  0.02593619  0.08068263  1  -1.171618  0  -0.319855  -0.547948  0  2.333494  0
O  O212  1  0.78265861  0.51745730  0.39984121  1  -1.131684  0  -0.35629  -0.41804  0  2.274561  0
O  O213  1  0.96750464  0.23263489  0.34990354  1  -1.131396  0  -0.357427  -0.419351  0  2.274003  0
O  O214  1  0.73257739  0.46758860  0.34994779  1  -1.133117  0  -0.355822  -0.41587  0  2.272255  0
O  O215  1  0.01757500  0.28240093  0.39992057  1  -1.134667  0  -0.356755  -0.417032  0  2.272403  0
O  O216  1  0.15905457  0.65883483  0.54118219  1  -1.146563  0  -0.35656  -0.41823  0  2.274406  0
O  O217  1  0.09123013  0.59146927  0.70871423  1  -1.131663  0  -0.356262  -0.416959  0  2.274971  0
O  O218  1  0.20894830  0.70896156  0.59119196  1  -1.148738  0  -0.357724  -0.41851  0  2.273633  0
O  O219  1  0.04144401  0.54137950  0.65877122  1  -1.110971  0  -0.356135  -0.418555  0  2.278506  0
O  O220  1  0.70866405  0.20880750  0.09128135  1  -1.147105  0  -0.356102  -0.417356  0  2.276635  0
O  O221  1  0.54114092  0.04120139  0.15869482  1  -1.147386  0  -0.356558  -0.416962  0  2.274263  0
O  O222  1  0.65885859  0.15875792  0.04122509  1  -1.144683  0  -0.356883  -0.41671  0  2.271901  0
O  O223  1  0.59101018  0.09113650  0.20869862  1  -1.109598  0  -0.356403  -0.41719  0  2.273202  0
O  O224  1  0.23248796  0.96769525  0.85004044  1  -1.13216  0  -0.356438  -0.417234  0  2.271896  0
O  O225  1  0.51745828  0.78255996  0.90000993  1  -1.132838  0  -0.35467  -0.414491  0  2.271231  0
O  O226  1  0.28247559  0.01759180  0.90004696  1  -1.133633  0  -0.358087  -0.419075  0  2.270282  0
O  O227  1  0.46737498  0.73277243  0.85014195  1  -1.130041  0  -0.355077  -0.415804  0  2.274778  0
