# generated using pymatgen
data_H28Pb5C20N4(ClO9)2
_symmetry_space_group_name_H-M   'P 1'
_cell_length_a   7.59059409
_cell_length_b   8.90519986
_cell_length_c   13.34880634
_cell_angle_alpha   73.22220806
_cell_angle_beta   80.84412842
_cell_angle_gamma   75.23086104
_symmetry_Int_Tables_number   1
_chemical_formula_structural   H28Pb5C20N4(ClO9)2
_chemical_formula_sum   'H28 Pb5 C20 N4 Cl2 O18'
_cell_volume   831.79626257
_cell_formula_units_Z   1
loop_
 _symmetry_equiv_pos_site_id
 _symmetry_equiv_pos_as_xyz
  1  'x, y, z'
loop_
 _atom_site_type_symbol
 _atom_site_label
 _atom_site_symmetry_multiplicity
 _atom_site_fract_x
 _atom_site_fract_y
 _atom_site_fract_z
 _atom_site_occupancy
 _atom_site_hle17_bader_spin_density
 _atom_site_hle17_ddec_charge
 _atom_site_hle17_ddec_spin_density
 _atom_site_hle17_ddec_sum_bond_order
 _atom_site_hle17_magmom
 _atom_site_hse06_10hf_bader_spin_density
 _atom_site_hse06_10hf_ddec_charge
 _atom_site_hse06_10hf_ddec_spin_density
 _atom_site_hse06_10hf_ddec_sum_bond_order
 _atom_site_hse06_10hf_magmom
 _atom_site_hse06_bader_spin_density
 _atom_site_hse06_ddec_charge
 _atom_site_hse06_ddec_spin_density
 _atom_site_hse06_ddec_sum_bond_order
 _atom_site_hse06_magmom
 _atom_site_pbe_bader_spin_density
 _atom_site_pbe_cm5_charge
 _atom_site_pbe_ddec_charge
 _atom_site_pbe_ddec_spin_density
 _atom_site_pbe_ddec_sum_bond_order
 _atom_site_pbe_magmom
H  H0  1  0.82328065  0.26378857  0.69973361  1  0  0.10929  0  0.960211  0  0  0.120662  0  1.025518  0  0  0.123247  0  1.024429  0  0  0.109322  0.1188  0  1.026417  0
H  H1  1  0.17669861  0.73624235  0.30026047  1  0  0.109378  0  0.960051  0  0  0.120701  0  1.025417  0  0  0.123274  0  1.02434  0  0  0.109408  0.118856  0  1.026325  0
H  H2  1  0.70072738  0.41245062  0.60030967  1  0  0.121077  0  0.915599  0  0  0.135594  0  0.977207  0  0  0.137688  0  0.976102  0  0  0.118826  0.134191  0  0.977882  0
H  H3  1  0.29922424  0.58754675  0.39968128  1  0  0.121092  0  0.915672  0  0  0.135623  0  0.977249  0  0  0.137715  0  0.976145  0  0  0.118875  0.134233  0  0.977929  0
H  H4  1  0.69111823  0.53278491  0.74832214  1  0  0.096703  0  0.94017  0  0  0.107473  0  1.010052  0  0  0.109374  0  1.008955  0  0  0.106364  0.106054  0  1.011034  0
H  H5  1  0.30885608  0.46721840  0.25164920  1  0  0.096819  0  0.940065  0  0  0.107443  0  1.010129  0  0  0.109295  0  1.009084  0  0  0.106338  0.106026  0  1.011103  0
H  H6  1  0.49023962  0.53029722  0.83533771  1  0  0.11917  0  0.905773  0  0  0.13655  0  0.956212  0  0  0.138984  0  0.954404  0  0  0.123884  0.134766  0  0.95768  0
H  H7  1  0.50973994  0.46973851  0.16463519  1  0  0.119107  0  0.905859  0  0  0.136414  0  0.956339  0  0  0.138848  0  0.954523  0  0  0.123822  0.134626  0  0.95781  0
H  H8  1  0.20149749  0.99640408  0.96939435  1  0  0.090916  0  0.919308  0  0  0.104035  0  0.983194  0  0  0.105998  0  0.982153  0  0  0.105668  0.102566  0  0.984052  0
H  H9  1  0.79847360  0.00364726  0.03064972  1  0  0.090888  0  0.919002  0  0  0.104087  0  0.982889  0  0  0.106048  0  0.981846  0  0  0.105699  0.102616  0  0.983755  0
H  H10  1  0.38288200  0.99841862  0.86692779  1  0  0.112074  0  0.927003  0  0  0.126005  0  0.988366  0  0  0.128545  0  0.986428  0  0  0.118886  0.124141  0  0.989858  0
H  H11  1  0.61709725  0.00157863  0.13311170  1  0  0.111776  0  0.926917  0  0  0.125833  0  0.988156  0  0  0.12837  0  0.986219  0  0  0.11887  0.123969  0  0.989647  0
H  H12  1  0.65572328  0.24798124  0.89268452  1  0  0.062695  0  0.928111  0  0  0.081566  0  0.989833  0  0  0.082294  0  0.989365  0  0  0.100594  0.080845  0  0.990448  0
H  H13  1  0.34425121  0.75204728  0.10731344  1  0  0.062564  0  0.928064  0  0  0.081469  0  0.989746  0  0  0.082199  0  0.989274  0  0  0.100552  0.080754  0  0.990354  0
H  H14  1  0.58890125  0.11971737  0.83340979  1  0  0.08176  0  0.946021  0  0  0.096078  0  1.013574  0  0  0.097373  0  1.012494  0  0  0.108516  0.095022  0  1.014488  0
H  H15  1  0.41106618  0.88029075  0.16660394  1  0  0.081577  0  0.946049  0  0  0.09596  0  1.013544  0  0  0.097254  0  1.012465  0  0  0.108499  0.094908  0  1.014459  0
H  H16  1  0.02272919  0.26805380  0.99900560  1  0  0.127404  0  0.940329  0  0  0.13762  0  1.004383  0  0  0.141188  0  1.001982  0  0  0.112966  0.134947  0  1.006321  0
H  H17  1  0.97723377  0.73198919  0.00098385  1  0  0.127599  0  0.940485  0  0  0.137733  0  1.004501  0  0  0.141316  0  1.002099  0  0  0.112948  0.135059  0  1.006433  0
H  H18  1  0.93668405  0.24907672  0.88923523  1  0  0.090266  0  0.942647  0  0  0.105492  0  1.006556  0  0  0.10717  0  1.00531  0  0  0.111068  0.104166  0  1.007696  0
H  H19  1  0.06330158  0.75087967  0.11077782  1  0  0.090496  0  0.942735  0  0  0.10568  0  1.006566  0  0  0.107364  0  1.005326  0  0  0.11115  0.104346  0  1.007711  0
H  H20  1  0.38333958  0.18038710  0.99542818  1  0  0.071173  0  0.916139  0  0  0.091493  0  0.973508  0  0  0.092048  0  0.973604  0  0  0.104367  0.09096  0  0.973644  0
H  H21  1  0.61661742  0.81966311  0.00458063  1  0  0.071092  0  0.916164  0  0  0.091507  0  0.9735  0  0  0.092071  0  0.973586  0  0  0.104346  0.090972  0  0.973642  0
H  H22  1  0.32240055  0.38275068  0.92488711  1  0  0.095226  0  0.935951  0  0  0.109244  0  0.997393  0  0  0.111201  0  0.995581  0  0  0.114422  0.107754  0  0.998768  0
H  H23  1  0.67756667  0.61729109  0.07510669  1  0  0.095121  0  0.935926  0  0  0.109157  0  0.997418  0  0  0.111114  0  0.995609  0  0  0.114362  0.107665  0  0.9988  0
H  H24  1  0.61445480  0.82336356  0.75193001  1  0  0.417955  0  0.88703  0  0  0.385829  0  0.953618  0  0  0.397654  0  0.936723  0  0  0.283452  0.377428  0  0.965595  0
H  H25  1  0.38552087  0.17669862  0.24804041  1  0  0.417936  0  0.887109  0  0  0.385772  0  0.953776  0  0  0.397612  0  0.936857  0  0  0.283457  0.37737  0  0.965757  0
H  H26  1  0.75274840  0.73230584  0.84130971  1  0  0.40763  0  0.906712  0  0  0.374103  0  0.975659  0  0  0.38634  0  0.958219  0  0  0.281772  0.365494  0  0.987885  0
H  H27  1  0.24712488  0.26770622  0.15868381  1  0  0.407776  0  0.90654  0  0  0.374331  0  0.975368  0  0  0.386572  0  0.957923  0  0  0.281884  0.365719  0  0.987599  0
Pb  Pb28  1  0.22676839  0.37244157  0.66634632  1  0  1.220608  0  1.526461  0  0  1.024731  0  1.916984  0  0  1.082586  0  1.881154  0  0  0.581371  0.980995  0  1.945446  0
Pb  Pb29  1  0.77334214  0.62745792  0.33365843  1  0  1.220404  0  1.52677  0  0  1.0245  0  1.917373  0  0  1.082378  0  1.881506  0  0  0.581253  0.980752  0  1.945856  0
Pb  Pb30  1  0.00795760  0.84765099  0.67163743  1  0  1.371509  0  1.383784  0  0  1.19869  0  1.783452  0  0  1.25808  0  1.738712  0  0  0.625077  1.155773  0  1.814733  0
Pb  Pb31  1  0.99232389  0.15237160  0.32850174  1  0  1.371099  0  1.384485  0  0  1.198315  0  1.784217  0  0  1.257679  0  1.739486  0  0  0.624632  1.155397  0  1.815541  0
Pb  Pb32  1  0.50059626  0.99978920  0.49993518  1  0  1.354614  0  1.373674  0  0  1.173394  0  1.765894  0  0  1.239905  0  1.72038  0  0  0.620052  1.125228  0  1.797528  0
C  C33  1  0.65132542  0.18000733  0.62596151  1  0  0.712387  0  3.815806  0  0  0.656584  0  4.112729  0  0  0.692668  0  4.104794  0  0  0.226534  0.632004  0  4.117086  0
C  C34  1  0.34869688  0.81995734  0.37404374  1  0  0.712083  0  3.816615  0  0  0.656319  0  4.113577  0  0  0.6924  0  4.105629  0  0  0.226442  0.631762  0  4.117936  0
C  C35  1  0.44509046  0.66058822  0.67804589  1  0  0.679897  0  3.89463  0  0  0.625686  0  4.199617  0  0  0.659756  0  4.193319  0  0  0.209374  0.602522  0  4.202863  0
C  C36  1  0.55488365  0.33939467  0.32191890  1  0  0.680785  0  3.892957  0  0  0.626371  0  4.198183  0  0  0.660457  0  4.191862  0  0  0.209712  0.603212  0  4.201442  0
C  C37  1  0.68831669  0.30889096  0.66816175  1  0  -0.19085  0  3.637785  0  0  -0.242569  0  3.87922  0  0  -0.245142  0  3.886947  0  0  -0.070101  -0.240694  0  3.873618  0
C  C38  1  0.31166590  0.69110510  0.33183197  1  0  -0.190785  0  3.637741  0  0  -0.24251  0  3.879282  0  0  -0.245073  0  3.886998  0  0  -0.070259  -0.240717  0  3.873768  0
C  C39  1  0.54893564  0.51832758  0.75657416  1  0  -0.171801  0  3.650035  0  0  -0.225732  0  3.899245  0  0  -0.226952  0  3.906462  0  0  -0.068144  -0.224926  0  3.894286  0
C  C40  1  0.45103772  0.48167933  0.24340331  1  0  -0.172021  0  3.650052  0  0  -0.225746  0  3.899259  0  0  -0.226918  0  3.906459  0  0  -0.068077  -0.224934  0  3.894297  0
C  C41  1  0.23906350  0.05414051  0.88633189  1  0  -0.168611  0  3.644677  0  0  -0.222203  0  3.895911  0  0  -0.223675  0  3.903576  0  0  -0.067647  -0.221084  0  3.890424  0
C  C42  1  0.76092061  0.94587475  0.11370746  1  0  -0.1682  0  3.643408  0  0  -0.221946  0  3.894971  0  0  -0.22341  0  3.902624  0  0  -0.067814  -0.220825  0  3.889484  0
C  C43  1  0.97612581  0.48212011  0.87047234  1  0  0.694508  0  3.842686  0  0  0.638575  0  4.153449  0  0  0.673105  0  4.145912  0  0  0.217284  0.615136  0  4.157596  0
C  C44  1  0.02379512  0.51788338  0.12949916  1  0  0.694399  0  3.842968  0  0  0.638542  0  4.153499  0  0  0.673081  0  4.145961  0  0  0.217117  0.615106  0  4.157647  0
C  C45  1  0.54883910  0.23963755  0.84821752  1  0  -0.036543  0  3.65122  0  0  -0.099902  0  3.91981  0  0  -0.096949  0  3.932131  0  0  -0.067394  -0.101628  0  3.911119  0
C  C46  1  0.45113520  0.76037535  0.15178869  1  0  -0.036107  0  3.650996  0  0  -0.099461  0  3.9196  0  0  -0.096503  0  3.931931  0  0  -0.067358  -0.101201  0  3.910916  0
C  C47  1  0.12916307  0.01244226  0.81580665  1  0  0.671657  0  3.896865  0  0  0.619047  0  4.203162  0  0  0.653053  0  4.197458  0  0  0.205641  0.595961  0  4.205932  0
C  C48  1  0.87084649  0.98754527  0.18424627  1  0  0.672055  0  3.895788  0  0  0.6193  0  4.202394  0  0  0.653316  0  4.196665  0  0  0.20591  0.596215  0  4.20518  0
C  C49  1  0.03715588  0.29992125  0.91246611  1  0  -0.193152  0  3.642364  0  0  -0.249057  0  3.894996  0  0  -0.251304  0  3.90262  0  0  -0.073503  -0.247351  0  3.889703  0
C  C50  1  0.96280120  0.70009172  0.08752437  1  0  -0.193928  0  3.643383  0  0  -0.249531  0  3.895638  0  0  -0.251831  0  3.903325  0  0  -0.073523  -0.247812  0  3.890335  0
C  C51  1  0.36684865  0.26005671  0.91528626  1  0  -0.037039  0  3.630188  0  0  -0.095219  0  3.890037  0  0  -0.09224  0  3.901756  0  0  -0.068777  -0.097066  0  3.881784  0
C  C52  1  0.63312133  0.73997904  0.08471744  1  0  -0.036907  0  3.630039  0  0  -0.095308  0  3.890124  0  0  -0.092341  0  3.901866  0  0  -0.068779  -0.097155  0  3.881877  0
N  N53  1  0.54168682  0.36083077  0.74558010  1  0  -0.179566  0  3.262808  0  0  -0.087501  0  3.49618  0  0  -0.103975  0  3.519926  0  0  -0.318283  -0.075775  0  3.479274  0
N  N54  1  0.45828969  0.63916291  0.25441536  1  0  -0.179615  0  3.262856  0  0  -0.087506  0  3.496018  0  0  -0.103982  0  3.519749  0  0  -0.318235  -0.075756  0  3.479139  0
N  N55  1  0.22009132  0.22793003  0.86904261  1  0  -0.177034  0  3.265697  0  0  -0.081275  0  3.493152  0  0  -0.098284  0  3.517764  0  0  -0.315358  -0.069268  0  3.475644  0
N  N56  1  0.77988712  0.77208767  0.13096381  1  0  -0.177029  0  3.265146  0  0  -0.081475  0  3.493213  0  0  -0.098484  0  3.51786  0  0  -0.315391  -0.069449  0  3.475642  0
Cl  Cl57  1  0.83776072  0.71261892  0.54144253  1  0  -0.710627  0  0.802763  0  0  -0.639983  0  1.053626  0  0  -0.666192  0  1.037832  0  0  -0.280029  -0.620433  0  1.064559  0
Cl  Cl58  1  0.16216975  0.28756718  0.45849312  1  0  -0.711187  0  0.801482  0  0  -0.640562  0  1.052048  0  0  -0.666742  0  1.036262  0  0  -0.280733  -0.621033  0  1.062973  0
O  O59  1  0.77979325  0.09953743  0.57711274  1  0  -0.697364  0  2.046545  0  0  -0.625262  0  2.296063  0  0  -0.658118  0  2.289885  0  0  -0.291249  -0.60217  0  2.299669  0
O  O60  1  0.22027068  0.90043671  0.42289527  1  0  -0.697262  0  2.0468  0  0  -0.625242  0  2.296279  0  0  -0.658124  0  2.290224  0  0  -0.291423  -0.602178  0  2.299891  0
O  O61  1  0.36067592  0.63809186  0.61106410  1  0  -0.672938  0  2.014524  0  0  -0.601807  0  2.252128  0  0  -0.63319  0  2.248438  0  0  -0.296521  -0.57941  0  2.253833  0
O  O62  1  0.63928144  0.36185022  0.38892721  1  0  -0.673445  0  2.013749  0  0  -0.602254  0  2.251469  0  0  -0.633641  0  2.24775  0  0  -0.296652  -0.579865  0  2.253191  0
O  O63  1  0.06828777  0.55127552  0.78812392  1  0  -0.702804  0  2.056224  0  0  -0.614132  0  2.300709  0  0  -0.648376  0  2.294692  0  0  -0.297158  -0.589749  0  2.303916  0
O  O64  1  0.93165397  0.44873510  0.21185712  1  0  -0.702533  0  2.056489  0  0  -0.613814  0  2.300865  0  0  -0.648038  0  2.294794  0  0  -0.296935  -0.589438  0  2.304079  0
O  O65  1  0.09014435  0.11325117  0.72816036  1  0  -0.680736  0  2.023131  0  0  -0.605357  0  2.263094  0  0  -0.637222  0  2.257653  0  0  -0.299351  -0.582682  0  2.266089  0
O  O66  1  0.90975723  0.88673553  0.27191420  1  0  -0.680987  0  2.022612  0  0  -0.605542  0  2.262675  0  0  -0.637413  0  2.257232  0  0  -0.299651  -0.582866  0  2.265681  0
O  O67  1  0.44613531  0.80002753  0.68685474  1  0  -0.68867  0  2.026668  0  0  -0.615291  0  2.260282  0  0  -0.647665  0  2.254012  0  0  -0.302696  -0.592551  0  2.263942  0
O  O68  1  0.55384039  0.19997699  0.31307354  1  0  -0.688893  0  2.026627  0  0  -0.6154  0  2.260316  0  0  -0.647808  0  2.254054  0  0  -0.302916  -0.592601  0  2.263843  0
O  O69  1  0.48738591  0.15893393  0.63910606  1  0  -0.653654  0  2.071864  0  0  -0.562941  0  2.310443  0  0  -0.597351  0  2.305145  0  0  -0.278619  -0.538544  0  2.31317  0
O  O70  1  0.51267494  0.84096693  0.36089904  1  0  -0.653678  0  2.07229  0  0  -0.562953  0  2.310925  0  0  -0.597334  0  2.305552  0  0  -0.278645  -0.538574  0  2.313703  0
O  O71  1  0.71221376  0.83857197  0.78813723  1  0  -0.839618  0  1.838157  0  0  -0.774853  0  2.025657  0  0  -0.799719  0  1.992106  0  0  -0.562885  -0.757197  0  2.048958  0
O  O72  1  0.28772386  0.16146509  0.21186982  1  0  -0.839448  0  1.838475  0  0  -0.774701  0  2.025902  0  0  -0.799582  0  1.992335  0  0  -0.562771  -0.757037  0  2.0492  0
O  O73  1  0.83384916  0.55129286  0.91571978  1  0  -0.604322  0  1.944666  0  0  -0.551988  0  2.16929  0  0  -0.576853  0  2.159672  0  0  -0.309506  -0.534774  0  2.175397  0
O  O74  1  0.16603634  0.44869274  0.08423503  1  0  -0.604199  0  1.944472  0  0  -0.552024  0  2.169174  0  0  -0.576888  0  2.159542  0  0  -0.309465  -0.534827  0  2.17531  0
O  O75  1  0.08814958  0.87608924  0.84679738  1  0  -0.62525  0  1.927033  0  0  -0.566001  0  2.158373  0  0  -0.594429  0  2.150853  0  0  -0.307255  -0.546141  0  2.162868  0
O  O76  1  0.91199670  0.12383173  0.15323606  1  0  -0.625763  0  1.92651  0  0  -0.566457  0  2.157864  0  0  -0.594874  0  2.150334  0  0  -0.307611  -0.546604  0  2.162364  0
