# generated using pymatgen
data_ZnH20C18(N3O2)2
_symmetry_space_group_name_H-M   'P 1'
_cell_length_a   9.67512453
_cell_length_b   9.95908462
_cell_length_c   13.16874389
_cell_angle_alpha   103.90305570
_cell_angle_beta   101.14384830
_cell_angle_gamma   104.08913599
_symmetry_Int_Tables_number   1
_chemical_formula_structural   ZnH20C18(N3O2)2
_chemical_formula_sum   'Zn2 H40 C36 N12 O8'
_cell_volume   1151.14903566
_cell_formula_units_Z   2
loop_
 _symmetry_equiv_pos_site_id
 _symmetry_equiv_pos_as_xyz
  1  'x, y, z'
loop_
 _atom_site_type_symbol
 _atom_site_label
 _atom_site_symmetry_multiplicity
 _atom_site_fract_x
 _atom_site_fract_y
 _atom_site_fract_z
 _atom_site_occupancy
 _atom_site_hle17_bader_spin_density
 _atom_site_hle17_ddec_charge
 _atom_site_hle17_ddec_spin_density
 _atom_site_hle17_ddec_sum_bond_order
 _atom_site_hle17_magmom
 _atom_site_hse06_10hf_bader_spin_density
 _atom_site_hse06_10hf_ddec_charge
 _atom_site_hse06_10hf_ddec_spin_density
 _atom_site_hse06_10hf_ddec_sum_bond_order
 _atom_site_hse06_10hf_magmom
 _atom_site_hse06_bader_spin_density
 _atom_site_hse06_ddec_charge
 _atom_site_hse06_ddec_spin_density
 _atom_site_hse06_ddec_sum_bond_order
 _atom_site_hse06_magmom
 _atom_site_pbe_bader_spin_density
 _atom_site_pbe_cm5_charge
 _atom_site_pbe_ddec_charge
 _atom_site_pbe_ddec_spin_density
 _atom_site_pbe_ddec_sum_bond_order
 _atom_site_pbe_magmom
Zn  Zn0  1  0.54539614  0.41929257  0.19730386  1  0  1.008394  0  1.866081  0  0  0.82056  0  2.344704  0  0  0.868509  0  2.288957  0  0  0.694892  0.786552  0  2.383802  0
Zn  Zn1  1  0.45460144  0.58071507  0.80269684  1  0  1.008454  0  1.866023  0  0  0.820619  0  2.344623  0  0  0.868578  0  2.288872  0  0  0.694936  0.786617  0  2.383714  0
H  H2  1  0.10164537  0.62549296  0.19822066  1  0  0.097858  0  0.948143  0  0  0.106676  0  1.009253  0  0  0.110963  0  1.006013  0  0  0.101719  0.103591  0  1.01174  0
H  H3  1  0.89835499  0.37448699  0.80177729  1  0  0.097863  0  0.947972  0  0  0.106625  0  1.009156  0  0  0.110911  0  1.005916  0  0  0.101737  0.10354  0  1.01164  0
H  H4  1  0.26446337  0.64696255  0.07225743  1  0  0.093984  0  0.978497  0  0  0.0989  0  1.047834  0  0  0.101673  0  1.047484  0  0  0.098824  0.09688  0  1.048402  0
H  H5  1  0.73553441  0.35301313  0.92774020  1  0  0.094016  0  0.978363  0  0  0.098882  0  1.047768  0  0  0.101654  0  1.047416  0  0  0.098825  0.096864  0  1.048338  0
H  H6  1  0.16879040  0.91681914  0.12112366  1  0  0.102938  0  0.948681  0  0  0.111488  0  1.010214  0  0  0.115129  0  1.007988  0  0  0.104219  0.108692  0  1.012169  0
H  H7  1  0.83119581  0.08319500  0.87889097  1  0  0.102847  0  0.948553  0  0  0.111401  0  1.010092  0  0  0.115054  0  1.007873  0  0  0.104177  0.1086  0  1.012063  0
H  H8  1  0.91809329  0.74772936  0.01080791  1  0  0.098337  0  0.97119  0  0  0.104924  0  1.038292  0  0  0.106985  0  1.039  0  0  0.099318  0.103318  0  1.038111  0
H  H9  1  0.08190442  0.25228747  0.98920728  1  0  0.098214  0  0.971239  0  0  0.104886  0  1.038265  0  0  0.106947  0  1.038973  0  0  0.099293  0.103297  0  1.038058  0
H  H10  1  0.45620917  0.24118300  0.37256710  1  0  0.118522  0  0.935383  0  0  0.129173  0  0.990975  0  0  0.131938  0  0.987738  0  0  0.14347  0.126961  0  0.993614  0
H  H11  1  0.54380066  0.75881171  0.62742707  1  0  0.118479  0  0.93542  0  0  0.129174  0  0.990989  0  0  0.131931  0  0.987743  0  0  0.143488  0.126965  0  0.993621  0
H  H12  1  0.79994898  0.61473218  0.41075519  1  0  0.128701  0  0.926301  0  0  0.138469  0  0.985656  0  0  0.141915  0  0.981022  0  0  0.151528  0.135947  0  0.988911  0
H  H13  1  0.20004951  0.38527211  0.58924508  1  0  0.128683  0  0.92628  0  0  0.138467  0  0.985621  0  0  0.141911  0  0.980993  0  0  0.151534  0.135946  0  0.988874  0
H  H14  1  0.53621336  0.30972513  0.64632858  1  0  0.089952  0  0.987251  0  0  0.088401  0  1.065539  0  0  0.092414  0  1.061238  0  0  0.123482  0.085544  0  1.068503  0
H  H15  1  0.46378042  0.69029259  0.35367177  1  0  0.089898  0  0.987364  0  0  0.088405  0  1.065593  0  0  0.092409  0  1.061308  0  0  0.123492  0.085548  0  1.068557  0
H  H16  1  0.39669718  0.33665539  0.93349096  1  0  0.125105  0  0.924574  0  0  0.133783  0  0.987689  0  0  0.137027  0  0.983891  0  0  0.147426  0.131254  0  0.990639  0
H  H17  1  0.60330602  0.66334435  0.06651300  1  0  0.125096  0  0.924417  0  0  0.133741  0  0.987595  0  0  0.136981  0  0.9838  0  0  0.147401  0.131209  0  0.990552  0
H  H18  1  0.83884743  0.52112887  0.68034899  1  0  0.095466  0  0.908478  0  0  0.111992  0  0.969346  0  0  0.112785  0  0.968609  0  0  0.123855  0.111441  0  0.969753  0
H  H19  1  0.16115043  0.47886773  0.31965066  1  0  0.09552  0  0.90862  0  0  0.112055  0  0.969478  0  0  0.112844  0  0.968749  0  0  0.123901  0.111508  0  0.969885  0
H  H20  1  0.77128311  0.66959711  0.67131174  1  0  0.077857  0  0.922073  0  0  0.095008  0  0.984785  0  0  0.094642  0  0.985622  0  0  0.112905  0.095119  0  0.984203  0
H  H21  1  0.22871666  0.33040486  0.32868680  1  0  0.077902  0  0.922089  0  0  0.095047  0  0.984827  0  0  0.094677  0  0.985669  0  0  0.1129  0.09516  0  0.984249  0
H  H22  1  0.96797111  0.74717326  0.57242943  1  0  0.065216  0  0.928614  0  0  0.086902  0  0.981803  0  0  0.087423  0  0.982328  0  0  0.094274  0.086498  0  0.981412  0
H  H23  1  0.03203390  0.25281972  0.42757213  1  0  0.065186  0  0.928519  0  0  0.08686  0  0.981721  0  0  0.087383  0  0.982244  0  0  0.094249  0.086452  0  0.981327  0
H  H24  1  0.03893572  0.60690792  0.59922626  1  0  0.073867  0  0.935512  0  0  0.090913  0  0.998317  0  0  0.091597  0  0.999252  0  0  0.092009  0.090201  0  0.99793  0
H  H25  1  0.96106358  0.39308976  0.40077529  1  0  0.073797  0  0.93548  0  0  0.090829  0  0.998327  0  0  0.091516  0  0.999261  0  0  0.091965  0.090108  0  0.997939  0
H  H26  1  0.07020846  0.71953417  0.79960616  1  0  0.065138  0  0.94633  0  0  0.083896  0  1.006027  0  0  0.08334  0  1.00858  0  0  0.088731  0.084044  0  1.004577  0
H  H27  1  0.92979794  0.28046863  0.20039573  1  0  0.065153  0  0.946388  0  0  0.083903  0  1.006062  0  0  0.083356  0  1.008598  0  0  0.088716  0.084046  0  1.00462  0
H  H28  1  0.00441159  0.85899393  0.76966355  1  0  0.062133  0  0.943389  0  0  0.082551  0  0.998713  0  0  0.082324  0  1.000897  0  0  0.088257  0.082538  0  0.997396  0
H  H29  1  0.99559296  0.14100665  0.23033391  1  0  0.062104  0  0.943466  0  0  0.082519  0  0.998761  0  0  0.082287  0  1.000945  0  0  0.088232  0.082503  0  0.997447  0
H  H30  1  0.28705706  0.79760608  0.72561453  1  0  0.064675  0  0.949109  0  0  0.084327  0  1.010632  0  0  0.084583  0  1.011787  0  0  0.08663  0.083901  0  1.010146  0
H  H31  1  0.71294645  0.20239456  0.27438279  1  0  0.064766  0  0.949006  0  0  0.084416  0  1.010535  0  0  0.084671  0  1.01169  0  0  0.086647  0.083985  0  1.010052  0
H  H32  1  0.22057911  0.93671354  0.69365070  1  0  0.059563  0  0.925431  0  0  0.078741  0  0.981903  0  0  0.07964  0  0.982175  0  0  0.085729  0.078071  0  0.98172  0
H  H33  1  0.77942324  0.06328386  0.30634668  1  0  0.059575  0  0.925361  0  0  0.078752  0  0.981855  0  0  0.079653  0  0.982128  0  0  0.085729  0.078081  0  0.98167  0
H  H34  1  0.23032454  0.03770707  0.89191186  1  0  0.062617  0  0.969733  0  0  0.08038  0  1.032354  0  0  0.079928  0  1.035243  0  0  0.08859  0.080631  0  1.030275  0
H  H35  1  0.76967925  0.96229138  0.10808665  1  0  0.062601  0  0.969762  0  0  0.080369  0  1.032376  0  0  0.079903  0  1.035271  0  0  0.088566  0.080619  0  1.030303  0
H  H36  1  0.30043991  0.90012154  0.92066911  1  0  0.075827  0  0.941182  0  0  0.095187  0  1.001627  0  0  0.095274  0  1.003323  0  0  0.094587  0.094939  0  1.000714  0
H  H37  1  0.69956980  0.09987874  0.07932750  1  0  0.075852  0  0.94122  0  0  0.0952  0  1.001656  0  0  0.095284  0  1.003348  0  0  0.094593  0.094947  0  1.00075  0
H  H38  1  0.50384462  0.12283116  0.97375650  1  0  0.083421  0  0.934283  0  0  0.09922  0  0.999235  0  0  0.099725  0  0.999395  0  0  0.113575  0.098674  0  0.999297  0
H  H39  1  0.49616427  0.87716684  0.02623582  1  0  0.083518  0  0.934151  0  0  0.09924  0  0.999138  0  0  0.099744  0  0.999295  0  0  0.113533  0.098692  0  0.999203  0
H  H40  1  0.52673656  0.00131609  0.85820736  1  0  0.103812  0  0.95415  0  0  0.118972  0  1.016663  0  0  0.120408  0  1.015946  0  0  0.116792  0.117675  0  1.017638  0
H  H41  1  0.47326476  0.99868435  0.14177899  1  0  0.103849  0  0.954222  0  0  0.118975  0  1.016726  0  0  0.120404  0  1.016012  0  0  0.116836  0.117679  0  1.017698  0
C  C42  1  0.81230436  0.47698421  0.14677760  1  0  0.628078  0  3.937355  0  0  0.583164  0  4.227958  0  0  0.61661  0  4.22089  0  0  0.195534  0.560491  0  4.23166  0
C  C43  1  0.18768697  0.52300595  0.85321473  1  0  0.627994  0  3.937747  0  0  0.583045  0  4.228366  0  0  0.616504  0  4.221301  0  0  0.195536  0.560352  0  4.232055  0
C  C44  1  0.90911729  0.48681006  0.07058431  1  0  -0.060963  0  3.751401  0  0  -0.038363  0  3.981486  0  0  -0.044667  0  4.003457  0  0  -0.017477  -0.033652  0  3.966502  0
C  C45  1  0.09087383  0.51317358  0.92940992  1  0  -0.061105  0  3.751785  0  0  -0.038411  0  3.981747  0  0  -0.044758  0  4.003773  0  0  -0.017479  -0.033626  0  3.966654  0
C  C46  1  0.05850248  0.57006855  0.11129745  1  0  -0.079447  0  3.740458  0  0  -0.10011  0  3.986707  0  0  -0.101398  0  4.006441  0  0  -0.084599  -0.099522  0  3.973433  0
C  C47  1  0.94149496  0.42990615  0.88870376  1  0  -0.079357  0  3.740439  0  0  -0.100004  0  3.986639  0  0  -0.101279  0  4.006387  0  0  -0.084616  -0.099434  0  3.973334  0
C  C48  1  0.14847245  0.58302382  0.04133375  1  0  -0.069378  0  3.728014  0  0  -0.091007  0  3.977896  0  0  -0.091553  0  3.99813  0  0  -0.086079  -0.090694  0  3.964425  0
C  C49  1  0.85152539  0.41696387  0.95866135  1  0  -0.069374  0  3.727784  0  0  -0.090919  0  3.977679  0  0  -0.091465  0  3.997883  0  0  -0.085993  -0.090591  0  3.964243  0
C  C50  1  0.29184237  0.19022373  0.12575638  1  0  0.622848  0  3.943321  0  0  0.575622  0  4.2353  0  0  0.609421  0  4.227765  0  0  0.196687  0.552845  0  4.23913  0
C  C51  1  0.70815117  0.80977550  0.87424994  1  0  0.622748  0  3.943192  0  0  0.575571  0  4.235196  0  0  0.609369  0  4.227659  0  0  0.196688  0.552793  0  4.239027  0
C  C52  1  0.13979372  0.09389084  0.06146797  1  0  -0.061686  0  3.769495  0  0  -0.038483  0  4.000858  0  0  -0.044621  0  4.021925  0  0  -0.015944  -0.03459  0  3.98634  0
C  C53  1  0.86019902  0.90612391  0.93854161  1  0  -0.061501  0  3.769085  0  0  -0.038495  0  4.000682  0  0  -0.044631  0  4.021752  0  0  -0.015921  -0.034597  0  3.986156  0
C  C54  1  0.09355029  0.95193808  0.06791258  1  0  -0.076667  0  3.732647  0  0  -0.100469  0  3.98337  0  0  -0.101411  0  4.002557  0  0  -0.08292  -0.099189  0  3.970186  0
C  C55  1  0.90645900  0.04807276  0.93210702  1  0  -0.076545  0  3.733056  0  0  -0.100283  0  3.983822  0  0  -0.101245  0  4.003034  0  0  -0.08292  -0.099004  0  3.970638  0
C  C56  1  0.95468939  0.85827808  0.00663538  1  0  -0.074408  0  3.729916  0  0  -0.09764  0  3.981409  0  0  -0.097959  0  4.001379  0  0  -0.083974  -0.097322  0  3.967818  0
C  C57  1  0.04529150  0.14172112  0.99338434  1  0  -0.074257  0  3.730534  0  0  -0.097603  0  3.981916  0  0  -0.097926  0  4.0019  0  0  -0.083891  -0.097295  0  3.968304  0
C  C58  1  0.54891545  0.33936704  0.41128379  1  0  0.202137  0  3.700375  0  0  0.143162  0  3.993502  0  0  0.155076  0  4.005884  0  0  0.150721  0.135502  0  3.984825  0
C  C59  1  0.45109401  0.66062663  0.58871168  1  0  0.202303  0  3.700268  0  0  0.143278  0  3.993444  0  0  0.155209  0  4.005817  0  0  0.150753  0.135618  0  3.984763  0
C  C60  1  0.72337761  0.53005635  0.42863217  1  0  0.16909  0  3.625643  0  0  0.088628  0  3.891278  0  0  0.103189  0  3.902276  0  0  0.168447  0.079303  0  3.883789  0
C  C61  1  0.27662553  0.46994324  0.57136644  1  0  0.169068  0  3.625446  0  0  0.08859  0  3.891081  0  0  0.103135  0  3.902093  0  0  0.168427  0.07926  0  3.883597  0
C  C62  1  0.50428621  0.28323158  0.71568547  1  0  0.177754  0  3.731642  0  0  0.131111  0  4.015546  0  0  0.140484  0  4.029659  0  0  0.134197  0.12507  0  4.005822  0
C  C63  1  0.49570447  0.71677745  0.28431222  1  0  0.177676  0  3.731698  0  0  0.130977  0  4.015583  0  0  0.140353  0  4.029696  0  0  0.134018  0.124926  0  4.005868  0
C  C64  1  0.43383705  0.30151823  0.86158376  1  0  0.179637  0  3.597238  0  0  0.101565  0  3.856855  0  0  0.115556  0  3.867621  0  0  0.168736  0.09245  0  3.849583  0
C  C65  1  0.56616143  0.69848605  0.13841650  1  0  0.179637  0  3.597047  0  0  0.101633  0  3.85674  0  0  0.115627  0  3.867506  0  0  0.168776  0.092521  0  3.849467  0
C  C66  1  0.82775378  0.59631473  0.63272985  1  0  -0.006609  0  3.615652  0  0  -0.08339  0  3.881741  0  0  -0.07895  0  3.892701  0  0  -0.043303  -0.086011  0  3.873921  0
C  C67  1  0.17224997  0.40368361  0.36726484  1  0  -0.006731  0  3.615874  0  0  -0.08358  0  3.88205  0  0  -0.079152  0  3.893031  0  0  -0.043354  -0.086207  0  3.874237  0
C  C68  1  0.97906365  0.68240505  0.62890525  1  0  -0.121493  0  3.703162  0  0  -0.165734  0  3.973041  0  0  -0.167235  0  3.987202  0  0  -0.159953  -0.164362  0  3.963035  0
C  C69  1  0.02094362  0.31759431  0.37109314  1  0  -0.121353  0  3.702998  0  0  -0.165561  0  3.972837  0  0  -0.167073  0  3.987001  0  0  -0.15989  -0.164177  0  3.962814  0
C  C70  1  0.06573172  0.78366460  0.74226580  1  0  -0.105008  0  3.686461  0  0  -0.136899  0  3.939121  0  0  -0.137945  0  3.955195  0  0  -0.165494  -0.136003  0  3.928203  0
C  C71  1  0.93427307  0.21633372  0.25772980  1  0  -0.105006  0  3.686593  0  0  -0.136823  0  3.939106  0  0  -0.137851  0  3.955156  0  0  -0.165442  -0.135922  0  3.928184  0
C  C72  1  0.22286925  0.87109000  0.75018608  1  0  -0.096582  0  3.678636  0  0  -0.138014  0  3.940606  0  0  -0.138665  0  3.954806  0  0  -0.168032  -0.137475  0  3.930972  0
C  C73  1  0.77713712  0.12891274  0.24981352  1  0  -0.096697  0  3.678602  0  0  -0.1382  0  3.940621  0  0  -0.138866  0  3.954813  0  0  -0.168088  -0.137659  0  3.930982  0
C  C74  1  0.29788645  0.96854761  0.86641001  1  0  -0.127407  0  3.694832  0  0  -0.169342  0  3.961065  0  0  -0.171505  0  3.977161  0  0  -0.166142  -0.167906  0  3.95021  0
C  C75  1  0.70211849  0.03145408  0.13358845  1  0  -0.127483  0  3.694956  0  0  -0.169388  0  3.96106  0  0  -0.171524  0  3.977135  0  0  -0.166136  -0.16795  0  3.950205  0
C  C76  1  0.45563744  0.06427597  0.88693988  1  0  -0.026457  0  3.605545  0  0  -0.104846  0  3.865104  0  0  -0.101862  0  3.876069  0  0  -0.052598  -0.106549  0  3.857841  0
C  C77  1  0.54436536  0.93572565  0.11305219  1  0  -0.026544  0  3.605657  0  0  -0.104731  0  3.865067  0  0  -0.101741  0  3.876021  0  0  -0.052567  -0.106435  0  3.857804  0
N  N78  1  0.60947501  0.42492238  0.35428484  1  0  -0.410448  0  3.290705  0  0  -0.33127  0  3.609678  0  0  -0.35337  0  3.617884  0  0  -0.347457  -0.316483  0  3.60386  0
N  N79  1  0.39052864  0.57508160  0.64571459  1  0  -0.410501  0  3.29049  0  0  -0.331336  0  3.609522  0  0  -0.353437  0  3.61773  0  0  -0.347484  -0.316544  0  3.6037  0
N  N80  1  0.61887002  0.38679599  0.51610858  1  0  -0.271613  0  2.871364  0  0  -0.26461  0  3.134825  0  0  -0.274254  0  3.149025  0  0  -0.216063  -0.257668  0  3.125001  0
N  N81  1  0.38113389  0.61319689  0.48388749  1  0  -0.271718  0  2.871422  0  0  -0.26473  0  3.134901  0  0  -0.274388  0  3.149098  0  0  -0.216082  -0.257786  0  3.125078  0
N  N82  1  0.72954243  0.50777442  0.52563256  1  0  0.045289  0  3.55413  0  0  0.161975  0  3.750471  0  0  0.151114  0  3.775513  0  0  -0.12781  0.167973  0  3.735891  0
N  N83  1  0.27045887  0.49222299  0.47436315  1  0  0.045415  0  3.554064  0  0  0.162131  0  3.750417  0  0  0.151326  0  3.775358  0  0  -0.127775  0.168127  0  3.735841  0
N  N84  1  0.45893150  0.37301487  0.78955435  1  0  -0.417051  0  3.266132  0  0  -0.338385  0  3.569634  0  0  -0.36084  0  3.581513  0  0  -0.352596  -0.323081  0  3.561447  0
N  N85  1  0.54106934  0.62699600  0.21045040  1  0  -0.416943  0  3.266108  0  0  -0.338249  0  3.569579  0  0  -0.3607  0  3.581447  0  0  -0.352458  -0.322941  0  3.561394  0
N  N86  1  0.50832502  0.16131553  0.73847494  1  0  -0.265021  0  2.82066  0  0  -0.270121  0  3.073869  0  0  -0.277253  0  3.086481  0  0  -0.22688  -0.265391  0  3.065653  0
N  N87  1  0.49167222  0.83869416  0.26151998  1  0  -0.264991  0  2.820253  0  0  -0.270014  0  3.073503  0  0  -0.277146  0  3.08611  0  0  -0.226825  -0.26528  0  3.065284  0
N  N88  1  0.46366666  0.17538570  0.83145973  1  0  0.053803  0  3.547843  0  0  0.176211  0  3.735611  0  0  0.167887  0  3.755852  0  0  -0.129445  0.181481  0  3.722071  0
N  N89  1  0.53633176  0.82461844  0.16853519  1  0  0.053867  0  3.547429  0  0  0.176043  0  3.735364  0  0  0.167718  0  3.755603  0  0  -0.129469  0.181319  0  3.721813  0
O  O90  1  0.67684802  0.39087649  0.10248712  1  0  -0.664881  0  2.028095  0  0  -0.592862  0  2.306485  0  0  -0.621508  0  2.291004  0  0  -0.343006  -0.572556  0  2.316334  0
O  O91  1  0.32313958  0.60913274  0.89751169  1  0  -0.664863  0  2.028234  0  0  -0.592816  0  2.306556  0  0  -0.621459  0  2.291071  0  0  -0.342989  -0.572536  0  2.316468  0
O  O92  1  0.86213352  0.54975347  0.24482861  1  0  -0.624555  0  1.890656  0  0  -0.583038  0  2.104887  0  0  -0.604644  0  2.095922  0  0  -0.336669  -0.567673  0  2.110306  0
O  O93  1  0.13786398  0.45023327  0.75517084  1  0  -0.62447  0  1.890834  0  0  -0.582952  0  2.105066  0  0  -0.604556  0  2.096097  0  0  -0.336706  -0.56759  0  2.110493  0
O  O94  1  0.34225260  0.30880080  0.10174081  1  0  -0.648624  0  2.015542  0  0  -0.577277  0  2.282225  0  0  -0.606213  0  2.268205  0  0  -0.337031  -0.556841  0  2.29134  0
O  O95  1  0.65773915  0.69120525  0.89827020  1  0  -0.648627  0  2.015618  0  0  -0.577218  0  2.282209  0  0  -0.606155  0  2.268195  0  0  -0.33701  -0.556781  0  2.291323  0
O  O96  1  0.36484202  0.15361307  0.19827180  1  0  -0.623896  0  1.955277  0  0  -0.580196  0  2.186201  0  0  -0.601856  0  2.174824  0  0  -0.321762  -0.564789  0  2.193524  0
O  O97  1  0.63516844  0.84638933  0.80172376  1  0  -0.623843  0  1.955233  0  0  -0.580166  0  2.186164  0  0  -0.601836  0  2.174807  0  0  -0.321752  -0.564756  0  2.193485  0
