# generated using pymatgen
data_CuH11C13BrN2O
_symmetry_space_group_name_H-M   'P 1'
_cell_length_a   7.00177798
_cell_length_b   11.09116182
_cell_length_c   15.31772525
_cell_angle_alpha   90.00119128
_cell_angle_beta   90.00098144
_cell_angle_gamma   94.77122050
_symmetry_Int_Tables_number   1
_chemical_formula_structural   CuH11C13BrN2O
_chemical_formula_sum   'Cu4 H44 C52 Br4 N8 O4'
_cell_volume   1185.41960698
_cell_formula_units_Z   4
loop_
 _symmetry_equiv_pos_site_id
 _symmetry_equiv_pos_as_xyz
  1  'x, y, z'
loop_
 _atom_site_type_symbol
 _atom_site_label
 _atom_site_symmetry_multiplicity
 _atom_site_fract_x
 _atom_site_fract_y
 _atom_site_fract_z
 _atom_site_occupancy
 _atom_site_hle17_ddec_charge
 _atom_site_hle17_ddec_spin_density
 _atom_site_hle17_ddec_sum_bond_order
 _atom_site_hle17_magmom
 _atom_site_hse06_10hf_ddec_charge
 _atom_site_hse06_10hf_ddec_spin_density
 _atom_site_hse06_10hf_ddec_sum_bond_order
 _atom_site_hse06_10hf_magmom
 _atom_site_hse06_ddec_charge
 _atom_site_hse06_ddec_spin_density
 _atom_site_hse06_ddec_sum_bond_order
 _atom_site_hse06_magmom
 _atom_site_pbe_cm5_charge
 _atom_site_pbe_ddec_charge
 _atom_site_pbe_ddec_spin_density
 _atom_site_pbe_ddec_sum_bond_order
 _atom_site_pbe_magmom
Cu  Cu0  1  0.32998806  0.06908716  0.70055753  1  0.732669  0.651742  1.928601  0.465  0.708125  0.751968  2.342734  0.584  0.802908  0.828491  2.263116  0.671  0.629931  0.655069  0.70008  2.392997  0.53
Cu  Cu1  1  0.16978718  0.93087978  0.20052829  1  0.7323  0.650904  1.928891  0.464  0.708091  0.752118  2.342865  0.584  0.80294  0.828338  2.26322  0.671  0.629779  0.655088  0.701355  2.393154  0.532
Cu  Cu2  1  0.66978830  0.93087699  0.29946792  1  0.732408  0.650967  1.928931  0.464  0.708069  0.752047  2.342987  0.584  0.802833  0.828329  2.263337  0.671  0.629748  0.655057  0.701086  2.393183  0.531
Cu  Cu3  1  0.82997815  0.06907621  0.79944560  1  0.73294  -0.705377  1.928501  -0.465  0.708281  -0.801137  2.342617  -0.584  0.802987  -0.898775  2.263058  -0.671  0.630003  0.655228  -0.734285  2.392933  -0.53
H  H4  1  0.24744472  0.95037211  0.46533699  1  0.096994  0.004414  0.971241  0.007  0.106628  0.003093  1.03722  0.004  0.110028  0.002286  1.032488  0.003  0.10476  0.104183  0.003653  1.040366  0.005
H  H5  1  0.25259662  0.04962162  0.96532616  1  0.097151  0.004374  0.971397  0.007  0.106725  0.003047  1.037439  0.004  0.11011  0.00224  1.03272  0.003  0.10481  0.104271  0.00361  1.0406  0.005
H  H6  1  0.75263423  0.04962428  0.53466562  1  0.097206  0.004655  0.971404  0.007  0.10675  0.003091  1.037468  0.004  0.110124  0.002286  1.032768  0.003  0.104819  0.104325  0.003655  1.040577  0.005
H  H7  1  0.74744359  0.95038466  0.03466143  1  0.097119  -0.004966  0.971222  -0.007  0.106696  -0.003262  1.037216  -0.004  0.110089  -0.002442  1.032494  -0.003  0.104827  0.104264  -0.003811  1.040354  -0.005
H  H8  1  0.43862663  0.56208800  0.54737247  1  0.084848  0.000393  0.975833  0.001  0.097925  0.000307  1.03766  0.0  0.099913  0.000188  1.03896  0.0  0.090899  0.096473  0.000409  1.036948  0.0
H  H9  1  0.06137824  0.43792169  0.04737218  1  0.084832  0.0003  0.975841  0.0  0.097862  0.000266  1.037741  0.0  0.099849  0.000161  1.039046  0.0  0.090883  0.096409  0.000355  1.037034  0.0
H  H10  1  0.56136775  0.43791728  0.45262818  1  0.084786  0.000374  0.975923  0.0  0.097841  0.000284  1.037796  0.0  0.099827  0.000174  1.039101  0.0  0.090882  0.096393  0.00038  1.03708  0.0
H  H11  1  0.93863980  0.56208997  0.95262586  1  0.084793  -0.000466  0.975885  -0.001  0.097852  -0.000281  1.037724  0.0  0.09984  -0.000178  1.039024  0.0  0.090864  0.096406  -0.000363  1.037012  0.0
H  H12  1  0.11809049  0.13917196  0.39534089  1  0.134364  0.001202  0.954012  0.001  0.142374  0.000965  1.015166  0.001  0.147105  0.00065  1.013534  0.001  0.112353  0.139125  0.001237  1.016222  0.001
H  H13  1  0.38189538  0.86081045  0.89533607  1  0.134365  0.001179  0.954016  0.001  0.142476  0.000945  1.015065  0.001  0.147212  0.000626  1.013423  0.001  0.112356  0.139213  0.001221  1.016149  0.001
H  H14  1  0.88189399  0.86081159  0.60466302  1  0.134385  0.000452  0.95398  0.001  0.142454  0.000324  1.01507  0.001  0.147187  0.000285  1.013431  0.001  0.112369  0.139192  0.000339  1.016151  0.001
H  H15  1  0.61808134  0.13917942  0.10465870  1  0.134419  -0.000501  0.953921  -0.001  0.142389  -0.000356  1.015159  -0.001  0.147119  -0.000305  1.013529  -0.001  0.11236  0.139137  -0.000375  1.016219  -0.001
H  H16  1  0.58523209  0.72443173  0.79699945  1  0.10416  -0.000172  0.98321  0.0  0.114744  7.5e-05  1.046274  0.0  0.116912  4.8e-05  1.047017  0.0  0.097619  0.11321  9.8e-05  1.045852  0.0
H  H17  1  0.91473976  0.27556521  0.29698645  1  0.104109  -0.000171  0.98316  0.0  0.114647  6.5e-05  1.04631  0.0  0.116797  6e-05  1.047062  0.0  0.097584  0.11311  6.9e-05  1.045884  0.0
H  H18  1  0.41474810  0.27555181  0.20300773  1  0.104128  -0.000176  0.983199  0.0  0.11469  3.7e-05  1.046307  0.0  0.116848  3.9e-05  1.047051  0.0  0.097587  0.113157  3.5e-05  1.045882  0.0
H  H19  1  0.08523918  0.72443099  0.70300441  1  0.104181  0.000119  0.983209  0.0  0.114735  -8.2e-05  1.046295  0.0  0.116894  -5.7e-05  1.047044  0.0  0.097609  0.113198  -0.000102  1.045874  0.0
H  H20  1  0.20660999  0.33142512  0.68467676  1  0.074752  0.001188  0.97801  0.002  0.083401  0.001195  1.044779  0.002  0.085589  0.000855  1.042042  0.001  0.106935  0.08159  0.001482  1.046986  0.002
H  H21  1  0.29340512  0.66857979  0.18467197  1  0.074695  0.001215  0.978045  0.002  0.083362  0.001227  1.044831  0.002  0.085553  0.000889  1.042091  0.001  0.106889  0.08157  0.001511  1.047016  0.002
H  H22  1  0.79338799  0.66857474  0.31532193  1  0.074687  0.001138  0.978086  0.002  0.083363  0.00118  1.04485  0.002  0.085556  0.000867  1.042105  0.001  0.106905  0.081568  0.001429  1.047045  0.002
H  H23  1  0.70661262  0.33141830  0.81532476  1  0.074657  -0.001204  0.978068  -0.002  0.083315  -0.001228  1.044861  -0.002  0.085505  -0.00091  1.042121  -0.001  0.106896  0.08153  -0.001474  1.04705  -0.002
H  H24  1  0.32098033  0.75479603  0.49567191  1  0.100604  0.001269  0.978351  0.0  0.113308  0.001232  1.037994  0.0  0.115842  0.000929  1.036358  0.0  0.090226  0.111468  0.001449  1.039046  0.0
H  H25  1  0.17903421  0.24521397  0.99566735  1  0.100659  0.001282  0.978368  0.0  0.113404  0.001233  1.037939  0.0  0.115957  0.000923  1.036243  0.0  0.090254  0.111565  0.001457  1.038968  0.0
H  H26  1  0.67901393  0.24520835  0.50433658  1  0.100728  -0.001609  0.978256  0.0  0.113436  -0.001287  1.037855  0.0  0.115967  -0.001031  1.036225  0.0  0.090274  0.11161  -0.001441  1.038883  0.0
H  H27  1  0.82098811  0.75479770  0.00432873  1  0.100644  0.001517  0.978295  0.0  0.11333  0.0012  1.037966  0.0  0.115863  0.000954  1.036334  0.0  0.09024  0.111501  0.001354  1.039003  0.0
H  H28  1  0.09689443  0.45576510  0.56003082  1  0.095532  0.000546  0.960661  0.001  0.107308  0.000518  1.020733  0.001  0.110032  0.000379  1.02017  0.0  0.104238  0.105278  0.000626  1.021456  0.001
H  H29  1  0.40311804  0.54423323  0.06002829  1  0.09561  0.00053  0.960597  0.001  0.107341  0.000478  1.020729  0.001  0.110069  0.00035  1.020161  0.0  0.104228  0.1053  0.000578  1.021468  0.001
H  H30  1  0.90310251  0.54422662  0.43996722  1  0.095611  0.000572  0.960614  0.001  0.107362  0.000522  1.020712  0.001  0.11012  0.000384  1.020107  0.0  0.104247  0.105307  0.000629  1.021461  0.001
H  H31  1  0.59689697  0.45576576  0.93997236  1  0.095535  -0.000566  0.960668  -0.001  0.107314  -0.000503  1.02072  -0.001  0.11004  -0.000378  1.020155  0.0  0.104244  0.105293  -0.000591  1.021439  -0.001
H  H32  1  0.04685769  0.35596623  0.41283374  1  0.084539  0.000112  0.955339  0.0  0.097797  -2.9e-05  1.014795  0.0  0.100534  -3.4e-05  1.012554  0.0  0.105788  0.095719  -1.2e-05  1.016647  0.0
H  H33  1  0.45314376  0.64402128  0.91283210  1  0.08457  5.5e-05  0.955409  0.0  0.097846  -6.5e-05  1.014857  0.0  0.100584  -6.3e-05  1.012615  0.0  0.105819  0.09577  -5.4e-05  1.01671  0.0
H  H34  1  0.95314177  0.64402278  0.58716430  1  0.084544  0.000128  0.95529  0.0  0.097794  -8e-06  1.014765  0.0  0.10054  -1.1e-05  1.012527  0.0  0.105784  0.095717  4e-06  1.016622  0.0
H  H35  1  0.54685210  0.35597315  0.08716594  1  0.084582  -0.00013  0.955334  0.0  0.097841  2e-05  1.014791  0.0  0.10058  2e-05  1.012552  0.0  0.105791  0.095766  1.2e-05  1.016642  0.0
H  H36  1  0.68293126  0.53014428  0.76447984  1  0.101958  -8.2e-05  0.97716  0.0  0.123639  -5.5e-05  1.039294  0.0  0.124276  -4.4e-05  1.040774  0.0  0.086738  0.123139  -6.7e-05  1.038317  0.0
H  H37  1  0.81706720  0.46985804  0.26447878  1  0.101944  -4.2e-05  0.977227  0.0  0.123632  -8e-06  1.039337  0.0  0.124269  -6e-06  1.04082  0.0  0.086747  0.12313  -1e-05  1.038356  0.0
H  H38  1  0.31706449  0.46984924  0.23552016  1  0.101923  -3.8e-05  0.977218  0.0  0.123606  -1.6e-05  1.03936  0.0  0.124244  -1.1e-05  1.040843  0.0  0.086732  0.123106  -1.9e-05  1.03838  0.0
H  H39  1  0.18293518  0.53014273  0.73551991  1  0.101908  7.6e-05  0.977223  0.0  0.123605  5.2e-05  1.039338  0.0  0.124244  4.2e-05  1.040817  0.0  0.086716  0.123102  6.3e-05  1.03836  0.0
H  H40  1  0.69327164  0.48088937  0.65406494  1  0.108095  4.7e-05  0.941608  0.0  0.130844  -7.7e-05  1.000637  0.0  0.132234  -5.1e-05  1.000033  0.0  0.086787  0.129847  -9e-05  1.000961  0.0
H  H41  1  0.80672329  0.51911768  0.15406519  1  0.108107  0.000354  0.941605  0.0  0.1308  0.000253  1.00069  0.0  0.132195  0.000197  1.000076  0.0  0.086774  0.129798  0.000297  1.001027  0.0
H  H42  1  0.30672862  0.51910597  0.34593571  1  0.108024  0.000372  0.941709  0.0  0.130803  0.000259  1.000704  0.0  0.132193  0.000197  1.000097  0.0  0.086802  0.129798  0.000311  1.001041  0.0
H  H43  1  0.19327870  0.48089124  0.84593546  1  0.108114  -8.9e-05  0.941632  0.0  0.130851  6.1e-05  1.000674  0.0  0.132243  3.2e-05  1.000068  0.0  0.086787  0.129851  7.9e-05  1.001001  0.0
H  H44  1  0.48528585  0.44399267  0.71580996  1  0.105465  0.000101  0.961826  0.0  0.124964  3.8e-05  1.030048  0.0  0.12547  5.8e-05  1.03035  0.0  0.086972  0.124415  2.4e-05  1.02995  0.0
H  H45  1  0.01471449  0.55601045  0.21581369  1  0.105432  0.000154  0.961836  0.0  0.124931  0.000116  1.030035  0.0  0.125438  0.000118  1.030335  0.0  0.086966  0.124376  0.000112  1.02995  0.0
H  H46  1  0.51471703  0.55600086  0.28419004  1  0.105505  0.000182  0.961849  0.0  0.124982  0.00012  1.030094  0.0  0.125489  0.000121  1.030394  0.0  0.086992  0.124427  0.000118  1.030007  0.0
H  H47  1  0.98529074  0.44399033  0.78418631  1  0.105491  -0.000132  0.961791  0.0  0.124994  -4.1e-05  1.030004  0.0  0.125501  -6.5e-05  1.030304  0.0  0.086987  0.124443  -2.1e-05  1.029915  0.0
C  C48  1  0.20526934  0.12506939  0.53013856  1  0.202421  0.004596  3.774798  0.006  0.203009  0.003396  4.02109  0.004  0.208925  0.002195  4.042431  0.003  0.11319  0.199116  0.004284  4.007316  0.005
C  C49  1  0.29474047  0.87492801  0.03013361  1  0.202393  0.00507  3.77476  0.006  0.203051  0.003686  4.021043  0.004  0.208955  0.002478  4.042379  0.003  0.113141  0.199162  0.004582  4.007287  0.005
C  C50  1  0.79475246  0.87492690  0.46986275  1  0.202428  0.004907  3.774754  0.006  0.203054  0.003552  4.021066  0.004  0.20897  0.002348  4.042375  0.003  0.113105  0.199152  0.004452  4.007312  0.005
C  C51  1  0.70525883  0.12507094  0.96986313  1  0.202387  -0.005596  3.774843  -0.006  0.202997  -0.003806  4.021093  -0.004  0.208916  -0.002658  4.042425  -0.003  0.113145  0.199099  -0.004621  4.007331  -0.005
C  C52  1  0.25803504  0.00167275  0.52666343  1  0.060556  -0.024884  3.609215  -0.024  0.022329  -0.006018  3.866505  -0.008  0.035886  -0.00807  3.875634  -0.01  0.056412  0.013069  -0.00437  3.861948  -0.007
C  C53  1  0.24195439  0.99832270  0.02664751  1  0.060497  -0.025685  3.609451  -0.025  0.022215  -0.006156  3.866809  -0.008  0.035802  -0.008228  3.875925  -0.01  0.056386  0.012972  -0.004463  3.862259  -0.007
C  C54  1  0.74197225  0.99832170  0.47334897  1  0.06051  -0.025641  3.609193  -0.025  0.022231  -0.00619  3.86663  -0.008  0.035812  -0.008245  3.875747  -0.01  0.056379  0.012974  -0.004552  3.86206  -0.007
C  C55  1  0.75803061  0.00167623  0.97333877  1  0.060461  0.022792  3.609167  0.025  0.022322  0.005082  3.86645  0.008  0.035884  0.006914  3.875572  0.01  0.056385  0.013066  0.003611  3.861887  0.006
C  C56  1  0.44258037  0.64022940  0.59078421  1  -0.182198  -0.002241  3.797886  -0.002  -0.20541  -0.000232  4.053801  0.0  -0.216277  -0.000583  4.082075  0.0  -0.119423  -0.198158  0.000113  4.034729  0.0
C  C57  1  0.05742584  0.35977801  0.09078142  1  -0.182039  -3.4e-05  3.797801  0.0  -0.205371  -0.000109  4.053822  0.0  -0.216247  -0.000511  4.082109  0.0  -0.119446  -0.198126  0.000336  4.034756  0.001
C  C58  1  0.55742104  0.35977499  0.40921774  1  -0.182049  -0.001332  3.798004  -0.001  -0.205338  -0.000397  4.053935  0.0  -0.216203  -0.000675  4.082216  0.0  -0.119457  -0.198096  -0.000157  4.034867  0.0
C  C59  1  0.94258592  0.64022911  0.90921532  1  -0.182229  0.003607  3.797971  0.003  -0.205336  0.000432  4.053786  0.0  -0.216206  0.000593  4.08207  0.001  -0.119416  -0.198095  0.000367  4.034717  0.0
C  C60  1  0.45022132  0.83987699  0.70651441  1  0.310443  0.003607  3.854292  -0.001  0.302743  0.003119  4.118518  0.001  0.322608  0.002908  4.136711  0.001  0.087102  0.289058  0.003312  4.106658  0.0
C  C61  1  0.04975767  0.16012942  0.20649812  1  0.310394  0.003339  3.854548  -0.001  0.302897  0.002958  4.118681  0.001  0.322784  0.002779  4.136872  0.001  0.087337  0.289194  0.00314  4.106839  0.0
C  C62  1  0.54975762  0.16011921  0.29350060  1  0.310327  0.003455  3.854262  -0.001  0.302873  0.002933  4.118381  0.001  0.322754  0.002766  4.136567  0.001  0.087231  0.289171  0.003113  4.106521  0.0
C  C63  1  0.95021506  0.83987401  0.79348882  1  0.310426  -0.00425  3.854582  0.0  0.302628  -0.003349  4.118939  -0.001  0.322492  -0.003182  4.137138  -0.001  0.087128  0.288943  -0.003463  4.107093  0.0
C  C64  1  0.38206923  0.84755971  0.61853116  1  0.055423  -0.000644  3.817634  -0.002  0.054386  0.001599  4.064896  0.0  0.048102  5.3e-05  4.094084  -0.002  0.063978  0.058789  0.002785  4.045824  0.001
C  C65  1  0.11790543  0.15243855  0.11851398  1  0.056024  0.001253  3.817158  -0.001  0.05457  0.001898  4.064787  0.0  0.048276  0.000231  4.093986  -0.002  0.064068  0.058983  0.003222  4.045718  0.001
C  C66  1  0.61790628  0.15243197  0.38148515  1  0.056051  0.001071  3.817029  -0.001  0.054598  0.001835  4.064635  0.0  0.048308  0.000173  4.093824  -0.002  0.064092  0.059001  0.003143  4.045559  0.001
C  C67  1  0.88206946  0.84755945  0.88147361  1  0.055373  0.00015  3.817714  0.002  0.054398  -0.001999  4.065007  0.0  0.048114  -0.000513  4.094195  0.002  0.063994  0.058803  -0.00312  4.045937  -0.001
C  C68  1  0.13632018  0.18572265  0.45812935  1  -0.125767  -0.00099  3.642151  -0.001  -0.144145  0.00078  3.887754  0.001  -0.149518  0.000299  3.905164  0.0  -0.071963  -0.14061  0.00125  3.876038  0.001
C  C69  1  0.36368468  0.81426717  0.95812565  1  -0.125792  -0.001315  3.64202  -0.001  -0.144241  0.000821  3.887565  0.001  -0.149621  0.000284  3.90498  0.0  -0.072015  -0.140701  0.001353  3.875854  0.001
C  C70  1  0.86368830  0.81427000  0.54187325  1  -0.125734  -0.002742  3.641892  -0.002  -0.144148  -9.6e-05  3.887456  0.0  -0.149524  -0.000272  3.904868  0.0  -0.071941  -0.140609  9.1e-05  3.875748  0.0
C  C71  1  0.63631095  0.18572545  0.04187173  1  -0.125639  0.002026  3.641811  0.002  -0.143999  -0.000207  3.887418  0.0  -0.149376  -5.9e-05  3.904835  0.0  -0.071909  -0.140459  -0.000345  3.8757  0.0
C  C72  1  0.52120460  0.63175194  0.67558230  1  0.167477  0.004913  3.786166  0.005  0.19508  0.001554  4.018802  0.002  0.199236  0.001705  4.044218  0.002  -0.01004  0.192176  0.001424  4.001529  0.002
C  C73  1  0.97878349  0.36825124  0.17557642  1  0.167511  0.004319  3.786006  0.005  0.195158  0.001624  4.018659  0.002  0.199319  0.001772  4.044072  0.002  -0.01006  0.192253  0.00148  4.001382  0.002
C  C74  1  0.47878457  0.36824610  0.32442096  1  0.167338  0.004566  3.786344  0.005  0.194984  0.001533  4.018956  0.002  0.199141  0.001701  4.04437  0.002  -0.010098  0.192081  0.001397  4.001688  0.002
C  C75  1  0.02121317  0.63174952  0.82441901  1  0.167489  -0.006123  3.786229  -0.006  0.195105  -0.001692  4.018791  -0.002  0.19926  -0.001885  4.044205  -0.002  -0.010002  0.192203  -0.001543  4.001524  -0.002
C  C76  1  0.52396004  0.73016711  0.73194194  1  -0.250984  0.003296  3.677438  0.004  -0.271698  0.003013  3.915932  0.003  -0.281767  0.001578  3.936769  0.002  -0.111605  -0.264683  0.004173  3.901656  0.004
C  C77  1  0.97602135  0.26983418  0.23192934  1  -0.250988  0.004402  3.677591  0.005  -0.271762  0.002976  3.916104  0.003  -0.281809  0.001547  3.93691  0.002  -0.111621  -0.264747  0.004171  3.90184  0.005
C  C78  1  0.47602238  0.26982277  0.26806785  1  -0.250855  0.003414  3.677409  0.004  -0.271584  0.002762  3.915801  0.003  -0.281635  0.001419  3.936617  0.002  -0.11152  -0.264572  0.003784  3.901529  0.004
C  C79  1  0.02396388  0.73016656  0.76806021  1  -0.251082  -0.002334  3.67739  -0.003  -0.271671  -0.003055  3.915865  -0.003  -0.281727  -0.001722  3.936692  -0.002  -0.11162  -0.264664  -0.003996  3.9016  -0.004
C  C80  1  0.18868288  0.29457242  0.61900217  1  0.145784  -0.005654  3.719267  -0.006  0.117585  -0.001364  3.968475  -0.003  0.128909  -0.002122  3.984218  -0.003  0.048451  0.110003  -0.000783  3.958889  -0.002
C  C81  1  0.31133941  0.70542957  0.11899873  1  0.145683  -0.00535  3.719503  -0.006  0.117489  -0.000952  3.968642  -0.002  0.128813  -0.001724  3.984384  -0.003  0.048444  0.109891  -0.000383  3.959071  -0.002
C  C82  1  0.81133190  0.70542476  0.38099717  1  0.145831  -0.005551  3.719313  -0.006  0.117626  -0.00115  3.968449  -0.002  0.128944  -0.001895  3.984199  -0.003  0.048483  0.110026  -0.00061  3.958867  -0.002
C  C83  1  0.68867703  0.29456942  0.88100062  1  0.145877  0.004624  3.719291  0.006  0.117613  0.000942  3.968535  0.002  0.128934  0.001602  3.984279  0.003  0.048488  0.110011  0.000462  3.958952  0.002
C  C84  1  0.37635272  0.74729628  0.56186271  1  -0.114383  0.007114  3.787742  0.007  -0.132532  0.004161  4.037703  0.005  -0.131029  0.003748  4.061034  0.004  -0.096999  -0.133122  0.004413  4.021569  0.005
C  C85  1  0.12365063  0.25270843  0.06185621  1  -0.114709  0.006133  3.787771  0.006  -0.132735  0.004256  4.037776  0.005  -0.131218  0.003842  4.061124  0.004  -0.097063  -0.13331  0.004503  4.021625  0.005
C  C86  1  0.62364418  0.25270630  0.43814512  1  -0.114778  0.004099  3.78769  0.004  -0.132768  0.002001  4.037685  0.002  -0.131261  0.002133  4.061019  0.002  -0.097089  -0.13336  0.001883  4.021549  0.002
C  C87  1  0.87635517  0.74729687  0.93813791  1  -0.114355  -0.005967  3.787766  -0.005  -0.132499  -0.00232  4.037699  -0.002  -0.130995  -0.002446  4.061034  -0.002  -0.096969  -0.133092  -0.002198  4.021566  -0.002
C  C88  1  0.12418603  0.36163205  0.54952148  1  -0.124338  0.002314  3.725506  0.003  -0.137412  0.002303  3.97525  0.003  -0.142335  0.001718  3.990875  0.002  -0.086452  -0.134373  0.002823  3.965065  0.004
C  C89  1  0.37583875  0.63836508  0.04952015  1  -0.12427  0.001874  3.725502  0.003  -0.13726  0.002165  3.975188  0.003  -0.14218  0.00152  3.990804  0.002  -0.086369  -0.134222  0.00278  3.965031  0.004
C  C90  1  0.87583269  0.63836242  0.45047525  1  -0.124372  0.00167  3.725549  0.003  -0.137377  0.002144  3.975219  0.003  -0.14232  0.001554  3.990835  0.002  -0.086476  -0.134327  0.002679  3.965058  0.003
C  C91  1  0.62418042  0.36163302  0.95048115  1  -0.12422  -0.001896  3.725336  -0.003  -0.137244  -0.00237  3.975066  -0.003  -0.142167  -0.001781  3.990699  -0.002  -0.086424  -0.134217  -0.002851  3.964895  -0.004
C  C92  1  0.09707458  0.30607379  0.46838946  1  0.002098  -0.004325  3.733128  -0.004  -0.017034  -0.002147  3.985654  -0.002  -0.010727  -0.002201  3.999048  -0.002  -0.06621  -0.021315  -0.002116  3.976776  -0.002
C  C93  1  0.40294095  0.69391817  0.96838883  1  0.00196  -0.003753  3.733091  -0.003  -0.017217  -0.001772  3.985711  -0.001  -0.010911  -0.001892  3.999108  -0.002  -0.066287  -0.021498  -0.001736  3.976838  -0.001
C  C94  1  0.90293534  0.69391885  0.53160923  1  0.002013  -0.003673  3.732951  -0.003  -0.017127  -0.001807  3.985491  -0.001  -0.010837  -0.001936  3.99891  -0.002  -0.066221  -0.021406  -0.00176  3.976608  -0.001
C  C95  1  0.59706514  0.30607808  0.03161051  1  0.001847  0.003569  3.73292  0.003  -0.017315  0.00191  3.985507  0.002  -0.01102  0.001913  3.998919  0.002  -0.066288  -0.021593  0.001928  3.976632  0.002
C  C96  1  0.60000392  0.51625026  0.70408924  1  -0.340215  0.000304  3.724749  0.0  -0.420305  0.00014  3.956216  0.0  -0.422357  6e-05  3.965818  0.0  -0.243374  -0.418455  0.000234  3.949497  0.0
C  C97  1  0.89999261  0.48375472  0.20408904  1  -0.340228  0.00076  3.7247  0.001  -0.42027  0.000554  3.956149  0.001  -0.422327  0.000354  3.965743  0.0  -0.243403  -0.418418  0.000744  3.949441  0.001
C  C98  1  0.39999491  0.48374508  0.29591011  1  -0.340191  0.000684  3.725079  0.001  -0.420297  0.000544  3.956507  0.001  -0.422349  0.000341  3.966112  0.0  -0.243417  -0.418445  0.000741  3.949796  0.001
C  C99  1  0.10000880  0.51624967  0.79590965  1  -0.340265  -0.000307  3.724911  0.0  -0.420343  -0.000137  3.956353  0.0  -0.422399  -6.8e-05  3.965953  0.0  -0.2434  -0.418488  -0.000211  3.949633  0.0
Br  Br100  1  0.22468749  0.17785454  0.82490146  1  -0.496453  0.117798  1.063447  0.111  -0.498234  0.070041  1.393487  0.067  -0.5335  0.054291  1.363392  0.053  -0.24483  -0.474698  0.07966  1.413936  0.074
Br  Br101  1  0.27553560  0.82225099  0.32488382  1  -0.496294  0.11568  1.063797  0.112  -0.498163  0.068206  1.394051  0.068  -0.533485  0.051662  1.363926  0.053  -0.244623  -0.474533  0.079117  1.414493  0.076
Br  Br102  1  0.77556088  0.82221636  0.17512922  1  -0.496449  0.109598  1.063767  0.106  -0.49819  0.065159  1.393978  0.065  -0.533482  0.05008  1.363866  0.052  -0.244685  -0.474629  0.073975  1.41441  0.071
Br  Br103  1  0.72470942  0.17787237  0.67510769  1  -0.49663  -0.122111  1.063318  -0.105  -0.498284  -0.072063  1.393297  -0.064  -0.533529  -0.05822  1.36324  -0.052  -0.244874  -0.474788  -0.078609  1.413756  -0.069
N  N104  1  0.32098557  0.95934747  0.59942906  1  -0.260408  0.097199  3.460545  0.122  -0.212694  0.070961  3.756048  0.094  -0.238555  0.06025  3.777117  0.085  -0.346124  -0.198972  0.076493  3.744745  0.098
N  N105  1  0.17895367  0.04064742  0.09940480  1  -0.260684  0.097838  3.46067  0.123  -0.212758  0.071366  3.756111  0.095  -0.238628  0.060632  3.777154  0.085  -0.346189  -0.199089  0.076937  3.744889  0.098
N  N106  1  0.67895543  0.04064233  0.40059118  1  -0.260721  0.097585  3.460421  0.122  -0.212773  0.071271  3.755871  0.094  -0.23862  0.060507  3.776885  0.085  -0.34618  -0.199078  0.076898  3.744572  0.098
N  N107  1  0.82098362  0.95934690  0.90057234  1  -0.260444  -0.105698  3.46049  -0.123  -0.212801  -0.075772  3.756029  -0.094  -0.238647  -0.065674  3.777082  -0.085  -0.346182  -0.199077  -0.080396  3.744765  -0.098
N  N108  1  0.22993631  0.18014892  0.60952683  1  -0.331796  0.067612  3.325934  0.085  -0.279936  0.055402  3.605075  0.073  -0.312054  0.046254  3.628331  0.065  -0.342699  -0.261676  0.060467  3.592365  0.077
N  N109  1  0.27008987  0.81985278  0.10952086  1  -0.33191  0.068543  3.325945  0.085  -0.280081  0.056203  3.605091  0.074  -0.312201  0.046786  3.628331  0.065  -0.342707  -0.261884  0.061533  3.592479  0.078
N  N110  1  0.77009013  0.81985009  0.39047773  1  -0.332098  0.068708  3.325966  0.085  -0.280246  0.056234  3.605111  0.074  -0.312349  0.046857  3.628321  0.065  -0.342742  -0.262027  0.061525  3.592447  0.078
N  N111  1  0.72992108  0.18014801  0.89047718  1  -0.331896  -0.072802  3.326034  -0.084  -0.280038  -0.059047  3.605222  -0.073  -0.312146  -0.050279  3.628472  -0.065  -0.342669  -0.261771  -0.063464  3.592541  -0.077
O  O112  1  0.44232459  0.93187468  0.76027240  1  -0.541512  0.113496  2.045626  0.148  -0.526781  0.069451  2.341294  0.098  -0.576367  0.053328  2.341908  0.08  -0.332617  -0.495653  0.079281  2.341973  0.108
O  O113  1  0.05767886  0.06813977  0.26025674  1  -0.541327  0.114536  2.045892  0.151  -0.526657  0.068682  2.341387  0.098  -0.57629  0.052274  2.342039  0.08  -0.332707  -0.495534  0.078911  2.342117  0.108
O  O114  1  0.55767613  0.06812428  0.23973935  1  -0.541292  0.113829  2.045772  0.15  -0.52666  0.068396  2.341249  0.098  -0.576279  0.052116  2.341883  0.08  -0.332661  -0.495541  0.078427  2.341999  0.108
O  O115  1  0.94229792  0.93186185  0.73973019  1  -0.541498  -0.121642  2.045913  -0.147  -0.526734  -0.073738  2.341668  -0.098  -0.576314  -0.05788  2.342304  -0.08  -0.33267  -0.495579  -0.08265  2.342315  -0.107
