# generated using pymatgen
data_UH4C6NO5
_symmetry_space_group_name_H-M   'P 1'
_cell_length_a   6.18171204
_cell_length_b   7.94305452
_cell_length_c   8.33533749
_cell_angle_alpha   79.78271645
_cell_angle_beta   88.07017292
_cell_angle_gamma   76.63736750
_symmetry_Int_Tables_number   1
_chemical_formula_structural   UH4C6NO5
_chemical_formula_sum   'U2 H8 C12 N2 O10'
_cell_volume   391.87252528
_cell_formula_units_Z   2
loop_
 _symmetry_equiv_pos_site_id
 _symmetry_equiv_pos_as_xyz
  1  'x, y, z'
loop_
 _atom_site_type_symbol
 _atom_site_label
 _atom_site_symmetry_multiplicity
 _atom_site_fract_x
 _atom_site_fract_y
 _atom_site_fract_z
 _atom_site_occupancy
 _atom_site_hle17_bader_spin_density
 _atom_site_hle17_ddec_charge
 _atom_site_hle17_ddec_spin_density
 _atom_site_hle17_ddec_sum_bond_order
 _atom_site_hle17_magmom
 _atom_site_hse06_10hf_bader_spin_density
 _atom_site_hse06_10hf_ddec_charge
 _atom_site_hse06_10hf_ddec_spin_density
 _atom_site_hse06_10hf_ddec_sum_bond_order
 _atom_site_hse06_10hf_magmom
 _atom_site_hse06_bader_spin_density
 _atom_site_hse06_ddec_charge
 _atom_site_hse06_ddec_spin_density
 _atom_site_hse06_ddec_sum_bond_order
 _atom_site_hse06_magmom
 _atom_site_pbe_bader_spin_density
 _atom_site_pbe_cm5_charge
 _atom_site_pbe_ddec_charge
 _atom_site_pbe_ddec_spin_density
 _atom_site_pbe_ddec_sum_bond_order
 _atom_site_pbe_magmom
U  U0  1  0.08290599  0.37316684  0.18756785  1  0  2.424303  0  4.461544  0  0  2.493508  0  5.155547  0  0  2.60728  0  5.122574  0  0  2.245555  2.415367  0  5.176772  0
U  U1  1  0.91709951  0.62682518  0.81243285  1  0  2.424267  0  4.461821  0  0  2.49361  0  5.155764  0  0  2.607467  0  5.122657  0  0  2.245625  2.415433  0  5.177015  0
H  H2  1  0.00782526  0.10146368  0.58424916  1  0  0.079539  0  0.953187  0  0  0.083482  0  1.025755  0  0  0.086172  0  1.022548  0  0  0.125313  0.081545  0  1.02793  0
H  H3  1  0.99217194  0.89854157  0.41574950  1  0  0.079534  0  0.953182  0  0  0.083478  0  1.02575  0  0  0.08617  0  1.022543  0  0  0.125307  0.081548  0  1.02793  0
H  H4  1  0.15888824  0.03574794  0.86753802  1  0  0.125081  0  0.938433  0  0  0.135989  0  0.993587  0  0  0.139401  0  0.991708  0  0  0.122401  0.133499  0  0.995236  0
H  H5  1  0.84110510  0.96425346  0.13246140  1  0  0.125094  0  0.938409  0  0  0.136011  0  0.993577  0  0  0.139423  0  0.991695  0  0  0.122403  0.13352  0  0.995226  0
H  H6  1  0.50618413  0.13598671  0.91916450  1  0  0.110864  0  0.924407  0  0  0.12085  0  0.980683  0  0  0.123576  0  0.978947  0  0  0.127788  0.118746  0  0.982173  0
H  H7  1  0.49380598  0.86401476  0.08084220  1  0  0.110964  0  0.924211  0  0  0.120837  0  0.980624  0  0  0.123563  0  0.978887  0  0  0.127759  0.118732  0  0.982114  0
H  H8  1  0.70942297  0.25963317  0.67704204  1  0  0.12912  0  0.962878  0  0  0.139244  0  1.020766  0  0  0.142954  0  1.018417  0  0  0.12185  0.136655  0  1.022453  0
H  H9  1  0.29057460  0.74037078  0.32296643  1  0  0.129072  0  0.962903  0  0  0.139221  0  1.020763  0  0  0.142932  0  1.018411  0  0  0.121851  0.136636  0  1.022456  0
C  C10  1  0.16523984  0.13088440  0.60953018  1  0  0.183992  0  3.644867  0  0  0.145129  0  3.926752  0  0  0.155225  0  3.939247  0  0  0.071454  0.138175  0  3.918488  0
C  C11  1  0.83475642  0.86911826  0.39047255  1  0  0.183964  0  3.644937  0  0  0.145098  0  3.926857  0  0  0.15519  0  3.939359  0  0  0.071454  0.138134  0  3.918601  0
C  C12  1  0.24945007  0.09721811  0.76862153  1  0  -0.05831  0  3.620852  0  0  -0.08974  0  3.889973  0  0  -0.0932  0  3.905929  0  0  -0.049792  -0.087944  0  3.879824  0
C  C13  1  0.75054619  0.90278455  0.23137880  1  0  -0.058236  0  3.620785  0  0  -0.089729  0  3.889944  0  0  -0.09319  0  3.905903  0  0  -0.049773  -0.08793  0  3.879802  0
C  C14  1  0.44297180  0.14903213  0.79622920  1  0  0.018986  0  3.645452  0  0  -0.000817  0  3.912425  0  0  0.0018  0  3.927739  0  0  -0.037557  -0.002411  0  3.902433  0
C  C15  1  0.55702353  0.85096794  0.20377640  1  0  0.018847  0  3.645524  0  0  -0.000856  0  3.912507  0  0  0.001758  0  3.927828  0  0  -0.037577  -0.002445  0  3.902516  0
C  C16  1  0.55598041  0.21871722  0.66266582  1  0  -0.060819  0  3.601537  0  0  -0.095894  0  3.859804  0  0  -0.097608  0  3.875458  0  0  -0.050487  -0.095268  0  3.84988  0
C  C17  1  0.44401911  0.78128538  0.33733684  1  0  -0.060753  0  3.601562  0  0  -0.09581  0  3.859784  0  0  -0.097527  0  3.875446  0  0  -0.050499  -0.095191  0  3.849874  0
C  C18  1  0.58807018  0.29237584  0.35442712  1  0  0.643305  0  3.883954  0  0  0.611097  0  4.176898  0  0  0.649417  0  4.166703  0  0  0.244742  0.585036  0  4.182641  0
C  C19  1  0.41193070  0.70762149  0.64557280  1  0  0.643387  0  3.883905  0  0  0.611166  0  4.176888  0  0  0.649488  0  4.166694  0  0  0.244765  0.585096  0  4.182623  0
C  C20  1  0.46734101  0.23778748  0.50686446  1  0  0.103214  0  3.737157  0  0  0.098527  0  3.996826  0  0  0.100237  0  4.015307  0  0  0.120829  0.096823  0  3.985008  0
C  C21  1  0.53266108  0.76221768  0.49313888  1  0  0.103288  0  3.737035  0  0  0.09851  0  3.996827  0  0  0.100221  0  4.015308  0  0  0.120877  0.096811  0  3.985004  0
N  N22  1  0.26966646  0.20207308  0.48067176  1  0  -0.388298  0  3.21645  0  0  -0.361973  0  3.508183  0  0  -0.382775  0  3.53196  0  0  -0.334297  -0.347844  0  3.492082  0
N  N23  1  0.73033862  0.79792679  0.51932881  1  0  -0.388298  0  3.216527  0  0  -0.361958  0  3.508288  0  0  -0.38277  0  3.532073  0  0  -0.334309  -0.347825  0  3.49218  0
O  O24  1  0.07232517  0.56255769  0.28732421  1  0  -0.644961  0  1.545713  0  0  -0.634722  0  1.825452  0  0  -0.659817  0  1.819981  0  0  -0.677014  -0.618614  0  1.829332  0
O  O25  1  0.92768640  0.43744205  0.71267141  1  0  -0.645034  0  1.545812  0  0  -0.634744  0  1.825499  0  0  -0.65985  0  1.820011  0  0  -0.677051  -0.618636  0  1.829381  0
O  O26  1  0.11095822  0.15827210  0.12662208  1  0  -0.679404  0  1.501692  0  0  -0.671936  0  1.784791  0  0  -0.699059  0  1.777709  0  0  -0.694303  -0.653919  0  1.789527  0
O  O27  1  0.88903749  0.84172010  0.87337165  1  0  -0.679356  0  1.501761  0  0  -0.671905  0  1.784871  0  0  -0.699042  0  1.77777  0  0  -0.694285  -0.653887  0  1.78961  0
O  O28  1  0.48170540  0.31966919  0.22122938  1  0  -0.600498  0  2.04976  0  0  -0.583222  0  2.307445  0  0  -0.617952  0  2.302853  0  0  -0.324252  -0.558696  0  2.309266  0
O  O29  1  0.51829984  0.68031760  0.77876982  1  0  -0.600585  0  2.049811  0  0  -0.583302  0  2.307477  0  0  -0.618055  0  2.302899  0  0  -0.324284  -0.558767  0  2.309264  0
O  O30  1  0.78983219  0.30046017  0.36743293  1  0  -0.633117  0  2.059318  0  0  -0.612215  0  2.325766  0  0  -0.647871  0  2.320746  0  0  -0.338842  -0.586226  0  2.327484  0
O  O31  1  0.21016799  0.69953979  0.63256416  1  0  -0.633164  0  2.059242  0  0  -0.612215  0  2.325655  0  0  -0.647884  0  2.320636  0  0  -0.338845  -0.586229  0  2.32737  0
O  O32  1  0.19561483  0.49281504  0.95857271  1  0  -0.752973  0  1.528724  0  0  -0.77733  0  1.836213  0  0  -0.807803  0  1.83013  0  0  -0.6734  -0.754934  0  1.839162  0
O  O33  1  0.80439218  0.50718347  0.04141724  1  0  -0.753017  0  1.52876  0  0  -0.77739  0  1.836253  0  0  -0.80787  0  1.830173  0  0  -0.673409  -0.754993  0  1.839204  0
