# generated using pymatgen
data_Yb2CuH18C22(NO9)2
_symmetry_space_group_name_H-M   'P 1'
_cell_length_a   6.58389654
_cell_length_b   7.95101916
_cell_length_c   13.05397294
_cell_angle_alpha   101.22112319
_cell_angle_beta   92.18221189
_cell_angle_gamma   102.38692052
_symmetry_Int_Tables_number   1
_chemical_formula_structural   Yb2CuH18C22(NO9)2
_chemical_formula_sum   'Yb2 Cu1 H18 C22 N2 O18'
_cell_volume   652.41506239
_cell_formula_units_Z   1
loop_
 _symmetry_equiv_pos_site_id
 _symmetry_equiv_pos_as_xyz
  1  'x, y, z'
loop_
 _atom_site_type_symbol
 _atom_site_label
 _atom_site_symmetry_multiplicity
 _atom_site_fract_x
 _atom_site_fract_y
 _atom_site_fract_z
 _atom_site_occupancy
 _atom_site_hle17_ddec_charge
 _atom_site_hle17_ddec_spin_density
 _atom_site_hle17_ddec_sum_bond_order
 _atom_site_hle17_magmom
 _atom_site_hse06_10hf_ddec_charge
 _atom_site_hse06_10hf_ddec_spin_density
 _atom_site_hse06_10hf_ddec_sum_bond_order
 _atom_site_hse06_10hf_magmom
 _atom_site_hse06_ddec_charge
 _atom_site_hse06_ddec_spin_density
 _atom_site_hse06_ddec_sum_bond_order
 _atom_site_hse06_magmom
 _atom_site_pbe_cm5_charge
 _atom_site_pbe_ddec_charge
 _atom_site_pbe_ddec_spin_density
 _atom_site_pbe_ddec_sum_bond_order
 _atom_site_pbe_magmom
Yb  Yb0  1  0.56051892  0.92911291  0.35295817  1  2.183262  0.00074  1.824054  0.002  2.120409  0.000717  2.15031  0.002  2.179963  0.00042  2.100072  0.001  1.619449  2.084987  0.001015  2.179231  0.003
Yb  Yb1  1  0.43948235  0.07088519  0.64704335  1  2.18324  0.00074  1.82405  0.002  2.120404  0.000717  2.150264  0.002  2.179815  0.000421  2.100281  0.001  1.619422  2.084977  0.001015  2.179176  0.003
Cu  Cu2  1  0.99999841  0.50000308  0.99999915  1  0.848516  0.702252  1.874423  0.523  0.810881  0.779206  2.281412  0.627  0.897951  0.83972  2.211064  0.706  0.767634  0.755841  0.735881  2.33129  0.575
H  H3  1  0.16016220  0.79747364  0.42559988  1  0.458437  1e-06  0.82812  0.0  0.427578  1e-06  0.891142  0.0  0.440099  1e-06  0.872688  0.0  0.308304  0.419266  1e-06  0.903437  0.0
H  H4  1  0.83984036  0.20252388  0.57440007  1  0.458442  2e-06  0.828118  0.0  0.427581  1e-06  0.891144  0.0  0.440101  1e-06  0.872691  0.0  0.308283  0.419267  1e-06  0.903438  0.0
H  H5  1  0.10082382  0.72719968  0.30070502  1  0.448949  5.8e-05  0.839499  0.0  0.419302  4.3e-05  0.900242  0.0  0.4322  4e-05  0.881325  0.0  0.300265  0.410715  5e-05  0.912866  0.0
H  H6  1  0.89917429  0.27279811  0.69929569  1  0.44895  5.8e-05  0.839501  0.0  0.419304  4.3e-05  0.900243  0.0  0.432201  4e-05  0.881327  0.0  0.300253  0.410716  5.1e-05  0.912867  0.0
H  H7  1  0.67222930  0.24619113  0.17066574  1  0.122314  0.000113  0.932066  0.0  0.132015  -8e-05  0.989838  0.0  0.135511  -8.4e-05  0.986911  0.0  0.121311  0.129427  -6.6e-05  0.992054  0.0
H  H8  1  0.32776539  0.75380620  0.82933024  1  0.122287  0.000112  0.932089  0.0  0.131928  -8e-05  0.989928  0.0  0.135474  -8.4e-05  0.986941  0.0  0.121295  0.129346  -6.6e-05  0.992146  0.0
H  H9  1  0.37242624  0.02779363  0.06481272  1  0.12433  0.000762  0.957002  0.001  0.132319  0.000681  1.016559  0.001  0.136793  0.000499  1.013989  0.0  0.11673  0.129193  0.000832  1.018452  0.001
H  H10  1  0.62757406  0.97220871  0.93517933  1  0.124395  0.00076  0.956934  0.001  0.132338  0.000681  1.016522  0.001  0.136808  0.000499  1.013955  0.0  0.116742  0.129212  0.000832  1.018414  0.001
H  H11  1  0.08314852  0.13951690  0.98586278  1  0.102632  0.000997  0.922778  0.002  0.111703  0.000824  0.980921  0.002  0.114522  0.000605  0.977989  0.001  0.130833  0.109506  0.000995  0.983228  0.002
H  H12  1  0.91685362  0.86048673  0.01412927  1  0.102595  0.000996  0.922831  0.002  0.111674  0.000824  0.980977  0.002  0.114494  0.000605  0.978044  0.001  0.130823  0.109479  0.000995  0.98328  0.002
H  H13  1  0.37383833  0.48808893  0.43328874  1  0.120173  -1e-06  0.92754  0.0  0.135008  1e-06  0.987657  0.0  0.137478  1e-06  0.986584  0.0  0.113151  0.133401  1e-06  0.988184  0.0
H  H14  1  0.62616383  0.51191231  0.56671432  1  0.120188  3e-06  0.927555  0.0  0.13501  1e-06  0.987704  0.0  0.137484  1e-06  0.986635  0.0  0.113149  0.133403  0.0  0.988225  0.0
H  H15  1  0.20941340  0.37502169  0.51551528  1  0.117945  -2e-06  0.936191  0.0  0.129998  -2e-06  0.996807  0.0  0.133482  -2e-06  0.994413  0.0  0.104049  0.127706  -2e-06  0.998147  0.0
H  H16  1  0.79059148  0.62497828  0.48448781  1  0.117923  -3e-06  0.93629  0.0  0.13002  -2e-06  0.996868  0.0  0.133516  -2e-06  0.99448  0.0  0.104043  0.127728  -2e-06  0.998212  0.0
H  H17  1  0.01152692  0.44923350  0.36528556  1  0.114643  1.7e-05  0.923899  0.0  0.132067  1.3e-05  0.977451  0.0  0.134215  1.5e-05  0.976701  0.0  0.109102  0.13061  1.1e-05  0.97789  0.0
H  H18  1  0.98847471  0.55076546  0.63471830  1  0.114655  1.8e-05  0.923849  0.0  0.132068  1.3e-05  0.977439  0.0  0.134216  1.5e-05  0.976687  0.0  0.109104  0.130611  1.1e-05  0.977873  0.0
H  H19  1  0.14186667  0.32455081  0.27420660  1  0.113807  -2.3e-05  0.928214  0.0  0.127026  -1.1e-05  0.986991  0.0  0.129026  -9e-06  0.987123  0.0  0.103873  0.125834  -1.4e-05  0.986582  0.0
H  H20  1  0.85813484  0.67544786  0.72579648  1  0.11378  -2.1e-05  0.928215  0.0  0.127034  -1.1e-05  0.986962  0.0  0.129035  -8e-06  0.987091  0.0  0.103864  0.125844  -1.4e-05  0.986554  0.0
C  C21  1  0.37232994  0.51989711  0.11466745  1  0.058767  -0.007074  3.708806  -0.004  0.054567  -0.001805  3.95407  -0.001  0.058053  -0.003143  3.974582  -0.002  0.111928  0.052391  -0.000824  3.94037  0.0
C  C22  1  0.62766772  0.48010524  0.88533165  1  0.058643  -0.007064  3.708986  -0.004  0.054499  -0.001805  3.954148  -0.001  0.057985  -0.003143  3.974661  -0.002  0.111972  0.052325  -0.000823  3.940452  0.0
C  C23  1  0.54188742  0.47036029  0.15924150  1  -0.088348  0.004191  3.649718  0.004  -0.075998  0.001553  3.891128  0.002  -0.084554  0.001577  3.910111  0.002  0.008781  -0.070698  0.001533  3.87861  0.001
C  C24  1  0.45811078  0.52963821  0.84075764  1  -0.088292  0.004191  3.649759  0.004  -0.075964  0.001554  3.891154  0.002  -0.084524  0.001575  3.910154  0.002  0.008784  -0.070664  0.001533  3.878639  0.001
C  C25  1  0.54289469  0.29047054  0.13824069  1  0.025723  -0.011398  3.615836  -0.007  -0.006047  -0.004488  3.872659  -0.002  0.00151  -0.00502  3.883408  -0.003  -0.043696  -0.010936  -0.004035  3.865536  -0.002
C  C26  1  0.45710229  0.70952966  0.86175607  1  0.025768  -0.011395  3.615852  -0.007  -0.005952  -0.004489  3.872651  -0.002  0.001563  -0.005019  3.88338  -0.003  -0.043678  -0.010851  -0.004035  3.865537  -0.002
C  C27  1  0.37755929  0.16802505  0.07793714  1  -0.066204  0.008902  3.634215  0.01  -0.08155  0.003886  3.887739  0.005  -0.085559  0.003508  3.900681  0.004  -0.060204  -0.079059  0.004145  3.878995  0.005
C  C28  1  0.62243906  0.83197529  0.92205648  1  -0.066243  0.008902  3.63424  0.01  -0.081528  0.003887  3.887709  0.005  -0.085527  0.003508  3.900648  0.004  -0.060189  -0.079037  0.004144  3.878967  0.005
C  C29  1  0.21524164  0.22696525  0.03585287  1  0.149514  -0.009799  3.637648  -0.006  0.117695  -0.002607  3.896023  -0.002  0.127947  -0.004163  3.911269  -0.003  0.064395  0.111084  -0.00139  3.885988  -0.001
C  C30  1  0.78475761  0.77303824  0.96414231  1  0.149467  -0.009796  3.637628  -0.006  0.117626  -0.002607  3.896006  -0.002  0.127873  -0.004163  3.911248  -0.003  0.064346  0.111016  -0.00139  3.885968  -0.001
C  C31  1  0.34576986  0.70494377  0.12007277  1  0.653846  -0.005227  3.875184  -0.005  0.607203  -9e-05  4.175057  0.0  0.644722  -0.000564  4.167234  0.0  0.228616  0.582107  0.000296  4.179658  0.0
C  C32  1  0.65423367  0.29505761  0.87992716  1  0.653769  -0.005229  3.875223  -0.005  0.607147  -9.1e-05  4.175036  0.0  0.644665  -0.000562  4.167212  0.0  0.228574  0.582054  0.000298  4.179643  0.0
C  C33  1  0.72331884  0.59514228  0.22917528  1  0.709826  0.000776  3.875229  0.001  0.659948  0.000617  4.178343  0.001  0.696877  0.000418  4.166869  0.001  0.228888  0.635557  0.000824  4.185135  0.001
C  C34  1  0.27667599  0.40485492  0.77082385  1  0.709808  0.000775  3.875229  0.001  0.65992  0.000617  4.178363  0.001  0.696849  0.000418  4.166884  0.001  0.228844  0.635529  0.000823  4.185154  0.001
C  C35  1  0.37797590  0.21801019  0.41528981  1  0.753584  -8e-06  3.782787  0.0  0.713053  -1.1e-05  4.079859  0.0  0.74939  -3e-06  4.069641  0.0  0.219504  0.689621  -0.0  4.086338  0.0
C  C36  1  0.62202581  0.78198948  0.58471247  1  0.753525  -1.2e-05  3.782819  0.0  0.713002  -1.1e-05  4.079915  0.0  0.749346  -3e-06  4.069686  0.0  0.219441  0.689568  -0.0  4.086396  0.0
C  C37  1  0.26312298  0.36455643  0.43659531  1  -0.241923  5e-06  3.63624  0.0  -0.282577  2e-06  3.882314  0.0  -0.286601  2e-06  3.886192  0.0  -0.158163  -0.278902  4e-06  3.878032  0.0
C  C38  1  0.73688049  0.63544382  0.56340855  1  -0.241857  1e-06  3.636342  0.0  -0.282563  2e-06  3.882475  0.0  -0.286621  2e-06  3.886401  0.0  -0.158071  -0.278881  5e-06  3.878186  0.0
C  C39  1  0.08431876  0.33541189  0.35228839  1  -0.222941  1.4e-05  3.653662  0.0  -0.259471  5e-06  3.89952  0.0  -0.262924  1e-06  3.905127  0.0  -0.157943  -0.256231  9e-06  3.894313  0.0
C  C40  1  0.91568298  0.66458735  0.64771626  1  -0.222885  9e-06  3.653704  0.0  -0.259445  6e-06  3.899666  0.0  -0.262894  -1e-06  3.90528  0.0  -0.157995  -0.256207  9e-06  3.894459  0.0
C  C41  1  0.91530581  0.17435892  0.35225332  1  0.701661  2e-06  3.839495  0.0  0.657263  -1e-05  4.146156  0.0  0.69062  1e-06  4.139878  0.0  0.194941  0.635072  -1e-06  4.15055  0.0
C  C42  1  0.08469701  0.82563876  0.64775056  1  0.701496  2e-06  3.839662  0.0  0.657093  -1e-05  4.146341  0.0  0.690454  1e-06  4.140048  0.0  0.194913  0.634903  1e-06  4.15074  0.0
N  N43  1  0.21595523  0.39864623  0.05395783  1  -0.314505  0.073157  3.401377  0.095  -0.274617  0.04946  3.70662  0.068  -0.303983  0.0408  3.728238  0.06  -0.356889  -0.256584  0.054348  3.693756  0.071
N  N44  1  0.78404544  0.60135655  0.94603893  1  -0.314402  0.073152  3.401398  0.095  -0.274534  0.04946  3.70664  0.068  -0.303899  0.0408  3.728256  0.06  -0.356867  -0.256502  0.054347  3.693779  0.071
O  O45  1  0.21756103  0.78526031  0.35592248  1  -0.934609  2.2e-05  1.846751  0.0  -0.895964  7e-06  2.03559  0.0  -0.918609  2e-06  1.999705  0.0  -0.653629  -0.88221  1.8e-05  2.060116  0.0
O  O46  1  0.78243892  0.21473877  0.64407823  1  -0.934609  1.9e-05  1.846724  0.0  -0.895958  7e-06  2.035551  0.0  -0.918587  3e-06  1.999683  0.0  -0.653598  -0.882203  1.9e-05  2.060076  0.0
O  O47  1  0.20039757  0.72311889  0.05783710  1  -0.559445  0.081854  2.061292  0.114  -0.531383  0.056078  2.339813  0.085  -0.571674  0.043223  2.33079  0.07  -0.305766  -0.504004  0.0647  2.345673  0.093
O  O48  1  0.79960414  0.27688690  0.94216435  1  -0.559373  0.081853  2.061317  0.114  -0.531322  0.056078  2.339804  0.085  -0.571611  0.043224  2.330783  0.07  -0.305786  -0.503943  0.064697  2.345665  0.093
O  O49  1  0.46440471  0.83355986  0.18072661  1  -0.672096  0.009881  2.100382  0.013  -0.632892  0.005902  2.348357  0.009  -0.663184  0.002934  2.341321  0.005  -0.391365  -0.613614  0.009089  2.353425  0.012
O  O50  1  0.53560014  0.16644053  0.81927412  1  -0.672079  0.009881  2.100437  0.013  -0.632881  0.005902  2.348392  0.009  -0.663154  0.002933  2.34137  0.005  -0.391325  -0.613602  0.009089  2.353461  0.012
O  O51  1  0.90444088  0.59104398  0.20355949  1  -0.608056  0.000181  1.952203  0.002  -0.566854  -0.000674  2.186993  0.0  -0.593917  -0.00107  2.175394  0.0  -0.289664  -0.547249  -0.000169  2.193809  0.001
O  O52  1  0.09555636  0.40895637  0.79644120  1  -0.608076  0.000183  1.952265  0.002  -0.566868  -0.000675  2.18706  0.0  -0.593932  -0.00107  2.175464  0.0  -0.289654  -0.547263  -0.000169  2.193877  0.001
O  O53  1  0.68132915  0.68786617  0.31413107  1  -0.765333  0.000843  2.063485  0.001  -0.726646  0.0005  2.321193  0.001  -0.756747  0.000296  2.309495  0.0  -0.438912  -0.707924  0.000758  2.329495  0.001
O  O54  1  0.31866506  0.31212804  0.68587043  1  -0.765301  0.000843  2.063403  0.001  -0.726634  0.0005  2.321153  0.001  -0.756711  0.000296  2.309465  0.0  -0.438904  -0.707914  0.000758  2.329453  0.001
O  O55  1  0.42500738  0.14155008  0.48833099  1  -0.827941  1e-05  2.161185  0.0  -0.788049  8e-06  2.425714  0.0  -0.820896  1e-06  2.418616  0.0  -0.460432  -0.769196  1.5e-05  2.432641  0.0
O  O56  1  0.57498563  0.85844540  0.51167050  1  -0.827882  1e-05  2.16119  0.0  -0.787987  8e-06  2.425713  0.0  -0.82084  1e-06  2.418602  0.0  -0.460392  -0.769133  1.5e-05  2.432643  0.0
O  O57  1  0.42721614  0.16613405  0.32361397  1  -0.682252  -0.000136  1.987411  0.0  -0.642602  -0.000116  2.221427  0.0  -0.671134  -0.000128  2.216075  0.0  -0.375742  -0.624323  -9.1e-05  2.22495  0.0
O  O58  1  0.57279308  0.83387108  0.67638910  1  -0.682253  -0.000134  1.987328  0.0  -0.642615  -0.000116  2.221366  0.0  -0.67113  -0.000129  2.216019  0.0  -0.375725  -0.624334  -9.1e-05  2.224889  0.0
O  O59  1  0.82736079  0.07597685  0.26657676  1  -0.672721  -1e-05  1.934358  0.0  -0.639002  -2.2e-05  2.165644  0.0  -0.664504  -1.5e-05  2.157384  0.0  -0.38568  -0.622794  -2.3e-05  2.171575  0.0
O  O60  1  0.17264137  0.92402439  0.73342631  1  -0.672657  -9e-06  1.934498  0.0  -0.638918  -2.1e-05  2.165777  0.0  -0.664412  -1.7e-05  2.157531  0.0  -0.385642  -0.62271  -2.4e-05  2.171709  0.0
O  O61  1  0.85268764  0.13811361  0.43966438  1  -0.727307  2.8e-05  1.99767  0.0  -0.678955  1.5e-05  2.233579  0.0  -0.707084  -4e-06  2.224669  0.0  -0.389842  -0.660688  3.1e-05  2.239911  0.0
O  O62  1  0.14731614  0.86188222  0.56033795  1  -0.727269  2.7e-05  1.997652  0.0  -0.67891  1.5e-05  2.233551  0.0  -0.707024  -3e-06  2.224647  0.0  -0.389854  -0.660639  3.1e-05  2.239881  0.0
