# generated using pymatgen
data_CuH4(C2O)4
_symmetry_space_group_name_H-M   'P 1'
_cell_length_a   9.13137582
_cell_length_b   9.13234354
_cell_length_c   16.02009205
_cell_angle_alpha   89.99096936
_cell_angle_beta   89.99267878
_cell_angle_gamma   119.98575123
_symmetry_Int_Tables_number   1
_chemical_formula_structural   CuH4(C2O)4
_chemical_formula_sum   'Cu6 H24 C48 O24'
_cell_volume   1157.11471608
_cell_formula_units_Z   6
loop_
 _symmetry_equiv_pos_site_id
 _symmetry_equiv_pos_as_xyz
  1  'x, y, z'
loop_
 _atom_site_type_symbol
 _atom_site_label
 _atom_site_symmetry_multiplicity
 _atom_site_fract_x
 _atom_site_fract_y
 _atom_site_fract_z
 _atom_site_occupancy
 _atom_site_hle17_ddec_charge
 _atom_site_hle17_ddec_spin_density
 _atom_site_hle17_ddec_sum_bond_order
 _atom_site_hle17_magmom
 _atom_site_hse06_ddec_charge
 _atom_site_hse06_ddec_spin_density
 _atom_site_hse06_ddec_sum_bond_order
 _atom_site_hse06_magmom
 _atom_site_pbe_cm5_charge
 _atom_site_pbe_ddec_charge
 _atom_site_pbe_ddec_spin_density
 _atom_site_pbe_ddec_sum_bond_order
 _atom_site_pbe_magmom
Cu  Cu0  1  0.49999711  0.49999860  0.99999918  1  1.004995  0.694891  1.647912  0.509  1.112712  0.86731  1.94677  0.724  0.729789  0.946615  0.737016  2.086325  0.574
Cu  Cu1  1  0.50000041  0.00000152  0.99999977  1  1.005124  -0.71193  1.647417  -0.503  1.113494  -0.89986  1.94582  -0.725  0.729387  0.945497  -0.735942  2.086396  -0.564
Cu  Cu2  1  0.00000205  0.49999610  0.00000066  1  1.004096  0.688637  1.645605  0.505  1.113082  0.866213  1.94389  0.724  0.728737  0.945012  0.72734  2.084517  0.568
Cu  Cu3  1  0.50000143  0.00000121  0.49999702  1  1.003328  0.688712  1.646857  0.505  1.112813  0.866189  1.94461  0.724  0.728703  0.944742  0.727365  2.085313  0.568
Cu  Cu4  1  0.99999823  0.49999935  0.50000006  1  1.00564  0.694769  1.646964  0.509  1.112668  0.867284  1.946247  0.724  0.729678  0.946457  0.736954  2.085874  0.574
Cu  Cu5  1  0.50000188  0.50000329  0.50000080  1  1.005168  -0.711961  1.647159  -0.503  1.113591  -0.899891  1.945674  -0.725  0.729412  0.945605  -0.73596  2.086305  -0.564
H  H6  1  0.13072377  0.75844845  0.11549861  1  0.103892  -0.000405  0.965205  0.0  0.108565  -0.000308  1.038428  0.0  0.103223  0.101978  -0.000332  1.046298  0.0
H  H7  1  0.24136749  0.37219849  0.11553564  1  0.10378  -0.000329  0.964823  0.0  0.108432  -0.000313  1.038115  0.0  0.103256  0.101849  -0.00027  1.045944  0.0
H  H8  1  0.62789534  0.86928643  0.11552609  1  0.103686  0.000296  0.964938  0.0  0.108437  0.000274  1.038099  0.0  0.103152  0.101848  0.00031  1.045943  0.0
H  H9  1  0.75857688  0.62784448  0.61550433  1  0.103722  0.000327  0.965167  0.0  0.108438  0.000276  1.038385  0.0  0.103182  0.101871  0.000308  1.046187  0.0
H  H10  1  0.37227693  0.13074543  0.61552511  1  0.103768  -0.000421  0.96504  0.0  0.108409  -0.000313  1.038322  0.0  0.103148  0.101825  -0.000345  1.046188  0.0
H  H11  1  0.86921883  0.24136640  0.61553824  1  0.103593  -0.000343  0.965338  0.0  0.108425  -0.000311  1.038387  0.0  0.103176  0.101817  -0.000256  1.046264  0.0
H  H12  1  0.86927970  0.24155405  0.88449861  1  0.103879  -0.000404  0.965261  0.0  0.108566  -0.000309  1.038474  0.0  0.103213  0.101977  -0.000332  1.046345  0.0
H  H13  1  0.75863863  0.62780793  0.88446346  1  0.103833  -0.000326  0.964799  0.0  0.108538  -0.000313  1.038037  0.0  0.10325  0.101948  -0.00027  1.045875  0.0
H  H14  1  0.37210939  0.13071481  0.88447363  1  0.103669  0.000296  0.964963  0.0  0.108411  0.000274  1.038133  0.0  0.103142  0.101823  0.00031  1.045976  0.0
H  H15  1  0.24142579  0.37216101  0.38449727  1  0.103777  0.000328  0.965027  0.0  0.108434  0.000276  1.038305  0.0  0.10321  0.101865  0.000308  1.046105  0.0
H  H16  1  0.62772590  0.86925770  0.38447399  1  0.103772  -0.000421  0.965043  0.0  0.108415  -0.000313  1.038311  0.0  0.10316  0.101834  -0.000345  1.046175  0.0
H  H17  1  0.13078198  0.75863218  0.38446148  1  0.103574  -0.000344  0.965219  0.0  0.108405  -0.000311  1.03829  0.0  0.103164  0.101799  -0.000255  1.046162  0.0
H  H18  1  0.28574624  0.82881312  0.24995221  1  0.098109  3e-05  0.958355  0.0  0.109575  1.1e-05  1.02007  0.0  0.103293  0.105495  7e-06  1.019361  0.0
H  H19  1  0.17107453  0.45683976  0.25005048  1  0.098037  4.3e-05  0.958524  0.0  0.109601  2.9e-05  1.020088  0.0  0.103431  0.105585  7.9e-05  1.019333  0.0
H  H20  1  0.54310308  0.71432954  0.24999791  1  0.097905  0.000212  0.957801  0.0  0.109402  0.000103  1.019519  0.0  0.103155  0.105306  0.000237  1.018853  0.0
H  H21  1  0.82892611  0.54316119  0.74994862  1  0.098112  4.4e-05  0.958422  0.0  0.109628  2.9e-05  1.020031  0.0  0.10344  0.105608  7.9e-05  1.01928  0.0
H  H22  1  0.45689756  0.28567140  0.75000119  1  0.097966  0.00021  0.957825  0.0  0.10946  0.000103  1.019545  0.0  0.103161  0.105353  0.000237  1.01889  0.0
H  H23  1  0.71425330  0.17118673  0.75004814  1  0.098174  2.4e-05  0.958309  0.0  0.109632  1.1e-05  1.020037  0.0  0.103318  0.105535  7e-06  1.019345  0.0
H  H24  1  0.65921312  0.54234572  0.25003885  1  0.106664  9.3e-05  0.970711  0.0  0.116185  4.8e-05  1.038281  0.0  0.107269  0.110561  0.000152  1.041477  0.0
H  H25  1  0.45766319  0.11683937  0.24997540  1  0.107008  -1.5e-05  0.970875  0.0  0.116351  -1.4e-05  1.038555  0.0  0.107368  0.110745  -1.3e-05  1.041693  0.0
H  H26  1  0.88304738  0.34075534  0.24997982  1  0.106655  0.000297  0.970871  0.0  0.116191  0.000223  1.038373  0.0  0.107183  0.110589  0.000404  1.041559  0.0
H  H27  1  0.54233838  0.88316503  0.75002370  1  0.107072  -1.2e-05  0.970774  0.0  0.116405  -1.4e-05  1.038473  0.0  0.107387  0.110793  -1.3e-05  1.041616  0.0
H  H28  1  0.11695654  0.65924889  0.75002053  1  0.106703  0.000297  0.970779  0.0  0.116205  0.000224  1.038341  0.0  0.107196  0.110603  0.000404  1.041526  0.0
H  H29  1  0.34078626  0.45765649  0.74996150  1  0.1068  9.6e-05  0.970734  0.0  0.116254  4.8e-05  1.03834  0.0  0.10729  0.110628  0.000152  1.041537  0.0
C  C30  1  0.78330314  0.59752467  0.09586108  1  0.6603  -0.007459  3.830924  -0.012  0.6676  -0.000138  4.108709  -0.003  0.22061  0.59546  0.001027  4.121294  -0.003
C  C31  1  0.40294985  0.18611887  0.09588591  1  0.661608  0.001181  3.830322  0.003  0.668694  0.001621  4.108129  0.003  0.220974  0.596379  0.001384  4.12045  0.003
C  C32  1  0.81394472  0.21690905  0.09587018  1  0.661577  -0.00156  3.830451  -0.003  0.668551  -0.001845  4.108154  -0.003  0.220735  0.596187  -0.001539  4.120876  -0.003
C  C33  1  0.59707707  0.81400354  0.59588774  1  0.661404  -0.001566  3.830848  -0.003  0.668674  -0.001834  4.108255  -0.003  0.220775  0.5963  -0.001514  4.120963  -0.003
C  C34  1  0.18584008  0.78335694  0.59584292  1  0.661284  -0.007435  3.830402  -0.012  0.668615  -0.000132  4.107904  -0.003  0.220746  0.596454  0.001032  4.120572  -0.003
C  C35  1  0.21685031  0.40299233  0.59587759  1  0.661591  0.001159  3.829667  0.003  0.668534  0.001599  4.107653  0.003  0.220949  0.59622  0.001347  4.119954  0.003
C  C36  1  0.21670302  0.40247294  0.90414052  1  0.660624  -0.007452  3.830511  -0.012  0.668072  -0.000134  4.108025  -0.003  0.22084  0.595908  0.001031  4.120681  -0.003
C  C37  1  0.59704987  0.81387863  0.90411319  1  0.661452  0.001185  3.830403  0.003  0.668528  0.001621  4.108253  0.003  0.220937  0.596216  0.001383  4.12056  0.003
C  C38  1  0.18605437  0.78308908  0.90413267  1  0.661518  -0.001565  3.8309  -0.003  0.668571  -0.001844  4.10845  -0.003  0.220631  0.596213  -0.001537  4.121173  -0.003
C  C39  1  0.40292922  0.18600052  0.40411074  1  0.661466  -0.001562  3.830916  -0.003  0.668873  -0.001832  4.108147  -0.003  0.220795  0.596497  -0.001513  4.120865  -0.003
C  C40  1  0.81416212  0.21664683  0.40415867  1  0.660927  -0.00743  3.830921  -0.012  0.668368  -0.00013  4.108287  -0.003  0.220567  0.596212  0.001036  4.120954  -0.003
C  C41  1  0.78315114  0.59700562  0.40411901  1  0.661787  0.001159  3.829561  0.003  0.668643  0.001599  4.107647  0.003  0.221011  0.596338  0.001347  4.119955  0.003
C  C42  1  0.88390977  0.64392040  0.17423815  1  -0.075431  0.007899  3.769974  0.009  -0.062918  0.002595  4.022858  0.003  -0.018952  -0.043326  0.004904  3.984115  0.006
C  C43  1  0.35617474  0.24011156  0.17423805  1  -0.075868  -0.006455  3.770091  -0.006  -0.06316  -0.002994  4.022861  -0.003  -0.018851  -0.043748  -0.004557  3.984161  -0.005
C  C44  1  0.75987937  0.11613095  0.17421517  1  -0.075724  0.006272  3.769702  0.006  -0.063361  0.003056  4.022876  0.003  -0.018985  -0.043966  0.004593  3.984397  0.005
C  C45  1  0.64386006  0.76000334  0.67422509  1  -0.075678  0.006683  3.769615  0.007  -0.063082  0.003079  4.02239  0.003  -0.018946  -0.043689  0.004828  3.983798  0.005
C  C46  1  0.24005085  0.88392869  0.67424422  1  -0.075844  0.007751  3.770423  0.009  -0.06313  0.002751  4.02295  0.004  -0.018837  -0.043569  0.004851  3.9843  0.006
C  C47  1  0.11607464  0.35626677  0.67422748  1  -0.075634  -0.006626  3.769559  -0.007  -0.063011  -0.003169  4.022464  -0.003  -0.018897  -0.043591  -0.004726  3.983832  -0.005
C  C48  1  0.11608729  0.35607317  0.82575595  1  -0.07552  0.007934  3.770076  0.009  -0.063036  0.002598  4.022915  0.003  -0.019008  -0.043445  0.004908  3.984179  0.006
C  C49  1  0.64381247  0.75987216  0.82576792  1  -0.075832  -0.006427  3.769915  -0.006  -0.063115  -0.002993  4.022693  -0.003  -0.018862  -0.043701  -0.004555  3.983995  -0.005
C  C50  1  0.24012110  0.88387235  0.82578455  1  -0.075783  0.006298  3.769579  0.007  -0.063358  0.003058  4.022646  0.003  -0.019012  -0.043963  0.004597  3.984157  0.005
C  C51  1  0.35613696  0.23999904  0.32577651  1  -0.07568  0.006654  3.769448  0.007  -0.063239  0.003079  4.022328  0.003  -0.019002  -0.043802  0.004827  3.983683  0.005
C  C52  1  0.75994529  0.11606143  0.32576049  1  -0.075867  0.007724  3.770304  0.009  -0.063284  0.002749  4.022928  0.004  -0.018946  -0.043719  0.004851  3.984274  0.006
C  C53  1  0.88390839  0.64373427  0.32577037  1  -0.075789  -0.006658  3.769687  -0.007  -0.063133  -0.00317  4.022645  -0.003  -0.018913  -0.043711  -0.004726  3.984015  -0.005
C  C54  1  0.06092473  0.72420531  0.17427202  1  -0.03943  0.000181  3.67803  0.001  -0.066566  0.00018  3.950494  0.0  -0.071643  -0.071142  0.000822  3.919894  0.001
C  C55  1  0.27571200  0.33671523  0.17430281  1  -0.038886  -0.000371  3.677643  0.0  -0.0659  -0.000679  3.950011  -0.001  -0.071277  -0.07036  -0.000749  3.919242  -0.001
C  C56  1  0.66329895  0.93911561  0.17428038  1  -0.039495  0.001033  3.678998  0.001  -0.06635  0.000566  3.951237  0.001  -0.071669  -0.070976  0.001503  3.920741  0.001
C  C57  1  0.72426724  0.66334790  0.67426769  1  -0.039266  0.000491  3.678226  0.0  -0.066366  0.000623  3.950576  0.001  -0.07144  -0.070804  0.000948  3.919811  0.001
C  C58  1  0.33673570  0.06093590  0.67429636  1  -0.039103  -0.000307  3.678511  0.0  -0.066268  -0.0001  3.950916  0.0  -0.071647  -0.070882  0.000713  3.920378  0.001
C  C59  1  0.93903613  0.27579518  0.67429786  1  -0.039469  0.000565  3.67852  0.0  -0.066433  -0.000458  3.95075  0.0  -0.071605  -0.071017  -8.8e-05  3.920157  0.0
C  C60  1  0.93906728  0.27579332  0.82572583  1  -0.039385  0.000139  3.678187  0.001  -0.066532  0.00018  3.950639  0.0  -0.071664  -0.071091  0.000819  3.920019  0.001
C  C61  1  0.72428519  0.66328479  0.82569754  1  -0.039105  -0.000405  3.677549  0.0  -0.066173  -0.000679  3.949904  -0.001  -0.071314  -0.070637  -0.000751  3.91914  -0.001
C  C62  1  0.33670128  0.06087480  0.82572434  1  -0.039397  0.001008  3.678646  0.001  -0.066268  0.000565  3.950876  0.001  -0.071661  -0.070892  0.001503  3.920367  0.001
C  C63  1  0.27573569  0.33663763  0.32573265  1  -0.039127  0.00051  3.677775  0.0  -0.066117  0.000622  3.950173  0.001  -0.071348  -0.070574  0.000948  3.919402  0.001
C  C64  1  0.66326587  0.93906850  0.32570461  1  -0.039071  -0.000281  3.678587  0.0  -0.0662  -9.9e-05  3.950995  0.0  -0.071613  -0.070824  0.000712  3.920464  0.001
C  C65  1  0.06096940  0.72420307  0.32569874  1  -0.039354  0.000613  3.678306  0.0  -0.066345  -0.000457  3.950566  0.0  -0.071544  -0.070922  -8.6e-05  3.919973  0.0
C  C66  1  0.14823045  0.76440140  0.24998445  1  -0.060097  -0.000351  3.717771  0.0  -0.07206  -0.000109  3.989251  0.0  -0.082606  -0.063775  -0.000219  3.95205  0.0
C  C67  1  0.23547000  0.38370898  0.25002520  1  -0.060341  0.00017  3.718198  0.0  -0.072375  0.000125  3.989582  0.0  -0.08292  -0.064089  0.000247  3.952222  0.0
C  C68  1  0.61620064  0.85183789  0.24999095  1  -0.060057  0.001937  3.718001  0.002  -0.07187  0.000559  3.989149  0.001  -0.082425  -0.063611  0.001017  3.952053  0.001
C  C69  1  0.76451797  0.61628056  0.74996766  1  -0.060137  0.000196  3.718268  0.0  -0.07211  0.000125  3.989629  0.0  -0.082789  -0.06382  0.000249  3.952258  0.0
C  C70  1  0.38380047  0.14816479  0.75000316  1  -0.060202  0.001966  3.71782  0.002  -0.072019  0.000559  3.988985  0.001  -0.082444  -0.063751  0.001017  3.951889  0.001
C  C71  1  0.85177100  0.23559655  0.75002089  1  -0.060181  -0.000293  3.717678  0.0  -0.072168  -0.000109  3.9892  0.0  -0.082611  -0.063872  -0.000219  3.952004  0.0
C  C72  1  0.79651293  0.60553491  0.25001978  1  -0.056751  0.000312  3.687046  0.0  -0.086759  0.000104  3.94986  0.0  -0.071686  -0.09494  0.000719  3.92014  0.001
C  C73  1  0.39445326  0.19093052  0.24998874  1  -0.057271  -0.000137  3.687229  0.0  -0.087197  -5.7e-05  3.950147  0.0  -0.071838  -0.095293  -3.3e-05  3.920308  0.0
C  C74  1  0.80897582  0.20348953  0.24998556  1  -0.056942  0.000398  3.687033  0.0  -0.086891  0.000116  3.949767  0.0  -0.071773  -0.095086  0.00092  3.920122  0.0
C  C75  1  0.60553972  0.80906277  0.75000412  1  -0.057206  -0.000172  3.687114  0.0  -0.087167  -5.7e-05  3.949988  0.0  -0.071802  -0.095249  -3.4e-05  3.920164  0.0
C  C76  1  0.19102903  0.79651816  0.75001042  1  -0.057095  0.000372  3.687468  0.0  -0.087093  0.000116  3.950216  0.0  -0.071898  -0.095285  0.000919  3.920565  0.0
C  C77  1  0.20349348  0.39447559  0.74998494  1  -0.056922  0.000264  3.687044  0.0  -0.086852  0.000101  3.949817  0.0  -0.071699  -0.095025  0.000718  3.92009  0.001
O  O78  1  0.63596328  0.58114005  0.10117302  1  -0.57173  0.096534  2.084518  0.13  -0.586807  0.04796  2.348791  0.074  -0.303378  -0.508695  0.072115  2.36017  0.101
O  O79  1  0.41903373  0.05506441  0.10106221  1  -0.571866  -0.069756  2.087279  -0.091  -0.587211  -0.038552  2.351919  -0.058  -0.302232  -0.506955  -0.048316  2.362389  -0.067
O  O80  1  0.94469992  0.36415565  0.10110097  1  -0.572977  0.06757  2.088753  0.092  -0.587182  0.037015  2.352991  0.058  -0.302842  -0.507678  0.048197  2.36394  0.068
O  O81  1  0.58053430  0.94480002  0.60113088  1  -0.57282  0.067691  2.087702  0.092  -0.587412  0.037072  2.351812  0.058  -0.30301  -0.507842  0.048299  2.362704  0.068
O  O82  1  0.05490324  0.63607648  0.60114266  1  -0.572398  0.096567  2.084958  0.13  -0.58731  0.047957  2.349275  0.074  -0.303281  -0.509122  0.072105  2.360629  0.101
O  O83  1  0.36403053  0.41911093  0.60107809  1  -0.571902  -0.069892  2.086465  -0.091  -0.587334  -0.038575  2.351167  -0.058  -0.302385  -0.507113  -0.048389  2.361717  -0.067
O  O84  1  0.36404598  0.41889606  0.89883419  1  -0.571785  0.09648  2.084843  0.13  -0.586928  0.047948  2.349148  0.074  -0.303436  -0.508824  0.072085  2.360558  0.101
O  O85  1  0.58096081  0.94493170  0.89892878  1  -0.571832  -0.069767  2.087204  -0.091  -0.587193  -0.038552  2.351841  -0.058  -0.302273  -0.506932  -0.048319  2.362287  -0.067
O  O86  1  0.05529735  0.63585962  0.89890249  1  -0.572799  0.067577  2.088931  0.092  -0.58708  0.037015  2.353149  0.058  -0.302654  -0.507583  0.0482  2.364107  0.068
O  O87  1  0.41944224  0.05520970  0.39887196  1  -0.572781  0.067591  2.08817  0.092  -0.587448  0.037033  2.352306  0.058  -0.303017  -0.507912  0.048239  2.363251  0.068
O  O88  1  0.94511241  0.36391165  0.39885956  1  -0.57237  0.096511  2.085256  0.13  -0.587266  0.04794  2.349491  0.074  -0.303282  -0.509093  0.072073  2.360849  0.101
O  O89  1  0.63597256  0.58087224  0.39893225  1  -0.572022  -0.069845  2.086791  -0.091  -0.587397  -0.038557  2.35154  -0.058  -0.302434  -0.507187  -0.04836  2.362112  -0.067
O  O90  1  0.83757496  0.57477444  0.02628749  1  -0.623433  0.070485  2.107518  0.097  -0.649757  0.035681  2.38144  0.057  -0.323261  -0.576855  0.055456  2.410841  0.079
O  O91  1  0.42651996  0.26354321  0.02635076  1  -0.623989  0.070437  2.108863  0.094  -0.650372  0.037348  2.38342  0.057  -0.32341  -0.57693  0.054965  2.412373  0.076
O  O92  1  0.73675412  0.16280263  0.02629654  1  -0.624535  -0.072819  2.107009  -0.094  -0.650415  -0.038858  2.381092  -0.057  -0.32364  -0.577382  -0.055461  2.410555  -0.076
O  O93  1  0.57390169  0.73674241  0.52635936  1  -0.624085  -0.072715  2.107879  -0.094  -0.650221  -0.038831  2.382013  -0.057  -0.323364  -0.577223  -0.055409  2.411542  -0.075
O  O94  1  0.26288744  0.83760835  0.52628315  1  -0.623502  0.070449  2.107921  0.097  -0.650016  0.035696  2.381773  0.057  -0.323424  -0.577089  0.055447  2.411166  0.079
O  O95  1  0.16300524  0.42648027  0.52632771  1  -0.624293  0.070453  2.109064  0.094  -0.650089  0.037335  2.383308  0.057  -0.323308  -0.576645  0.054962  2.412257  0.076
O  O96  1  0.16241085  0.42523696  0.97370474  1  -0.623664  0.070474  2.107664  0.097  -0.650022  0.035675  2.381535  0.057  -0.3234  -0.577116  0.055442  2.410973  0.079
O  O97  1  0.57350919  0.73647739  0.97365333  1  -0.623856  0.070449  2.108724  0.094  -0.650234  0.037353  2.383259  0.057  -0.323319  -0.576781  0.054974  2.412169  0.076
O  O98  1  0.26324750  0.83719297  0.97369881  1  -0.624503  -0.072804  2.107314  -0.094  -0.650411  -0.038855  2.381359  -0.057  -0.323595  -0.577378  -0.055458  2.410821  -0.076
O  O99  1  0.42605317  0.26323425  0.47365160  1  -0.624173  -0.072763  2.107438  -0.094  -0.65034  -0.038843  2.38149  -0.057  -0.323331  -0.577324  -0.055432  2.411  -0.075
O  O100  1  0.73712208  0.16235088  0.47372220  1  -0.623374  0.070429  2.108047  0.097  -0.649924  0.035687  2.381874  0.057  -0.323296  -0.577  0.055426  2.41126  0.079
O  O101  1  0.83702421  0.57354442  0.47366639  1  -0.624414  0.070432  2.108853  0.094  -0.650176  0.037323  2.383155  0.057  -0.323346  -0.576743  0.054945  2.412119  0.076
