# generated using pymatgen
data_AlH12C27N7O9
_symmetry_space_group_name_H-M   'P 1'
_cell_length_a   3.92931274
_cell_length_b   18.03685805
_cell_length_c   18.11538175
_cell_angle_alpha   119.71950377
_cell_angle_beta   90.94873346
_cell_angle_gamma   90.48108613
_symmetry_Int_Tables_number   1
_chemical_formula_structural   AlH12C27N7O9
_chemical_formula_sum   'Al1 H12 C27 N7 O9'
_cell_volume   1114.64670659
_cell_formula_units_Z   1
loop_
 _symmetry_equiv_pos_site_id
 _symmetry_equiv_pos_as_xyz
  1  'x, y, z'
loop_
 _atom_site_type_symbol
 _atom_site_label
 _atom_site_symmetry_multiplicity
 _atom_site_fract_x
 _atom_site_fract_y
 _atom_site_fract_z
 _atom_site_occupancy
 _atom_site_pbe_bader_charge
 _atom_site_pbe_bader_spin_density
 _atom_site_pbe_cm5_charge
 _atom_site_pbe_ddec_charge
 _atom_site_pbe_ddec_spin_density
 _atom_site_pbe_ddec_sum_bond_order
 _atom_site_pbe_magmom
Al  Al0  1  0.03410012  0.00010522  0.50013871  1  2.501028  0  0.424931  1.585304  0  2.575592  0
H  H1  1  0.80706241  0.30245605  0.40542910  1  0.065798  0  0.111414  0.124951  0  0.990573  0
H  H2  1  0.81930976  0.09378385  0.89557216  1  0.089105  0  0.11107  0.122974  0  0.992985  0
H  H3  1  0.77056883  0.60770964  0.19605097  1  0.128849  0  0.111126  0.123206  0  0.99321  0
H  H4  1  0.28793936  0.30089670  0.89269221  1  0.131886  0  0.120201  0.145825  0  0.974817  0
H  H5  1  0.83513596  0.01775132  0.73628385  1  0.107521  0  0.111587  0.117801  0  0.978861  0
H  H6  1  0.79470932  0.76769836  0.28154661  1  0.072155  0  0.11134  0.117231  0  0.979539  0
H  H7  1  0.25054533  0.60109890  0.40087238  1  0.122044  0  0.120168  0.145994  0  0.974993  0
H  H8  1  0.25924837  0.09271373  0.19676696  1  0.160593  0  0.120488  0.146618  0  0.971544  0
H  H9  1  0.82678400  0.21898894  0.48239884  1  0.079189  0  0.111705  0.117394  0  0.979315  0
H  H10  1  0.17512041  0.98534711  0.31449011  1  0.624405  0  0.317584  0.360058  0  0.940422  0
H  H11  1  0.17839651  0.82598296  0.51189212  1  0.663141  0  0.31826  0.361533  0  0.937643  0
H  H12  1  0.20353925  0.18495985  0.66857939  1  0.618085  0  0.317855  0.361471  0  0.939891  0
C  C13  1  0.53618388  0.06699882  0.43393456  1  1.463985  0  0.268414  0.652025  0  4.057374  0
C  C14  1  0.54921031  0.06595389  0.63231392  1  1.51246  0  0.269313  0.652537  0  4.053984  0
C  C15  1  0.52700857  0.86731314  0.43307807  1  1.526029  0  0.268321  0.651649  0  4.058955  0
C  C16  1  0.68753614  0.23940686  0.37841338  1  0.01823  0  -0.089581  -0.137275  0  3.975519  0
C  C17  1  0.53432118  0.20171990  0.29647305  1  -0.092171  0  0.0057  0.043182  0  3.982494  0
C  C18  1  0.70262563  0.12069111  0.85938169  1  0.124729  0  -0.088859  -0.13296  0  3.974076  0
C  C19  1  0.55437033  0.20189893  0.90288400  1  0.007764  0  0.005053  0.039119  0  3.983333  0
C  C20  1  0.51197449  0.59563792  0.29430724  1  0.007184  0  0.005156  0.041079  0  3.982568  0
C  C21  1  0.65754634  0.64198713  0.25843223  1  0.038068  0  -0.088272  -0.133834  0  3.975065  0
C  C22  1  0.40256623  0.23831273  0.85855555  1  0.004503  0  -0.081506  -0.208982  0  3.879425  0
C  C23  1  0.38162150  0.19264239  0.76965033  1  0.569403  0  0.102509  0.325497  0  4.038286  0
C  C24  1  0.54478783  0.11260755  0.72533327  1  -0.015658  0  -0.028671  -0.195013  0  3.984009  0
C  C25  1  0.70795486  0.07860668  0.77157112  1  -0.144046  0  -0.07745  -0.060724  0  3.996312  0
C  C26  1  0.66745957  0.73013299  0.30537905  1  -0.040544  0  -0.077219  -0.05971  0  3.996316  0
C  C27  1  0.51063951  0.77387370  0.38488877  1  -0.040136  0  -0.02964  -0.196498  0  3.987832  0
C  C28  1  0.34638435  0.72667667  0.41823509  1  0.576924  0  0.102451  0.325336  0  4.041159  0
C  C29  1  0.36296259  0.63748815  0.37385569  1  -0.004815  0  -0.081057  -0.209048  0  3.877185  0
C  C30  1  0.37771586  0.12119807  0.25994797  1  0.026834  0  -0.081999  -0.21163  0  3.876417  0
C  C31  1  0.35694298  0.07820478  0.30632057  1  0.533344  0  0.101864  0.32597  0  4.036404  0
C  C32  1  0.52714104  0.11357098  0.38686925  1  -0.04435  0  -0.029628  -0.197258  0  3.987651  0
C  C33  1  0.69492371  0.19360915  0.42100848  1  0.106087  0  -0.077057  -0.058721  0  3.996571  0
C  C34  1  0.52591295  0.37779626  0.25391132  1  1.548547  0  0.357318  0.504348  0  4.08307  0
C  C35  1  0.54996042  0.24303336  0.11997965  1  1.502076  0  0.35691  0.503817  0  4.08136  0
C  C36  1  0.53706946  0.24853768  0.24883949  1  1.131604  0  0.263094  0.388063  0  4.027779  0
C  C37  1  0.51993689  0.50144873  0.24767548  1  1.066013  0  0.26244  0.387844  0  4.028725  0
C  C38  1  0.53984411  0.37814353  0.11940220  1  1.482261  0  0.356896  0.502512  0  4.084497  0
C  C39  1  0.55463479  0.24907676  0.99674155  1  1.02397  0  0.263237  0.38992  0  4.025732  0
N  N40  1  0.53846752  0.33297412  0.16443159  1  -1.240777  0  -0.192746  -0.241646  0  3.555344  0
N  N41  1  0.54175396  0.20125560  0.16348439  1  -1.217622  0  -0.316014  -0.435567  0  3.194861  0
N  N42  1  0.53337773  0.33426552  0.29570123  1  -1.139049  0  -0.316921  -0.436862  0  3.19734  0
N  N43  1  0.50650043  0.46264913  0.29477467  1  -1.217  0  -0.31583  -0.436255  0  3.201016  0
N  N44  1  0.54106527  0.46328331  0.16255452  1  -1.118693  0  -0.316008  -0.435064  0  3.198588  0
N  N45  1  0.56793215  0.20179766  0.03541925  1  -1.152368  0  -0.316687  -0.437501  0  3.196062  0
N  N46  1  0.53895789  0.33470936  0.03468190  1  -1.181089  0  -0.316063  -0.435454  0  3.200248  0
O  O47  1  0.30195326  0.90670039  0.49088196  1  -1.264019  0  -0.24114  -0.615164  0  2.388609  0
O  O48  1  0.30031333  0.00938966  0.41659176  1  -1.255546  0  -0.241821  -0.616816  0  2.397283  0
O  O49  1  0.31619529  0.08345659  0.59179899  1  -1.267448  0  -0.24173  -0.619061  0  2.403107  0
O  O50  1  0.76271758  0.90666213  0.41777074  1  -1.25553  0  -0.238259  -0.591548  0  2.375465  0
O  O51  1  0.77969119  0.01128158  0.59422543  1  -1.255078  0  -0.238393  -0.5888  0  2.361794  0
O  O52  1  0.77497300  0.08315942  0.48881851  1  -1.26411  0  -0.238556  -0.589882  0  2.367453  0
O  O53  1  0.18235283  0.00323885  0.27083006  1  -1.128269  0  -0.345076  -0.427067  0  2.250858  0
O  O54  1  0.18240730  0.76405220  0.49257412  1  -1.173438  0  -0.34503  -0.426945  0  2.252152  0
O  O55  1  0.21261534  0.22825070  0.72994928  1  -1.122057  0  -0.345197  -0.42797  0  2.250505  0
