# generated using pymatgen
data_AlH5C11SO8
_symmetry_space_group_name_H-M   'P 1'
_cell_length_a   6.61275827
_cell_length_b   11.13070839
_cell_length_c   12.52782896
_cell_angle_alpha   82.53785961
_cell_angle_beta   77.93473183
_cell_angle_gamma   72.07789094
_symmetry_Int_Tables_number   1
_chemical_formula_structural   AlH5C11SO8
_chemical_formula_sum   'Al2 H10 C22 S2 O16'
_cell_volume   855.84981390
_cell_formula_units_Z   2
loop_
 _symmetry_equiv_pos_site_id
 _symmetry_equiv_pos_as_xyz
  1  'x, y, z'
loop_
 _atom_site_type_symbol
 _atom_site_label
 _atom_site_symmetry_multiplicity
 _atom_site_fract_x
 _atom_site_fract_y
 _atom_site_fract_z
 _atom_site_occupancy
 _atom_site_pbe_bader_charge
 _atom_site_pbe_bader_spin_density
 _atom_site_pbe_cm5_charge
 _atom_site_pbe_ddec_charge
 _atom_site_pbe_ddec_spin_density
 _atom_site_pbe_ddec_sum_bond_order
 _atom_site_pbe_magmom
Al  Al0  1  0.48069726  0.50772305  0.50614766  1  2.501509  0  0.389923  1.642546  0  2.578001  0
Al  Al1  1  0.98461851  0.50577338  0.50496273  1  2.501499  0  0.394958  1.635923  0  2.566976  0
H  H2  1  0.28236276  0.35292587  0.57367236  1  0.634805  0  0.332657  0.421379  0  0.897483  0
H  H3  1  0.68387464  0.65956259  0.44051750  1  0.610466  0  0.348793  0.426653  0  0.865511  0
H  H4  1  0.19869269  0.24604079  0.34563911  1  0.104344  0  0.108108  0.11456  0  1.029483  0
H  H5  1  0.52761994  0.12998659  0.22603055  1  0.053112  0  0.106194  0.102086  0  0.986612  0
H  H6  1  0.40827140  0.77475882  0.35191179  1  0.13366  0  0.109238  0.114301  0  1.033784  0
H  H7  1  0.63027178  0.89373916  0.22793119  1  0.0454  0  0.107103  0.104791  0  0.982905  0
H  H8  1  0.32658296  0.44387937  0.75886644  1  0.658113  0  0.322039  0.375396  0  0.913926  0
H  H9  1  0.83449210  0.56548260  0.12245761  1  0.607499  0  0.301965  0.317823  0  0.984676  0
H  H10  1  0.00268057  0.79266183  0.71297326  1  0.63124  0  0.341303  0.381977  0  0.861178  0
H  H11  1  0.76937643  0.14416095  0.73345461  1  0.601715  0  0.347313  0.383074  0  0.849166  0
C  C12  1  0.84536868  0.28301430  0.48949519  1  1.616736  0  0.274143  0.644256  0  4.102847  0
C  C13  1  0.66761214  0.50100281  0.70361766  1  1.545802  0  0.247989  0.653125  0  4.146828  0
C  C14  1  0.12131900  0.73323478  0.51330105  1  1.56112  0  0.267181  0.629348  0  4.139367  0
C  C15  1  0.30168047  0.51406005  0.30943140  1  1.584966  0  0.250309  0.651549  0  4.159909  0
C  C16  1  0.42050216  0.47335505  0.88169476  1  0.684444  0  0.088853  0.290116  0  4.107029  0
C  C17  1  0.55825952  0.53587646  0.12955429  1  0.560983  0  0.092871  0.295881  0  4.070476  0
C  C18  1  0.60521641  0.50303179  0.82119561  1  -0.187903  0  -0.046483  -0.285021  0  3.982695  0
C  C19  1  0.37293793  0.50941125  0.19166070  1  -0.116495  0  -0.039476  -0.253861  0  3.92186  0
C  C20  1  0.57577550  0.52046838  0.01669778  1  -0.113319  0  -0.035969  -0.149512  0  4.138997  0
C  C21  1  0.40547553  0.48284773  0.99504107  1  -0.143886  0  -0.031284  -0.100875  0  4.072927  0
C  C22  1  0.91692224  0.14139227  0.48952138  1  0.011349  0  0.004842  -0.083941  0  3.905839  0
C  C23  1  0.11336641  0.07719600  0.42207145  1  -0.019727  0  0.010794  0.077707  0  3.933067  0
C  C24  1  0.79067863  0.07449242  0.55987358  1  -0.007018  0  -0.006433  -0.097391  0  3.987973  0
C  C25  1  0.24433084  0.14313916  0.34849611  1  0.026049  0  -0.080833  -0.11763  0  3.937317  0
C  C26  1  0.42857282  0.07782098  0.28165451  1  0.014527  0  -0.081604  -0.06818  0  4.006201  0
C  C27  1  0.05127870  0.87534842  0.50420214  1  0.040223  0  0.001727  -0.086222  0  3.92151  0
C  C28  1  0.86269940  0.94003782  0.57040767  1  -0.041503  0  -0.011893  -0.106184  0  4.008017  0
C  C29  1  0.17755049  0.94133685  0.42658668  1  -0.011848  0  0.007204  0.072946  0  3.940837  0
C  C30  1  0.36412924  0.87735138  0.35351952  1  -0.048259  0  -0.085113  -0.130617  0  3.948655  0
C  C31  1  0.48744140  0.94433449  0.28322075  1  -0.09302  0  -0.082959  -0.067727  0  4.010467  0
C  C32  1  0.73650785  0.87073694  0.65681567  1  1.546336  0  0.22854  0.57241  0  4.129001  0
C  C33  1  0.58590431  0.14452873  0.63222914  1  1.55268  0  0.24548  0.590404  0  4.099008  0
S  S34  1  0.75731011  0.54271119  0.90131976  1  0.302306  0  0.091132  0.182356  0  2.881743  0
S  S35  1  0.22483195  0.46279108  0.11223859  1  0.213766  0  0.084527  0.124948  0  2.850637  0
O  O36  1  0.65542674  0.33949043  0.47237236  1  -1.255613  0  -0.223807  -0.567591  0  2.333258  0
O  O37  1  0.84562067  0.52072627  0.65678138  1  -1.249236  0  -0.236594  -0.56764  0  2.321215  0
O  O38  1  0.99017054  0.67952284  0.49387797  1  -1.247626  0  -0.223851  -0.575052  0  2.347008  0
O  O39  1  0.42167889  0.54567297  0.36184495  1  -1.261658  0  -0.241155  -0.600018  0  2.391364  0
O  O40  1  0.30507009  0.67819250  0.53922448  1  -1.247614  0  -0.23063  -0.578261  0  2.336414  0
O  O41  1  0.12439258  0.48873345  0.35234455  1  -1.245823  0  -0.244998  -0.590731  0  2.306531  0
O  O42  1  0.97712519  0.33467513  0.51097696  1  -1.251317  0  -0.221456  -0.57154  0  2.370015  0
O  O43  1  0.53256032  0.47552275  0.65439169  1  -1.259716  0  -0.245082  -0.625988  0  2.380482  0
O  O44  1  0.24613013  0.44417910  0.55339336  1  -1.438663  0  -0.455037  -1.002942  0  2.188811  0
O  O45  1  0.71797216  0.56950786  0.46123800  1  -1.411535  0  -0.448026  -0.985398  0  2.198128  0
O  O46  1  0.27591763  0.44103380  0.83986103  1  -1.155108  0  -0.336641  -0.420526  0  2.331029  0
O  O47  1  0.69641464  0.57396496  0.17299951  1  -1.122516  0  -0.326108  -0.384192  0  2.354021  0
O  O48  1  0.85202418  0.79123672  0.72955337  1  -1.119116  0  -0.328291  -0.475038  0  2.252701  0
O  O49  1  0.54395352  0.88537456  0.66656568  1  -1.10717  0  -0.272579  -0.429869  0  2.05116  0
O  O50  1  0.61537423  0.17239605  0.72966377  1  -1.07795  0  -0.320677  -0.457653  0  2.202515  0
O  O51  1  0.40633633  0.17714442  0.60923062  1  -1.111014  0  -0.248204  -0.425955  0  2.144673  0
