# generated using pymatgen
data_ZnH12(CO)8
_symmetry_space_group_name_H-M   'P 1'
_cell_length_a   8.05454771
_cell_length_b   9.94969282
_cell_length_c   13.90797863
_cell_angle_alpha   93.60726604
_cell_angle_beta   89.99998580
_cell_angle_gamma   89.99990093
_symmetry_Int_Tables_number   1
_chemical_formula_structural   ZnH12(CO)8
_chemical_formula_sum   'Zn4 H48 C32 O32'
_cell_volume   1112.38096731
_cell_formula_units_Z   4
loop_
 _symmetry_equiv_pos_site_id
 _symmetry_equiv_pos_as_xyz
  1  'x, y, z'
loop_
 _atom_site_type_symbol
 _atom_site_label
 _atom_site_symmetry_multiplicity
 _atom_site_fract_x
 _atom_site_fract_y
 _atom_site_fract_z
 _atom_site_occupancy
 _atom_site_hle17_bader_spin_density
 _atom_site_hle17_ddec_charge
 _atom_site_hle17_ddec_spin_density
 _atom_site_hle17_ddec_sum_bond_order
 _atom_site_hle17_magmom
 _atom_site_hse06_10hf_bader_spin_density
 _atom_site_hse06_10hf_ddec_charge
 _atom_site_hse06_10hf_ddec_spin_density
 _atom_site_hse06_10hf_ddec_sum_bond_order
 _atom_site_hse06_10hf_magmom
 _atom_site_hse06_bader_spin_density
 _atom_site_hse06_ddec_charge
 _atom_site_hse06_ddec_spin_density
 _atom_site_hse06_ddec_sum_bond_order
 _atom_site_hse06_magmom
 _atom_site_pbe_bader_spin_density
 _atom_site_pbe_cm5_charge
 _atom_site_pbe_ddec_charge
 _atom_site_pbe_ddec_spin_density
 _atom_site_pbe_ddec_sum_bond_order
 _atom_site_pbe_magmom
Zn  Zn0  1  0.83727437  0.24315038  0.79992751  1  0  1.195032  0  1.677049  0  0  1.023242  0  2.134046  0  0  1.0731  0  2.070921  0  0  0.695895  0.98791  0  2.177751  0
Zn  Zn1  1  0.33727486  0.25685307  0.70006987  1  0  1.195007  0  1.677173  0  0  1.023234  0  2.13415  0  0  1.073088  0  2.071027  0  0  0.695885  0.987901  0  2.177844  0
Zn  Zn2  1  0.16272702  0.75684625  0.20007068  1  0  1.195022  0  1.677106  0  0  1.023238  0  2.134078  0  0  1.07309  0  2.070958  0  0  0.695912  0.987902  0  2.177787  0
Zn  Zn3  1  0.66272654  0.74314870  0.29993208  1  0  1.195008  0  1.677098  0  0  1.023209  0  2.134082  0  0  1.073065  0  2.070961  0  0  0.695877  0.987876  0  2.177793  0
H  H4  1  0.12245211  0.22543044  0.88879884  1  0  0.44043  0  0.857676  0  0  0.408765  0  0.921393  0  0  0.419766  0  0.90551  0  0  0.298524  0.401016  0  0.932559  0
H  H5  1  0.62245412  0.27457338  0.61120147  1  0  0.440518  0  0.857523  0  0  0.408794  0  0.921327  0  0  0.419795  0  0.905445  0  0  0.298518  0.401045  0  0.932495  0
H  H6  1  0.87754928  0.77457137  0.11120455  1  0  0.440361  0  0.857744  0  0  0.408685  0  0.921482  0  0  0.419687  0  0.9056  0  0  0.298472  0.400936  0  0.932649  0
H  H7  1  0.37754231  0.72542730  0.38879757  1  0  0.440622  0  0.857426  0  0  0.40887  0  0.921275  0  0  0.419872  0  0.90539  0  0  0.298543  0.401122  0  0.932439  0
H  H8  1  0.98221238  0.19940531  0.97008529  1  0  0.435648  0  0.873092  0  0  0.398628  0  0.946462  0  0  0.411017  0  0.928601  0  0  0.289334  0.389906  0  0.959001  0
H  H9  1  0.48221532  0.30060200  0.52991290  1  0  0.435612  0  0.873122  0  0  0.398609  0  0.946464  0  0  0.410995  0  0.928607  0  0  0.28932  0.389891  0  0.958998  0
H  H10  1  0.01778653  0.80059444  0.02991659  1  0  0.435708  0  0.873007  0  0  0.398694  0  0.946363  0  0  0.411082  0  0.928504  0  0  0.28936  0.389978  0  0.958892  0
H  H11  1  0.51778235  0.69940269  0.47008554  1  0  0.435642  0  0.873069  0  0  0.398622  0  0.946444  0  0  0.411009  0  0.928587  0  0  0.289326  0.389907  0  0.958971  0
H  H12  1  0.00621087  0.40388882  0.30290494  1  0  0.141826  0  0.945727  0  0  0.15122  0  1.003717  0  0  0.154957  0  1.001652  0  0  0.119554  0.148507  0  1.005342  0
H  H13  1  0.50620083  0.09611399  0.19709322  1  0  0.141787  0  0.945728  0  0  0.151132  0  1.003799  0  0  0.154867  0  1.001735  0  0  0.119541  0.148423  0  1.005423  0
H  H14  1  0.99378929  0.59611490  0.69709491  1  0  0.141792  0  0.945758  0  0  0.151187  0  1.003754  0  0  0.154924  0  1.001689  0  0  0.119527  0.148476  0  1.005377  0
H  H15  1  0.49378939  0.90388577  0.80290867  1  0  0.141792  0  0.945811  0  0  0.151205  0  1.003775  0  0  0.154941  0  1.00171  0  0  0.119551  0.148496  0  1.005402  0
H  H16  1  0.78481576  0.34785203  0.44263841  1  0  0.149306  0  0.94044  0  0  0.155901  0  1.001789  0  0  0.160419  0  0.997787  0  0  0.118928  0.152618  0  1.004728  0
H  H17  1  0.28480413  0.15214433  0.05735807  1  0  0.149322  0  0.9405  0  0  0.155963  0  1.001782  0  0  0.160482  0  0.997778  0  0  0.118932  0.152676  0  1.004721  0
H  H18  1  0.21518812  0.65215068  0.55736141  1  0  0.149261  0  0.940453  0  0  0.155854  0  1.001809  0  0  0.160373  0  0.997807  0  0  0.118893  0.152568  0  1.004748  0
H  H19  1  0.71518857  0.84785534  0.94264094  1  0  0.149276  0  0.940418  0  0  0.155907  0  1.001724  0  0  0.160425  0  0.997724  0  0  0.11891  0.152621  0  1.004665  0
H  H20  1  0.76124498  0.50106518  0.77215069  1  0  0.378002  0  0.918126  0  0  0.351268  0  0.989032  0  0  0.362051  0  0.97795  0  0  0.295181  0.343627  0  0.996865  0
H  H21  1  0.26124116  0.99893863  0.72784656  1  0  0.378014  0  0.918101  0  0  0.351283  0  0.989009  0  0  0.362069  0  0.977921  0  0  0.295222  0.343643  0  0.996837  0
H  H22  1  0.23876014  0.49893143  0.22784679  1  0  0.377937  0  0.91819  0  0  0.351214  0  0.989099  0  0  0.361997  0  0.978015  0  0  0.295171  0.343577  0  0.996921  0
H  H23  1  0.73875775  0.00106212  0.27215464  1  0  0.377904  0  0.918287  0  0  0.351196  0  0.989145  0  0  0.361978  0  0.978066  0  0  0.295203  0.34356  0  0.996967  0
H  H24  1  0.66683243  0.51313377  0.93085678  1  0  0.061264  0  0.944936  0  0  0.074809  0  1.018885  0  0  0.075622  0  1.018249  0  0  0.084671  0.074097  0  1.019429  0
H  H25  1  0.16682747  0.98686515  0.56914105  1  0  0.061305  0  0.944835  0  0  0.074807  0  1.018835  0  0  0.07562  0  1.018198  0  0  0.084661  0.074094  0  1.019384  0
H  H26  1  0.33317145  0.48686383  0.06914000  1  0  0.061264  0  0.944904  0  0  0.074787  0  1.018874  0  0  0.075599  0  1.018236  0  0  0.084653  0.074078  0  1.019413  0
H  H27  1  0.83317641  0.01313661  0.43086018  1  0  0.061238  0  0.944867  0  0  0.07474  0  1.018868  0  0  0.075552  0  1.018231  0  0  0.084644  0.074025  0  1.019416  0
H  H28  1  0.84105314  0.62361954  0.91922925  1  0  0.082014  0  0.953216  0  0  0.099114  0  1.018103  0  0  0.099936  0  1.017755  0  0  0.093514  0.098416  0  1.018442  0
H  H29  1  0.34104843  0.87638020  0.58077002  1  0  0.082004  0  0.953245  0  0  0.099099  0  1.018127  0  0  0.099921  0  1.017778  0  0  0.093543  0.098406  0  1.018468  0
H  H30  1  0.15895323  0.37637602  0.08076676  1  0  0.081981  0  0.953219  0  0  0.099097  0  1.018087  0  0  0.099918  0  1.017739  0  0  0.093507  0.098406  0  1.018429  0
H  H31  1  0.65895794  0.12362157  0.41923193  1  0  0.081943  0  0.95325  0  0  0.099069  0  1.01811  0  0  0.099897  0  1.017746  0  0  0.093505  0.098374  0  1.018451  0
H  H32  1  0.87000094  0.46185220  0.96621084  1  0  0.085759  0  0.951584  0  0  0.103936  0  1.015866  0  0  0.104308  0  1.016067  0  0  0.099058  0.103543  0  1.015858  0
H  H33  1  0.36999082  0.03814718  0.53378641  1  0  0.085701  0  0.951678  0  0  0.103923  0  1.015897  0  0  0.104298  0  1.016095  0  0  0.099046  0.103531  0  1.015887  0
H  H34  1  0.13000543  0.53814542  0.03378666  1  0  0.085745  0  0.951647  0  0  0.103903  0  1.015938  0  0  0.104275  0  1.016138  0  0  0.099047  0.103511  0  1.01593  0
H  H35  1  0.63001430  0.96185664  0.46621704  1  0  0.085661  0  0.951603  0  0  0.103834  0  1.015904  0  0  0.104208  0  1.016102  0  0  0.099025  0.103445  0  1.01589  0
H  H36  1  0.94866772  0.99073457  0.78103297  1  0  0.378234  0  0.919506  0  0  0.350128  0  0.991887  0  0  0.361734  0  0.979616  0  0  0.293841  0.341955  0  1.000479  0
H  H37  1  0.44866505  0.50926610  0.71896846  1  0  0.378222  0  0.919561  0  0  0.35011  0  0.991955  0  0  0.361716  0  0.979683  0  0  0.293833  0.341934  0  1.000553  0
H  H38  1  0.05133492  0.00925806  0.21896582  1  0  0.378151  0  0.919487  0  0  0.350059  0  0.991869  0  0  0.361666  0  0.979594  0  0  0.293798  0.341886  0  1.000461  0
H  H39  1  0.55133759  0.49073664  0.28103208  1  0  0.378177  0  0.919489  0  0  0.350059  0  0.99191  0  0  0.361666  0  0.979637  0  0  0.293802  0.341883  0  1.000505  0
H  H40  1  0.64164604  0.01977929  0.67506823  1  0  0.091766  0  0.958559  0  0  0.109104  0  1.023265  0  0  0.109868  0  1.023231  0  0  0.099498  0.108387  0  1.023511  0
H  H41  1  0.14164844  0.48022270  0.82493921  1  0  0.091773  0  0.958542  0  0  0.109099  0  1.023276  0  0  0.109863  0  1.02324  0  0  0.099474  0.10838  0  1.02352  0
H  H42  1  0.35835411  0.98022045  0.32493294  1  0  0.091765  0  0.958547  0  0  0.109095  0  1.023258  0  0  0.109859  0  1.023223  0  0  0.099509  0.108376  0  1.023509  0
H  H43  1  0.85835296  0.51977404  0.17506259  1  0  0.091785  0  0.958572  0  0  0.109097  0  1.023328  0  0  0.109859  0  1.023295  0  0  0.099485  0.108378  0  1.023575  0
H  H44  1  0.74751444  0.86542739  0.69390954  1  0  0.067353  0  0.961859  0  0  0.085374  0  1.027515  0  0  0.085179  0  1.028323  0  0  0.089976  0.085353  0  1.027147  0
H  H45  1  0.24752013  0.63457268  0.80609694  1  0  0.067326  0  0.961909  0  0  0.085345  0  1.027553  0  0  0.085151  0  1.028361  0  0  0.089993  0.085318  0  1.027191  0
H  H46  1  0.25248199  0.13457130  0.30609016  1  0  0.067368  0  0.961861  0  0  0.085381  0  1.027517  0  0  0.085185  0  1.028324  0  0  0.089998  0.085358  0  1.027151  0
H  H47  1  0.75248127  0.36542610  0.19390563  1  0  0.067377  0  0.961896  0  0  0.085405  0  1.027535  0  0  0.08521  0  1.028344  0  0  0.090014  0.085377  0  1.027171  0
H  H48  1  0.84043201  0.98664325  0.62080139  1  0  0.060048  0  0.944431  0  0  0.077823  0  1.012507  0  0  0.078625  0  1.01202  0  0  0.085829  0.077081  0  1.013025  0
H  H49  1  0.34043919  0.51335560  0.87920216  1  0  0.060023  0  0.944388  0  0  0.077744  0  1.012535  0  0  0.078544  0  1.01205  0  0  0.085809  0.076997  0  1.013054  0
H  H50  1  0.15956442  0.01335443  0.37919827  1  0  0.060053  0  0.944431  0  0  0.07783  0  1.012503  0  0  0.07863  0  1.012017  0  0  0.085832  0.077089  0  1.013017  0
H  H51  1  0.65956469  0.48664415  0.12079973  1  0  0.060004  0  0.944461  0  0  0.077787  0  1.012537  0  0  0.078589  0  1.012049  0  0  0.085818  0.077043  0  1.013054  0
C  C52  1  0.97193121  0.28168822  0.62498255  1  0  0.627814  0  3.947058  0  0  0.57234  0  4.239833  0  0  0.607588  0  4.231661  0  0  0.214085  0.548438  0  4.244688  0
C  C53  1  0.47192550  0.21830801  0.87501460  1  0  0.627618  0  3.947155  0  0  0.572113  0  4.239984  0  0  0.607361  0  4.231815  0  0  0.214019  0.548214  0  4.244835  0
C  C54  1  0.02807267  0.71830839  0.37501493  1  0  0.627662  0  3.947243  0  0  0.572164  0  4.24005  0  0  0.60741  0  4.231885  0  0  0.214023  0.548262  0  4.244906  0
C  C55  1  0.52807341  0.78169275  0.12498732  1  0  0.627734  0  3.947249  0  0  0.572217  0  4.240093  0  0  0.607464  0  4.231922  0  0  0.214048  0.548321  0  4.244943  0
C  C56  1  0.01280347  0.31267084  0.52645484  1  0  0.055064  0  3.709514  0  0  0.048494  0  3.97972  0  0  0.047221  0  3.995658  0  0  0.062592  0.049287  0  3.968854  0
C  C57  1  0.51279684  0.18733308  0.97354405  1  0  0.054971  0  3.709447  0  0  0.048513  0  3.97958  0  0  0.047256  0  3.995523  0  0  0.06265  0.049301  0  3.968714  0
C  C58  1  0.98720289  0.68732980  0.47354276  1  0  0.055008  0  3.709401  0  0  0.048528  0  3.979547  0  0  0.047243  0  3.995485  0  0  0.062669  0.04931  0  3.968683  0
C  C59  1  0.48719959  0.81267277  0.02645946  1  0  0.05499  0  3.7095  0  0  0.048489  0  3.979677  0  0  0.047228  0  3.995618  0  0  0.062605  0.049276  0  3.968812  0
C  C60  1  0.19113251  0.36025070  0.41292490  1  0  0.080979  0  3.67029  0  0  0.069857  0  3.944415  0  0  0.072952  0  3.957452  0  0  0.072816  0.067636  0  3.93582  0
C  C61  1  0.69112242  0.13975202  0.08707825  1  0  0.080932  0  3.670461  0  0  0.069821  0  3.944602  0  0  0.072969  0  3.957596  0  0  0.072806  0.067613  0  3.936  0
C  C62  1  0.80887013  0.63975101  0.58707489  1  0  0.08089  0  3.670272  0  0  0.069783  0  3.944451  0  0  0.07285  0  3.957507  0  0  0.0728  0.067574  0  3.935839  0
C  C63  1  0.30887152  0.86025080  0.91292516  1  0  0.080864  0  3.670357  0  0  0.069734  0  3.944538  0  0  0.072845  0  3.957564  0  0  0.072781  0.06752  0  3.935935  0
C  C64  1  0.03433661  0.37416199  0.37476077  1  0  -0.134285  0  3.693542  0  0  -0.16736  0  3.962238  0  0  -0.169578  0  3.978432  0  0  -0.096744  -0.165759  0  3.951261  0
C  C65  1  0.53432902  0.12583984  0.12523950  1  0  -0.13406  0  3.693509  0  0  -0.167072  0  3.962201  0  0  -0.169296  0  3.978383  0  0  -0.096687  -0.165481  0  3.951226  0
C  C66  1  0.96566479  0.62584072  0.62523904  1  0  -0.134194  0  3.693574  0  0  -0.167256  0  3.962266  0  0  -0.16947  0  3.978469  0  0  -0.096724  -0.165666  0  3.951289  0
C  C67  1  0.46566492  0.87416294  0.87476247  1  0  -0.13408  0  3.693741  0  0  -0.167154  0  3.962414  0  0  -0.16937  0  3.978603  0  0  -0.096665  -0.165565  0  3.951446  0
C  C68  1  0.91942047  0.34391902  0.44760204  1  0  -0.11127  0  3.679334  0  0  -0.146957  0  3.949268  0  0  -0.145513  0  3.964481  0  0  -0.089256  -0.147535  0  3.938517  0
C  C69  1  0.41941256  0.15608124  0.05239597  1  0  -0.111359  0  3.679303  0  0  -0.147117  0  3.949228  0  0  -0.145677  0  3.964449  0  0  -0.089288  -0.147685  0  3.938469  0
C  C70  1  0.08058217  0.65608169  0.55239772  1  0  -0.111225  0  3.6793  0  0  -0.146922  0  3.949218  0  0  -0.145476  0  3.964429  0  0  -0.089253  -0.147492  0  3.938462  0
C  C71  1  0.58058015  0.84392246  0.94760316  1  0  -0.111314  0  3.679368  0  0  -0.147045  0  3.949309  0  0  -0.145599  0  3.964518  0  0  -0.089298  -0.147618  0  3.938559  0
C  C72  1  0.36136179  0.37921698  0.37542896  1  0  0.618292  0  3.964713  0  0  0.562303  0  4.273238  0  0  0.59596  0  4.263287  0  0  0.211865  0.53948  0  4.279595  0
C  C73  1  0.86135174  0.12078041  0.12457185  1  0  0.618333  0  3.964699  0  0  0.562362  0  4.273194  0  0  0.596006  0  4.263247  0  0  0.211852  0.539531  0  4.27956  0
C  C74  1  0.63863836  0.62078370  0.62457008  1  0  0.61829  0  3.964767  0  0  0.562287  0  4.273309  0  0  0.595949  0  4.263365  0  0  0.211868  0.539456  0  4.279674  0
C  C75  1  0.13864097  0.87921731  0.87542926  1  0  0.618416  0  3.964538  0  0  0.562443  0  4.273033  0  0  0.596101  0  4.263081  0  0  0.21193  0.539613  0  4.279398  0
C  C76  1  0.80041162  0.51804447  0.91429515  1  0  -0.024077  0  3.648232  0  0  -0.11694  0  3.913909  0  0  -0.110647  0  3.918532  0  0  -0.155925  -0.121083  0  3.910769  0
C  C77  1  0.30040418  0.98195522  0.58570052  1  0  -0.024074  0  3.648169  0  0  -0.116911  0  3.91379  0  0  -0.110614  0  3.918403  0  0  -0.155915  -0.121058  0  3.91066  0
C  C78  1  0.19959474  0.48195311  0.08570092  1  0  -0.02412  0  3.64824  0  0  -0.116926  0  3.91387  0  0  -0.110629  0  3.918489  0  0  -0.155941  -0.121081  0  3.910739  0
C  C79  1  0.69959970  0.01804653  0.41430070  1  0  -0.023902  0  3.648086  0  0  -0.116719  0  3.913683  0  0  -0.110424  0  3.918304  0  0  -0.155879  -0.120862  0  3.910542  0
C  C80  1  0.76333892  0.97354859  0.68499382  1  0  -0.013974  0  3.649165  0  0  -0.105887  0  3.910415  0  0  -0.099585  0  3.915731  0  0  -0.156487  -0.109908  0  3.906809  0
C  C81  1  0.26333989  0.52645341  0.81501056  1  0  -0.013803  0  3.648959  0  0  -0.105674  0  3.910237  0  0  -0.099373  0  3.915557  0  0  -0.15642  -0.10969  0  3.90663  0
C  C82  1  0.23666000  0.02645008  0.31500516  1  0  -0.013961  0  3.649153  0  0  -0.105862  0  3.910414  0  0  -0.099558  0  3.91573  0  0  -0.156493  -0.109882  0  3.906807  0
C  C83  1  0.73666275  0.47354632  0.18499061  1  0  -0.013903  0  3.649101  0  0  -0.105822  0  3.910365  0  0  -0.099523  0  3.915685  0  0  -0.156468  -0.109839  0  3.906755  0
O  O84  1  0.81944344  0.27967702  0.65066299  1  0  -0.631556  0  2.080467  0  0  -0.552214  0  2.320102  0  0  -0.582166  0  2.310284  0  0  -0.295778  -0.531571  0  2.326651  0
O  O85  1  0.31944022  0.22031941  0.84933418  1  0  -0.631339  0  2.080427  0  0  -0.552024  0  2.320087  0  0  -0.58197  0  2.310274  0  0  -0.295714  -0.531375  0  2.326621  0
O  O86  1  0.18055671  0.72031754  0.34933298  1  0  -0.631421  0  2.08056  0  0  -0.552061  0  2.320195  0  0  -0.582008  0  2.310381  0  0  -0.295713  -0.531414  0  2.326736  0
O  O87  1  0.68055745  0.77968536  0.15066714  1  0  -0.631417  0  2.080557  0  0  -0.552082  0  2.320187  0  0  -0.58203  0  2.310375  0  0  -0.295708  -0.531436  0  2.326725  0
O  O88  1  0.08526816  0.25850798  0.68576671  1  0  -0.643722  0  2.110255  0  0  -0.572482  0  2.389413  0  0  -0.599533  0  2.37154  0  0  -0.306538  -0.553527  0  2.401045  0
O  O89  1  0.58526519  0.24148878  0.81423123  1  0  -0.643644  0  2.11026  0  0  -0.572388  0  2.389366  0  0  -0.599437  0  2.371493  0  0  -0.306526  -0.553438  0  2.40101  0
O  O90  1  0.91473324  0.74149071  0.31423299  1  0  -0.643667  0  2.110296  0  0  -0.572417  0  2.389434  0  0  -0.599469  0  2.371565  0  0  -0.306535  -0.553459  0  2.401067  0
O  O91  1  0.41473373  0.75850892  0.18576915  1  0  -0.643744  0  2.110371  0  0  -0.572452  0  2.389467  0  0  -0.599502  0  2.371595  0  0  -0.306537  -0.553496  0  2.401097  0
O  O92  1  0.37283354  0.42677721  0.29196969  1  0  -0.609137  0  2.025574  0  0  -0.546437  0  2.239668  0  0  -0.572372  0  2.230529  0  0  -0.307959  -0.528383  0  2.245648  0
O  O93  1  0.87282852  0.07321503  0.20802737  1  0  -0.609108  0  2.025603  0  0  -0.546408  0  2.239647  0  0  -0.572348  0  2.230524  0  0  -0.307935  -0.528357  0  2.245633  0
O  O94  1  0.62716786  0.57322448  0.70802938  1  0  -0.609157  0  2.025609  0  0  -0.546433  0  2.239683  0  0  -0.572368  0  2.230547  0  0  -0.307964  -0.528382  0  2.245674  0
O  O95  1  0.12716791  0.92677659  0.79197140  1  0  -0.609168  0  2.025601  0  0  -0.546451  0  2.239656  0  0  -0.572394  0  2.230526  0  0  -0.307952  -0.528399  0  2.245643  0
O  O96  1  0.48455310  0.34843107  0.42547717  1  0  -0.590434  0  1.976433  0  0  -0.541125  0  2.1997  0  0  -0.564034  0  2.187941  0  0  -0.308877  -0.525268  0  2.207461  0
O  O97  1  0.98454547  0.15156718  0.07452364  1  0  -0.590522  0  1.976299  0  0  -0.541213  0  2.199561  0  0  -0.564122  0  2.187805  0  0  -0.308916  -0.52535  0  2.207327  0
O  O98  1  0.51544458  0.65157066  0.57452333  1  0  -0.59041  0  1.976394  0  0  -0.541089  0  2.199666  0  0  -0.563996  0  2.187909  0  0  -0.308869  -0.525228  0  2.207428  0
O  O99  1  0.01544848  0.84843163  0.92548038  1  0  -0.590604  0  1.976147  0  0  -0.541296  0  2.199407  0  0  -0.564206  0  2.187646  0  0  -0.308982  -0.525433  0  2.207169  0
O  O100  1  0.00380484  0.23922403  0.90569416  1  0  -0.873826  0  1.932739  0  0  -0.806723  0  2.169194  0  0  -0.830257  0  2.129544  0  0  -0.583264  -0.789999  0  2.196634  0
O  O101  1  0.50380316  0.26078903  0.59430716  1  0  -0.87383  0  1.932648  0  0  -0.806694  0  2.169183  0  0  -0.830242  0  2.12957  0  0  -0.583236  -0.789972  0  2.196617  0
O  O102  1  0.99619656  0.76077370  0.09430695  1  0  -0.873794  0  1.932724  0  0  -0.806692  0  2.169177  0  0  -0.830219  0  2.129519  0  0  -0.583238  -0.789972  0  2.196615  0
O  O103  1  0.49619203  0.73921765  0.40569062  1  0  -0.873989  0  1.932531  0  0  -0.806791  0  2.169027  0  0  -0.830346  0  2.129425  0  0  -0.58327  -0.790075  0  2.196466  0
O  O104  1  0.17879789  0.32138998  0.50535442  1  0  -0.190389  0  2.450483  0  0  -0.115171  0  2.667595  0  0  -0.131632  0  2.677342  0  0  -0.106594  -0.104153  0  2.660996  0
O  O105  1  0.67879251  0.17861576  0.99464522  1  0  -0.190347  0  2.450241  0  0  -0.115223  0  2.667386  0  0  -0.131737  0  2.677149  0  0  -0.106624  -0.104204  0  2.660787  0
O  O106  1  0.82120102  0.67861064  0.49464246  1  0  -0.190327  0  2.450226  0  0  -0.115207  0  2.667386  0  0  -0.131632  0  2.677116  0  0  -0.106616  -0.104177  0  2.660772  0
O  O107  1  0.32120516  0.82138910  0.00535898  1  0  -0.19026  0  2.450293  0  0  -0.115107  0  2.667439  0  0  -0.131598  0  2.677202  0  0  -0.106564  -0.104082  0  2.660832  0
O  O108  1  0.83523304  0.45727775  0.81996110  1  0  -0.56241  0  2.233027  0  0  -0.485596  0  2.492835  0  0  -0.507865  0  2.481061  0  0  -0.40732  -0.469895  0  2.500655  0
O  O109  1  0.33522658  0.04272475  0.68003769  1  0  -0.562405  0  2.232973  0  0  -0.485629  0  2.492808  0  0  -0.507896  0  2.481026  0  0  -0.407379  -0.46993  0  2.500633  0
O  O110  1  0.16477084  0.54271784  0.18003563  1  0  -0.562268  0  2.233016  0  0  -0.485509  0  2.492832  0  0  -0.507778  0  2.481059  0  0  -0.407273  -0.46981  0  2.500653  0
O  O111  1  0.66477482  0.95727709  0.31996641  1  0  -0.562331  0  2.233118  0  0  -0.485571  0  2.492947  0  0  -0.507838  0  2.48117  0  0  -0.407329  -0.469878  0  2.50077  0
O  O112  1  0.83755769  0.03594366  0.77018766  1  0  -0.563775  0  2.234849  0  0  -0.485447  0  2.499362  0  0  -0.507148  0  2.48473  0  0  -0.410425  -0.47021  0  2.509037  0
O  O113  1  0.33755768  0.46405792  0.72981470  1  0  -0.563886  0  2.234817  0  0  -0.485541  0  2.499304  0  0  -0.50724  0  2.48467  0  0  -0.410461  -0.470304  0  2.508979  0
O  O114  1  0.16244247  0.96405295  0.22980982  1  0  -0.563724  0  2.234848  0  0  -0.485405  0  2.499312  0  0  -0.507106  0  2.484682  0  0  -0.410414  -0.470165  0  2.508977  0
O  O115  1  0.66244620  0.53594280  0.27018577  1  0  -0.563777  0  2.234685  0  0  -0.485428  0  2.499175  0  0  -0.507126  0  2.484544  0  0  -0.410425  -0.470193  0  2.508849  0
