# generated using pymatgen
data_MnH17C19SN3O7
_symmetry_space_group_name_H-M   'P 1'
_cell_length_a   8.44974966
_cell_length_b   11.61114868
_cell_length_c   28.22148528
_cell_angle_alpha   89.99951688
_cell_angle_beta   90.00051571
_cell_angle_gamma   106.26277140
_symmetry_Int_Tables_number   1
_chemical_formula_structural   MnH17C19SN3O7
_chemical_formula_sum   'Mn4 H68 C76 S4 N12 O28'
_cell_volume   2658.05800137
_cell_formula_units_Z   4
loop_
 _symmetry_equiv_pos_site_id
 _symmetry_equiv_pos_as_xyz
  1  'x, y, z'
loop_
 _atom_site_type_symbol
 _atom_site_label
 _atom_site_symmetry_multiplicity
 _atom_site_fract_x
 _atom_site_fract_y
 _atom_site_fract_z
 _atom_site_occupancy
 _atom_site_pbe_bader_charge
 _atom_site_pbe_bader_spin_density
 _atom_site_pbe_cm5_charge
 _atom_site_pbe_ddec_charge
 _atom_site_pbe_ddec_spin_density
 _atom_site_pbe_ddec_sum_bond_order
 _atom_site_pbe_magmom
Mn  Mn0  1  0.81389427  0.63719874  0.80027891  1  1.502204  4.546064  0.601562  0.923526  4.673684  2.363307  4.472
Mn  Mn1  1  0.68610210  0.36279576  0.30027825  1  1.502177  4.546089  0.601537  0.9235  4.673728  2.363276  4.472
Mn  Mn2  1  0.18610557  0.36280237  0.19971980  1  1.502126  4.546051  0.601542  0.923448  4.673649  2.36345  4.472
Mn  Mn3  1  0.31389613  0.63720087  0.69972152  1  1.502106  4.546104  0.601552  0.923456  4.673719  2.36334  4.472
H  H4  1  0.16012391  0.66420108  0.80454991  1  0.650437  0.002433  0.288582  0.380303  0.001164  0.9676  0.003
H  H5  1  0.33987470  0.33580133  0.30454940  1  0.650415  0.002434  0.288548  0.380305  0.001164  0.967616  0.003
H  H6  1  0.83987227  0.33579641  0.19545021  1  0.650485  0.002434  0.288566  0.380305  0.001164  0.967597  0.003
H  H7  1  0.66012418  0.66419709  0.69545073  1  0.650485  0.002433  0.288538  0.380254  0.001164  0.96769  0.003
H  H8  1  0.06991143  0.67204162  0.85549004  1  0.644611  0.001132  0.282445  0.366839  0.001166  0.990245  0.002
H  H9  1  0.43008928  0.32795913  0.35549016  1  0.644391  0.001133  0.282439  0.366848  0.001166  0.990243  0.002
H  H10  1  0.93009024  0.32796130  0.14450973  1  0.644427  0.001133  0.282449  0.366848  0.001166  0.990233  0.002
H  H11  1  0.56991175  0.67204201  0.64450997  1  0.644442  0.001132  0.28245  0.366862  0.001166  0.990212  0.002
H  H12  1  0.58372652  0.51951399  0.87824494  1  0.538379  0.000135  0.30284  0.285034  -0.000214  1.017397  0.0
H  H13  1  0.91627120  0.48048108  0.37824448  1  0.538356  0.000135  0.302827  0.284996  -0.000213  1.0174  0.0
H  H14  1  0.41627593  0.48048449  0.12175554  1  0.538401  0.000135  0.302845  0.285063  -0.000213  1.017391  0.0
H  H15  1  0.08372823  0.51951557  0.62175564  1  0.538379  0.000135  0.30284  0.285021  -0.000213  1.017376  0.0
H  H16  1  0.34794858  0.61045316  0.87269373  1  0.086278  0.001866  0.115481  0.115714  0.000986  0.949325  0.001
H  H17  1  0.15204293  0.38954360  0.37268792  1  0.086423  0.001866  0.115415  0.115598  0.000986  0.949373  0.001
H  H18  1  0.65204910  0.38954524  0.12730781  1  0.086321  0.001866  0.115429  0.115624  0.000986  0.9494  0.001
H  H19  1  0.84794808  0.61044935  0.62730973  1  0.086332  0.001866  0.115404  0.115572  0.000986  0.949387  0.001
H  H20  1  0.23545422  0.47678051  0.84426016  1  0.094623  0.000868  0.117445  0.10622  0.000332  1.015999  0.0
H  H21  1  0.26453573  0.52321757  0.34425737  1  0.094711  0.000868  0.117415  0.106145  0.000332  1.016068  0.0
H  H22  1  0.76454401  0.52321612  0.15574174  1  0.094622  0.000868  0.117427  0.106163  0.000332  1.016034  0.0
H  H23  1  0.73546059  0.47677368  0.65574169  1  0.0946  0.000868  0.117407  0.106158  0.000332  1.016043  0.0
H  H24  1  0.53569997  0.31433810  0.98085890  1  0.108929  7e-06  0.111038  0.120951  -2e-06  0.988796  0.0
H  H25  1  0.96430082  0.68566697  0.48085786  1  0.108883  7e-06  0.111044  0.120946  -2e-06  0.988815  0.0
H  H26  1  0.46430513  0.68567112  0.01914123  1  0.10893  7e-06  0.111025  0.120928  -2e-06  0.988767  0.0
H  H27  1  0.03570369  0.31433065  0.51914298  1  0.10882  7e-06  0.11102  0.120881  -2e-06  0.988768  0.0
H  H28  1  0.42528042  0.32804948  0.06249565  1  0.090256  0.000216  0.10618  0.108376  -7.7e-05  1.00591  0.0
H  H29  1  0.07472368  0.67195866  0.56249449  1  0.09019  0.000216  0.106169  0.10838  -7.7e-05  1.005843  0.0
H  H30  1  0.57472642  0.67195799  0.93750448  1  0.090235  0.000216  0.106178  0.108413  -7.7e-05  1.005848  0.0
H  H31  1  0.92528005  0.32804341  0.43750599  1  0.090212  0.000216  0.106151  0.108357  -7.7e-05  1.005885  0.0
H  H32  1  0.98730909  0.38821143  0.00297498  1  0.115025  4.6e-05  0.107329  0.111294  7e-06  1.005948  0.0
H  H33  1  0.51268952  0.61178427  0.50297422  1  0.115012  4.6e-05  0.107329  0.111242  7e-06  1.005935  0.0
H  H34  1  0.01269185  0.61178614  0.99702692  1  0.114971  4.6e-05  0.107329  0.111266  7e-06  1.006017  0.0
H  H35  1  0.48731197  0.38821152  0.49702697  1  0.115122  4.6e-05  0.107303  0.111258  7e-06  1.005922  0.0
H  H36  1  0.09722195  0.37758735  0.92151618  1  0.069236  0.000158  0.105278  0.106761  7e-05  1.018035  0.0
H  H37  1  0.40276654  0.62240681  0.42151554  1  0.069019  0.000158  0.105295  0.106817  7e-05  1.018046  0.0
H  H38  1  0.90277368  0.62241192  0.07848501  1  0.069183  0.000158  0.105286  0.106791  7e-05  1.018097  0.0
H  H39  1  0.59723271  0.37758271  0.57848600  1  0.078568  0.000158  0.105261  0.106758  7e-05  1.018062  0.0
H  H40  1  0.94952673  0.46283339  0.86037191  1  0.103055  0.001375  0.116545  0.077774  0.000774  1.038894  0.001
H  H41  1  0.55047032  0.53716463  0.36037453  1  0.103  0.001375  0.116562  0.077835  0.000773  1.038757  0.001
H  H42  1  0.05046596  0.53716761  0.13962892  1  0.10304  0.001375  0.116549  0.077785  0.000774  1.038777  0.001
H  H43  1  0.44954024  0.46283666  0.63962878  1  0.102985  0.001375  0.116586  0.077832  0.000774  1.038752  0.001
H  H44  1  0.96167727  0.25257129  0.86178646  1  0.086478  0.000564  0.109099  0.116485  0.00031  1.03284  0.0
H  H45  1  0.53832306  0.74742586  0.36178726  1  0.086447  0.000564  0.109126  0.116534  0.00031  1.032849  0.0
H  H46  1  0.03831423  0.74742969  0.13821402  1  0.086483  0.000564  0.109099  0.116461  0.00031  1.032816  0.0
H  H47  1  0.46168479  0.25257449  0.63821393  1  0.086484  0.000564  0.109117  0.116554  0.00031  1.03277  0.0
H  H48  1  0.64982154  0.19061949  0.73706451  1  0.102036  0.000618  0.106276  0.112934  0.000356  1.029537  0.0
H  H49  1  0.85018030  0.80938234  0.23706841  1  0.102086  0.000618  0.106267  0.112909  0.000356  1.029606  0.0
H  H50  1  0.35018553  0.80938530  0.26293243  1  0.10204  0.000618  0.106247  0.112884  0.000356  1.029586  0.0
H  H51  1  0.14981674  0.19061427  0.76293066  1  0.102091  0.000618  0.106261  0.112924  0.000356  1.029603  0.0
H  H52  1  0.64516020  0.40153737  0.74286185  1  0.101936  0.001195  0.118677  0.086257  0.000382  1.006949  0.0
H  H53  1  0.85484124  0.59846616  0.24286649  1  0.101867  0.001195  0.118688  0.086285  0.000382  1.006866  0.0
H  H54  1  0.35484655  0.59846654  0.25713580  1  0.101762  0.001195  0.118708  0.086275  0.000382  1.006883  0.0
H  H55  1  0.14515526  0.40153223  0.75713506  1  0.101822  0.001195  0.118678  0.086272  0.000382  1.006838  0.0
H  H56  1  0.97923646  0.87504520  0.85479747  1  0.104713  0.00123  0.125541  0.099231  0.000474  0.978404  0.0
H  H57  1  0.52076348  0.12495473  0.35479860  1  0.104554  0.00123  0.125549  0.099282  0.000474  0.978352  0.0
H  H58  1  0.02075386  0.12495576  0.14520195  1  0.104589  0.00123  0.125547  0.099304  0.000474  0.978328  0.0
H  H59  1  0.47923984  0.87504287  0.64520117  1  0.10464  0.00123  0.125517  0.099239  0.000474  0.978358  0.0
H  H60  1  0.99098141  0.08989184  0.85594868  1  0.108119  0.000534  0.113428  0.130308  0.000293  1.007323  0.0
H  H61  1  0.50901585  0.91010714  0.35594989  1  0.108056  0.000534  0.113418  0.130265  0.000293  1.00728  0.0
H  H62  1  0.00900890  0.91010912  0.14405180  1  0.108122  0.000534  0.113411  0.130315  0.000293  1.007223  0.0
H  H63  1  0.49097969  0.08988856  0.64405023  1  0.108115  0.000534  0.113416  0.130288  0.000293  1.007338  0.0
H  H64  1  0.62981850  0.01398233  0.74258080  1  0.098122  0.000529  0.105224  0.107604  0.000212  1.041705  0.0
H  H65  1  0.87018206  0.98602208  0.24258378  1  0.098175  0.000529  0.105276  0.107705  0.000212  1.041724  0.0
H  H66  1  0.37019017  0.98602695  0.25741614  1  0.098251  0.000529  0.105258  0.107679  0.000212  1.041621  0.0
H  H67  1  0.12981301  0.01397896  0.75741564  1  0.098183  0.000529  0.105276  0.107736  0.000212  1.041644  0.0
H  H68  1  0.63822601  0.80447195  0.74550026  1  0.14044  0.001239  0.123574  0.09766  0.000542  1.036596  0.001
H  H69  1  0.86177765  0.19553424  0.24550242  1  0.14048  0.001238  0.123592  0.097685  0.000542  1.036545  0.001
H  H70  1  0.36177877  0.19553638  0.25449526  1  0.140411  0.001239  0.123567  0.097631  0.000542  1.036578  0.001
H  H71  1  0.13822283  0.80446867  0.75449558  1  0.140526  0.001238  0.12359  0.097659  0.000542  1.036591  0.001
C  C72  1  0.42076945  0.59086841  0.80069482  1  1.59842  0.027227  0.229616  0.616432  0.026758  4.126043  0.023
C  C73  1  0.07921702  0.40914012  0.30069158  1  1.598283  0.027233  0.229634  0.616406  0.026763  4.12612  0.023
C  C74  1  0.57922792  0.40912910  0.19930673  1  1.598388  0.027229  0.229595  0.616417  0.02676  4.126376  0.023
C  C75  1  0.92077774  0.59086002  0.69930678  1  1.598455  0.02723  0.229642  0.616328  0.026762  4.126182  0.023
C  C76  1  0.35987444  0.53727555  0.84918129  1  0.302013  0.003264  -0.057822  -0.144252  0.002164  3.944988  0.001
C  C77  1  0.14011476  0.46272333  0.34917768  1  0.301614  0.003263  -0.057645  -0.143926  0.002164  3.944977  0.001
C  C78  1  0.64012444  0.46272287  0.15081990  1  0.301992  0.003264  -0.057716  -0.144006  0.002164  3.944819  0.001
C  C79  1  0.85988077  0.53727237  0.65082032  1  0.302069  0.003263  -0.057689  -0.143943  0.002164  3.944941  0.001
C  C80  1  0.32260804  0.34450135  0.94678275  1  -0.162304  0.001028  -0.018411  -0.084098  0.0008  3.985729  0.001
C  C81  1  0.17738892  0.65549788  0.44678140  1  -0.162318  0.001028  -0.018302  -0.083839  0.0008  3.985584  0.001
C  C82  1  0.67739610  0.65550518  0.05321844  1  -0.162338  0.001028  -0.018328  -0.083838  0.0008  3.985613  0.001
C  C83  1  0.82261486  0.34449438  0.55322015  1  -0.162439  0.001028  -0.018357  -0.083823  0.0008  3.985539  0.001
C  C84  1  0.41678465  0.33180607  0.98611924  1  -0.014045  -3.2e-05  -0.082981  -0.091981  -5.9e-05  3.988054  0.0
C  C85  1  0.08321661  0.66819528  0.48611794  1  -0.014084  -3.1e-05  -0.082989  -0.092037  -5.9e-05  3.988176  0.0
C  C86  1  0.58322338  0.66820142  0.01388160  1  -0.013943  -3.1e-05  -0.083007  -0.092053  -5.9e-05  3.988201  0.0
C  C87  1  0.91678543  0.33179873  0.51388289  1  -0.013975  -3.2e-05  -0.082928  -0.091895  -5.9e-05  3.987905  0.0
C  C88  1  0.35492662  0.33979269  0.03141000  1  -0.045803  0.001012  -0.08034  -0.083294  0.000606  3.95906  0.001
C  C89  1  0.14507298  0.66020874  0.53140871  1  -0.045693  0.001012  -0.080348  -0.083364  0.000605  3.95914  0.001
C  C90  1  0.64507569  0.66021203  0.96859013  1  -0.045749  0.001012  -0.08033  -0.083395  0.000605  3.95904  0.001
C  C91  1  0.85493121  0.33978798  0.46859177  1  -0.045799  0.001012  -0.080369  -0.08342  0.000605  3.958978  0.001
C  C92  1  0.20003086  0.35970005  0.03758803  1  -0.013837  0.001897  -0.016863  -0.037356  0.001301  3.967239  0.001
C  C93  1  0.29996888  0.64030128  0.53758723  1  -0.013812  0.001898  -0.01681  -0.037171  0.001301  3.967219  0.001
C  C94  1  0.79997287  0.64030202  0.96241245  1  -0.013818  0.001897  -0.016821  -0.037215  0.001301  3.967265  0.001
C  C95  1  0.70003086  0.35969627  0.46241361  1  -0.013443  0.001898  -0.016833  -0.037218  0.001301  3.967249  0.001
C  C96  1  0.10795009  0.37358296  0.99772090  1  0.003686  0.001305  -0.07859  -0.081252  0.001022  3.957309  0.001
C  C97  1  0.39204637  0.62641724  0.49771988  1  0.003723  0.001304  -0.078639  -0.081279  0.001022  3.957278  0.001
C  C98  1  0.89205277  0.62641999  0.00228029  1  0.003683  0.001304  -0.078675  -0.081332  0.001022  3.957403  0.001
C  C99  1  0.60795631  0.37357857  0.50228167  1  0.003252  0.001304  -0.078582  -0.081273  0.001022  3.957418  0.001
C  C100  1  0.16910656  0.36682021  0.95238568  1  -0.084404  0.000108  -0.086465  -0.092949  4.5e-05  3.983081  0.0
C  C101  1  0.33088689  0.63317532  0.45238482  1  -0.08421  0.000108  -0.086522  -0.093116  4.5e-05  3.983165  0.0
C  C102  1  0.83089566  0.63318095  0.04761551  1  -0.084444  0.000108  -0.086452  -0.093036  4.5e-05  3.983078  0.0
C  C103  1  0.66911547  0.36681960  0.54761566  1  -0.093539  0.000109  -0.086448  -0.093024  4.5e-05  3.983188  0.0
C  C104  1  0.12911231  0.36280707  0.08625156  1  1.538982  0.005555  0.214695  0.571851  0.005026  4.189408  0.005
C  C105  1  0.37088307  0.63719788  0.58625167  1  1.539227  0.005552  0.214607  0.57167  0.005024  4.189615  0.005
C  C106  1  0.87088468  0.63719935  0.91374892  1  1.539204  0.005553  0.214676  0.571837  0.005025  4.189327  0.005
C  C107  1  0.62911938  0.36280060  0.41374881  1  1.539013  0.005553  0.214627  0.571602  0.005023  4.189698  0.005
C  C108  1  0.88496426  0.39886861  0.83363025  1  0.519959  0.007039  0.051396  0.097441  0.005512  3.952532  0.005
C  C109  1  0.61503365  0.60113074  0.33362963  1  0.520173  0.007036  0.051367  0.097404  0.00551  3.952633  0.005
C  C110  1  0.11503296  0.60113514  0.16637235  1  0.519795  0.00704  0.051398  0.097383  0.005513  3.952464  0.005
C  C111  1  0.38497008  0.39887133  0.66637226  1  0.520255  0.007037  0.05142  0.097393  0.005511  3.952467  0.005
C  C112  1  0.89008185  0.28053810  0.83435119  1  -0.020833  0.000956  -0.075804  -0.152444  0.000358  3.914646  0.0
C  C113  1  0.60991489  0.71946122  0.33435263  1  -0.021008  0.000957  -0.075804  -0.152498  0.000359  3.914541  0.0
C  C114  1  0.10990727  0.71946284  0.16564929  1  -0.02101  0.000957  -0.075825  -0.152394  0.000359  3.914454  0.0
C  C115  1  0.39008637  0.28053725  0.66564608  1  -0.021138  0.000957  -0.07582  -0.152538  0.000359  3.914421  0.0
C  C116  1  0.80499040  0.20002988  0.79973681  1  -0.03743  0.005742  0.015309  0.104067  0.004384  3.952931  0.003
C  C117  1  0.69501694  0.79997551  0.29973997  1  -0.037431  0.005739  0.015246  0.104087  0.004382  3.952751  0.003
C  C118  1  0.19501048  0.79997749  0.20026119  1  -0.037246  0.005744  0.01533  0.104085  0.004386  3.952661  0.003
C  C119  1  0.30498798  0.20002658  0.70025910  1  -0.037315  0.005739  0.01531  0.104179  0.004382  3.952555  0.003
C  C120  1  0.71692490  0.24563811  0.76575966  1  0.008573  0.00089  -0.07417  -0.154148  0.000382  3.904549  0.0
C  C121  1  0.78308002  0.75436332  0.26576251  1  0.008535  0.000891  -0.074216  -0.154257  0.000384  3.904453  0.0
C  C122  1  0.28307453  0.75435854  0.23423975  1  0.008435  0.00089  -0.074217  -0.154261  0.000382  3.904471  0.0
C  C123  1  0.21692252  0.24563873  0.73423797  1  0.008585  0.00089  -0.07421  -0.154323  0.000383  3.904423  0.0
C  C124  1  0.71600579  0.36494989  0.76811971  1  0.471325  0.007316  0.055727  0.109206  0.005491  3.93014  0.005
C  C125  1  0.78399355  0.63505230  0.26812368  1  0.471537  0.007312  0.055713  0.10932  0.005489  3.930084  0.005
C  C126  1  0.28399230  0.63505298  0.23187864  1  0.471515  0.007314  0.05575  0.109366  0.00549  3.930112  0.005
C  C127  1  0.21601375  0.36494983  0.73187857  1  0.471951  0.007311  0.05575  0.109345  0.005488  3.930111  0.005
C  C128  1  0.90319412  0.90991034  0.83058738  1  0.514405  0.007042  0.055885  0.100215  0.005255  3.951762  0.005
C  C129  1  0.59680317  0.09009083  0.33058955  1  0.514486  0.007045  0.055807  0.10008  0.005257  3.951692  0.005
C  C130  1  0.09679803  0.09009243  0.16941097  1  0.514381  0.007043  0.055754  0.10002  0.005256  3.951765  0.005
C  C131  1  0.40319635  0.90990939  0.66941199  1  0.514436  0.007043  0.055863  0.100167  0.005256  3.951788  0.005
C  C132  1  0.90781853  0.03053078  0.83119484  1  -0.070634  0.000756  -0.078429  -0.177232  0.000234  3.925765  0.0
C  C133  1  0.59218235  0.96947044  0.33119642  1  -0.060487  0.000751  -0.078416  -0.177132  0.000232  3.925663  0.0
C  C134  1  0.09217925  0.96947119  0.16880493  1  -0.066623  0.000756  -0.078405  -0.177178  0.000234  3.925706  0.0
C  C135  1  0.40781653  0.03052799  0.66880371  1  -0.060596  0.000752  -0.078459  -0.177246  0.000233  3.925892  0.0
C  C136  1  0.80784936  0.07315622  0.79969310  1  0.025778  0.005958  0.015892  0.105487  0.004586  3.96883  0.003
C  C137  1  0.69215789  0.92684560  0.29969687  1  0.015598  0.005965  0.016066  0.105594  0.004587  3.968805  0.003
C  C138  1  0.19215652  0.92684856  0.20030384  1  0.021736  0.00596  0.016004  0.105512  0.004586  3.968935  0.003
C  C139  1  0.30784186  0.07315195  0.70030149  1  0.015602  0.005963  0.016126  0.105677  0.004586  3.968789  0.003
C  C140  1  0.71022778  0.98894002  0.76830642  1  -0.075615  0.000936  -0.07796  -0.162353  0.000302  3.92189  0.0
C  C141  1  0.78978054  0.01106410  0.26831045  1  -0.075336  0.000935  -0.07805  -0.162555  0.000301  3.921966  0.0
C  C142  1  0.28977929  0.01106478  0.23168981  1  -0.075638  0.000936  -0.078053  -0.162528  0.000303  3.921768  0.0
C  C143  1  0.21022049  0.98893703  0.73168897  1  -0.075558  0.000935  -0.078118  -0.1627  0.000301  3.921896  0.0
C  C144  1  0.71368688  0.87010495  0.76976085  1  0.472932  0.007487  0.055116  0.104374  0.005484  3.920103  0.005
C  C145  1  0.78631457  0.12989636  0.26976409  1  0.472785  0.00749  0.055225  0.104556  0.005486  3.920075  0.005
C  C146  1  0.28631456  0.12990065  0.23023538  1  0.472852  0.007489  0.055234  0.104617  0.005485  3.919999  0.005
C  C147  1  0.21368375  0.87010384  0.73023532  1  0.472939  0.007488  0.055199  0.104574  0.005485  3.920041  0.005
S  S148  1  0.39979255  0.33488011  0.88856410  1  3.006275  0.000409  0.551989  1.08452  0.000454  6.021536  0.0
S  S149  1  0.10020768  0.66511654  0.38856180  1  3.005912  0.00041  0.552001  1.084528  0.000455  6.021398  0.0
S  S150  1  0.60022418  0.66511860  0.11143921  1  3.006144  0.000409  0.551826  1.084163  0.000454  6.021555  0.0
S  S151  1  0.89978841  0.33487738  0.61144010  1  3.005974  0.000409  0.551899  1.084218  0.000455  6.021352  0.0
N  N152  1  0.46484185  0.47094730  0.86923294  1  -1.406035  0.001404  -0.46347  -0.471836  0.000692  3.575465  0.001
N  N153  1  0.03515260  0.52905135  0.36923093  1  -1.405376  0.001404  -0.463473  -0.471875  0.000692  3.575499  0.001
N  N154  1  0.53515703  0.52905113  0.13076754  1  -1.405978  0.001404  -0.463456  -0.471899  0.000692  3.575472  0.001
N  N155  1  0.96484564  0.47094528  0.63076813  1  -1.405947  0.001404  -0.463465  -0.471808  0.000692  3.57553  0.001
N  N156  1  0.79977036  0.44158336  0.80111087  1  -1.256645  0.049984  -0.316412  -0.245367  0.033812  3.51159  0.018
N  N157  1  0.70021986  0.55841370  0.30111169  1  -1.256654  0.049969  -0.316378  -0.245444  0.033808  3.511787  0.018
N  N158  1  0.20022678  0.55841682  0.19888855  1  -1.256265  0.049978  -0.316441  -0.245389  0.033812  3.511547  0.018
N  N159  1  0.29978410  0.44158569  0.69889021  1  -1.257139  0.049976  -0.316496  -0.245433  0.033811  3.511807  0.018
N  N160  1  0.80777876  0.82979514  0.80053688  1  -1.264241  0.048102  -0.315992  -0.248304  0.032095  3.484764  0.015
N  N161  1  0.69222289  0.17020747  0.30053939  1  -1.26431  0.048105  -0.31608  -0.24841  0.032095  3.484771  0.015
N  N162  1  0.19221847  0.17020861  0.19945970  1  -1.264097  0.0481  -0.315994  -0.248332  0.032096  3.484836  0.015
N  N163  1  0.30777544  0.82979273  0.69946074  1  -1.264339  0.048102  -0.316064  -0.248374  0.032094  3.484783  0.015
O  O164  1  0.55632701  0.58375239  0.78458530  1  -1.213499  0.062298  -0.300553  -0.54114  0.043357  2.380115  0.026
O  O165  1  0.94367085  0.41625755  0.28457982  1  -1.213815  0.062303  -0.300465  -0.541019  0.043349  2.380603  0.026
O  O166  1  0.44367173  0.41625228  0.21541554  1  -1.213573  0.062297  -0.300575  -0.541163  0.043355  2.380246  0.026
O  O167  1  0.05632843  0.58374534  0.71541818  1  -1.213852  0.062307  -0.300515  -0.541013  0.043351  2.380515  0.026
O  O168  1  0.32455650  0.63974129  0.77827728  1  -1.20376  0.06402  -0.303289  -0.565665  0.046434  2.347747  0.032
O  O169  1  0.17543868  0.36025703  0.27827341  1  -1.203563  0.064019  -0.303454  -0.565869  0.046444  2.347227  0.032
O  O170  1  0.67542750  0.36024530  0.22172107  1  -1.203761  0.064022  -0.303282  -0.565671  0.046435  2.347993  0.032
O  O171  1  0.82455622  0.63973687  0.72172494  1  -1.203593  0.064024  -0.303374  -0.565785  0.046443  2.347491  0.032
O  O172  1  0.54218726  0.29012731  0.89286039  1  -1.309969  0.000352  -0.323607  -0.533888  8.5e-05  2.140574  0.0
O  O173  1  0.95780279  0.70986829  0.39285606  1  -1.309966  0.000352  -0.323658  -0.533961  8.5e-05  2.140355  0.0
O  O174  1  0.45780067  0.70987361  0.10714222  1  -1.309791  0.000352  -0.323573  -0.53384  8.5e-05  2.139719  0.0
O  O175  1  0.04220195  0.29012666  0.60714690  1  -1.30975  0.000352  -0.323591  -0.533857  8.5e-05  2.1399  0.0
O  O176  1  0.25936544  0.27291176  0.85975087  1  -1.330625  0.000239  -0.327803  -0.564588  9.2e-05  2.192286  0.0
O  O177  1  0.24063020  0.72708438  0.35974979  1  -1.330638  0.000239  -0.327801  -0.564576  9.2e-05  2.192338  0.0
O  O178  1  0.74062795  0.72708122  0.14024820  1  -1.330805  0.000239  -0.327767  -0.564391  9.2e-05  2.192983  0.0
O  O179  1  0.75937271  0.27290876  0.64024998  1  -1.330796  0.000239  -0.327753  -0.564424  9.2e-05  2.192662  0.0
O  O180  1  0.22782031  0.36866451  0.12162509  1  -1.211194  0.054437  -0.314916  -0.574041  0.040166  2.326468  0.027
O  O181  1  0.27218069  0.63133996  0.62162424  1  -1.211243  0.05443  -0.314926  -0.57405  0.040163  2.326533  0.027
O  O182  1  0.77218200  0.63134021  0.87837540  1  -1.21122  0.054431  -0.314908  -0.574061  0.040163  2.326432  0.027
O  O183  1  0.72782199  0.36865585  0.37837624  1  -1.211051  0.054431  -0.31495  -0.574019  0.040164  2.326534  0.027
O  O184  1  0.97838420  0.35869511  0.08991339  1  -1.167387  0.005116  -0.322603  -0.549702  0.003023  2.146779  0.004
O  O185  1  0.52161504  0.64131170  0.58991219  1  -1.16753  0.005115  -0.322533  -0.549593  0.003022  2.146738  0.004
O  O186  1  0.02161811  0.64130961  0.91008886  1  -1.167575  0.005116  -0.322619  -0.549703  0.003023  2.146594  0.004
O  O187  1  0.47838750  0.35869035  0.41008829  1  -1.167501  0.005114  -0.322561  -0.549566  0.003022  2.146767  0.004
O  O188  1  0.06977354  0.69020238  0.82036500  1  -1.318901  0.067941  -0.585661  -0.79092  0.049666  2.186115  0.032
O  O189  1  0.43022737  0.30980517  0.32036376  1  -1.318611  0.067937  -0.585606  -0.790952  0.04967  2.186172  0.032
O  O190  1  0.93022845  0.30980144  0.17963512  1  -1.318739  0.067943  -0.585644  -0.79094  0.049669  2.186127  0.032
O  O191  1  0.56977613  0.69019957  0.67963601  1  -1.318678  0.067922  -0.585641  -0.790905  0.049667  2.186144  0.032
