# generated using pymatgen
data_InH25C38(NO4)2
_symmetry_space_group_name_H-M   'P 1'
_cell_length_a   9.81033969
_cell_length_b   12.86647854
_cell_length_c   13.22970000
_cell_angle_alpha   82.41281265
_cell_angle_beta   85.40763271
_cell_angle_gamma   80.52578592
_symmetry_Int_Tables_number   1
_chemical_formula_structural   InH25C38(NO4)2
_chemical_formula_sum   'In2 H50 C76 N4 O16'
_cell_volume   1629.80568078
_cell_formula_units_Z   2
loop_
 _symmetry_equiv_pos_site_id
 _symmetry_equiv_pos_as_xyz
  1  'x, y, z'
loop_
 _atom_site_type_symbol
 _atom_site_label
 _atom_site_symmetry_multiplicity
 _atom_site_fract_x
 _atom_site_fract_y
 _atom_site_fract_z
 _atom_site_occupancy
 _atom_site_hle17_bader_spin_density
 _atom_site_hle17_ddec_charge
 _atom_site_hle17_ddec_spin_density
 _atom_site_hle17_ddec_sum_bond_order
 _atom_site_hle17_magmom
 _atom_site_hse06_10hf_bader_spin_density
 _atom_site_hse06_10hf_ddec_charge
 _atom_site_hse06_10hf_ddec_spin_density
 _atom_site_hse06_10hf_ddec_sum_bond_order
 _atom_site_hse06_10hf_magmom
 _atom_site_hse06_bader_spin_density
 _atom_site_hse06_ddec_charge
 _atom_site_hse06_ddec_spin_density
 _atom_site_hse06_ddec_sum_bond_order
 _atom_site_hse06_magmom
 _atom_site_pbe_bader_charge
 _atom_site_pbe_bader_spin_density
 _atom_site_pbe_cm5_charge
 _atom_site_pbe_ddec_charge
 _atom_site_pbe_ddec_spin_density
 _atom_site_pbe_ddec_sum_bond_order
 _atom_site_pbe_magmom
In  In0  1  0.36914937  0.73172726  0.44632211  1  0  1.482067  0  2.205495  0  0  1.293666  0  2.640316  0  0  1.365798  0  2.595  0  1.838689  0  0.734068  1.24389  0  2.670178  0
In  In1  1  0.63084528  0.26825414  0.55368226  1  0  1.482111  0  2.205477  0  0  1.293623  0  2.640365  0  0  1.365756  0  2.595049  0  1.838975  0  0.734089  1.243846  0  2.670228  0
H  H2  1  0.21832796  0.91022678  0.58196598  1  0  0.085488  0  0.976941  0  0  0.092461  0  1.044759  0  0  0.094491  0  1.043088  0  0.142357  0  0.120495  0.091121  0  1.045734  0
H  H3  1  0.78167299  0.08976890  0.41803694  1  0  0.085452  0  0.976911  0  0  0.092406  0  1.044765  0  0  0.094435  0  1.043095  0  0.142298  0  0.120469  0.091067  0  1.045739  0
H  H4  1  0.27095764  0.00977623  0.72198094  1  0  0.112305  0  0.941422  0  0  0.123276  0  0.996837  0  0  0.126283  0  0.996878  0  0.107739  0  0.109963  0.120809  0  0.997759  0
H  H5  1  0.72905450  0.99021469  0.27802268  1  0  0.112294  0  0.941372  0  0  0.123272  0  0.996776  0  0  0.126279  0  0.996814  0  0.107597  0  0.109949  0.12081  0  0.997698  0
H  H6  1  0.52298956  0.00546043  0.75502075  1  0  0.113099  0  0.942732  0  0  0.119731  0  1.007212  0  0  0.123587  0  1.003365  0  0.143861  0  0.111628  0.116892  0  1.010011  0
H  H7  1  0.47702367  0.99453525  0.24497313  1  0  0.113124  0  0.942753  0  0  0.11984  0  1.007112  0  0  0.123696  0  1.003265  0  0.144497  0  0.111686  0.117001  0  1.00991  0
H  H8  1  0.70344023  0.90655157  0.64874977  1  0  0.10035  0  0.980792  0  0  0.111088  0  1.042389  0  0  0.112915  0  1.043623  0  0.088105  0  0.106637  0.109848  0  1.041651  0
H  H9  1  0.29656660  0.09345046  0.35123309  1  0  0.100287  0  0.9808  0  0  0.111059  0  1.042329  0  0  0.11289  0  1.043561  0  0.08822  0  0.106651  0.109818  0  1.04159  0
H  H10  1  0.84329009  0.82773291  0.55479225  1  0  0.098939  0  0.983952  0  0  0.109661  0  1.045864  0  0  0.111913  0  1.046142  0  0.07914  0  0.106358  0.108225  0  1.045588  0
H  H11  1  0.15670656  0.17227389  0.44519665  1  0  0.09902  0  0.983894  0  0  0.109748  0  1.045798  0  0  0.111998  0  1.046084  0  0.079096  0  0.106384  0.108306  0  1.045532  0
H  H12  1  0.00601254  0.72469513  0.43748757  1  0  0.128487  0  0.948766  0  0  0.136383  0  1.007784  0  0  0.139931  0  1.004598  0  0.186104  0  0.116813  0.133634  0  1.010178  0
H  H13  1  0.99398599  0.27531246  0.56250565  1  0  0.128563  0  0.948679  0  0  0.136384  0  1.007791  0  0  0.139933  0  1.004603  0  0.186054  0  0.1168  0.133634  0  1.010187  0
H  H14  1  0.90756881  0.63464127  0.30838975  1  0  0.098192  0  0.960964  0  0  0.107727  0  1.023021  0  0  0.110166  0  1.02334  0  0.092665  0  0.106463  0.106426  0  1.02234  0
H  H15  1  0.09243209  0.36536474  0.69160504  1  0  0.098116  0  0.960928  0  0  0.107742  0  1.022893  0  0  0.110184  0  1.02321  0  0.092776  0  0.106474  0.10644  0  1.022214  0
H  H16  1  0.64921669  0.64931514  0.30691286  1  0  0.096887  0  0.967039  0  0  0.102879  0  1.032629  0  0  0.105411  0  1.030815  0  0.153179  0  0.122424  0.101037  0  1.034107  0
H  H17  1  0.35078824  0.35068610  0.69307777  1  0  0.096891  0  0.967133  0  0  0.102847  0  1.032747  0  0  0.105379  0  1.030938  0  0.153277  0  0.122437  0.101007  0  1.034222  0
H  H18  1  0.03939623  0.04650377  0.41895459  1  0  0.09985  0  0.955299  0  0  0.107979  0  1.022057  0  0  0.111951  0  1.018387  0  0.076617  0  0.104561  0.105154  0  1.02474  0
H  H19  1  0.96059649  0.95350224  0.58104900  1  0  0.099923  0  0.955196  0  0  0.108005  0  1.022006  0  0  0.111976  0  1.018338  0  0.076648  0  0.104552  0.105181  0  1.024689  0
H  H20  1  0.91299356  0.21241866  0.32767515  1  0  0.113716  0  0.98932  0  0  0.120856  0  1.052152  0  0  0.125369  0  1.048776  0  0.148792  0  0.104598  0.117771  0  1.05436  0
H  H21  1  0.08699964  0.78758496  0.67232720  1  0  0.113694  0  0.989361  0  0  0.120846  0  1.052189  0  0  0.125361  0  1.048807  0  0.148902  0  0.104579  0.117763  0  1.054392  0
H  H22  1  0.91811380  0.23500655  0.13754729  1  0  0.083043  0  0.968521  0  0  0.094956  0  1.027563  0  0  0.096975  0  1.027867  0  0.078637  0  0.097733  0.093599  0  1.027237  0
H  H23  1  0.08187558  0.76499072  0.86245611  1  0  0.08301  0  0.968601  0  0  0.094941  0  1.02762  0  0  0.096959  0  1.027928  0  0.078645  0  0.097757  0.093585  0  1.027295  0
H  H24  1  0.03722590  0.09043885  0.04108638  1  0  0.089116  0  0.96015  0  0  0.0983  0  1.024175  0  0  0.100534  0  1.024702  0  0.07674  0  0.097076  0.096652  0  1.024045  0
H  H25  1  0.96276929  0.90956001  0.95892025  1  0  0.089175  0  0.960193  0  0  0.098348  0  1.024208  0  0  0.100585  0  1.024733  0  0.076602  0  0.097121  0.0967  0  1.024076  0
H  H26  1  0.07189580  0.78794613  0.20472175  1  0  0.097912  0  0.943951  0  0  0.108681  0  1.003829  0  0  0.111366  0  1.003348  0  0.065583  0  0.104369  0.106775  0  1.004235  0
H  H27  1  0.92809757  0.21205670  0.79528070  1  0  0.097861  0  0.943934  0  0  0.108619  0  1.00383  0  0  0.111303  0  1.003349  0  0.065715  0  0.104325  0.106711  0  1.004237  0
H  H28  1  0.16284506  0.64266721  0.09950354  1  0  0.086811  0  0.946458  0  0  0.098401  0  1.005026  0  0  0.100812  0  1.004585  0  0.077338  0  0.102169  0.096689  0  1.005388  0
H  H29  1  0.83714798  0.35733721  0.90049419  1  0  0.086923  0  0.946379  0  0  0.098444  0  1.005009  0  0  0.100855  0  1.004568  0  0.077277  0  0.102178  0.096732  0  1.005372  0
H  H30  1  0.31594404  0.67744124  0.94381894  1  0  0.08452  0  0.978221  0  0  0.092484  0  1.045435  0  0  0.094422  0  1.046172  0  0.074609  0  0.09903  0.091097  0  1.045006  0
H  H31  1  0.68405751  0.32256158  0.05618302  1  0  0.084466  0  0.978223  0  0  0.092426  0  1.045446  0  0  0.094361  0  1.046187  0  0.074536  0  0.099031  0.091039  0  1.045019  0
H  H32  1  0.38511872  0.85721956  0.89781968  1  0  0.100772  0  0.957136  0  0  0.110538  0  1.020182  0  0  0.113324  0  1.019022  0  0.106215  0  0.104673  0.108536  0  1.021078  0
H  H33  1  0.61488794  0.14278327  0.10218198  1  0  0.100789  0  0.957076  0  0  0.110545  0  1.020144  0  0  0.113331  0  1.018983  0  0.106183  0  0.104682  0.108543  0  1.021039  0
H  H34  1  0.89695664  0.51404423  0.64889623  1  0  0.100314  0  0.94896  0  0  0.11068  0  1.00867  0  0  0.114413  0  1.006003  0  0.066379  0  0.105164  0.108435  0  1.009641  0
H  H35  1  0.10304420  0.48595701  0.35110825  1  0  0.100257  0  0.949007  0  0  0.110632  0  1.008716  0  0  0.114368  0  1.006052  0  0.066288  0  0.105138  0.108386  0  1.009688  0
H  H36  1  0.92911503  0.67608149  0.72477232  1  0  0.08432  0  0.992752  0  0  0.094738  0  1.056881  0  0  0.096883  0  1.056778  0  0.063413  0  0.096978  0.092598  0  1.058344  0
H  H37  1  0.07088173  0.32391975  0.27522938  1  0  0.084305  0  0.992784  0  0  0.094713  0  1.056914  0  0  0.096856  0  1.056812  0  0.063413  0  0.096977  0.092573  0  1.058376  0
H  H38  1  0.73604338  0.76633619  0.83196949  1  0  0.096779  0  0.954598  0  0  0.107252  0  1.014554  0  0  0.110197  0  1.013036  0  0.096708  0  0.100174  0.105388  0  1.015366  0
H  H39  1  0.26395505  0.23366188  0.16803327  1  0  0.096832  0  0.954501  0  0  0.107301  0  1.014469  0  0  0.110245  0  1.012955  0  0.096711  0  0.100192  0.105438  0  1.01528  0
H  H40  1  0.51536919  0.69492034  0.86143026  1  0  0.088127  0  0.975586  0  0  0.100642  0  1.037615  0  0  0.102954  0  1.037445  0  0.061947  0  0.097935  0.099207  0  1.037545  0
H  H41  1  0.48463112  0.30507852  0.13857002  1  0  0.088184  0  0.975562  0  0  0.100675  0  1.0376  0  0  0.102986  0  1.037432  0  0.061941  0  0.097953  0.099241  0  1.037527  0
H  H42  1  0.51098449  0.43693140  0.93930892  1  0  0.088532  0  0.974879  0  0  0.097299  0  1.043445  0  0  0.099528  0  1.043864  0  0.060075  0  0.096859  0.095717  0  1.043304  0
H  H43  1  0.48901776  0.56305793  0.06069095  1  0  0.088585  0  0.974832  0  0  0.097339  0  1.043425  0  0  0.099561  0  1.043876  0  0.060106  0  0.096883  0.095755  0  1.043282  0
H  H44  1  0.28105852  0.38915044  0.99884184  1  0  0.085559  0  0.974026  0  0  0.096637  0  1.033765  0  0  0.099243  0  1.03279  0  0.106887  0  0.096059  0.094917  0  1.034319  0
H  H45  1  0.71894281  0.61083334  0.00115200  1  0  0.085561  0  0.973948  0  0  0.096593  0  1.033747  0  0  0.099204  0  1.032775  0  0.106865  0  0.09604  0.094873  0  1.034301  0
H  H46  1  0.07774147  0.45538288  0.89183515  1  0  0.085756  0  0.952819  0  0  0.097875  0  1.009562  0  0  0.100893  0  1.008676  0  0.0853  0  0.097648  0.09551  0  1.010759  0
H  H47  1  0.92225695  0.54461518  0.10816308  1  0  0.085761  0  0.952861  0  0  0.097878  0  1.009602  0  0  0.100897  0  1.008716  0  0.085202  0  0.097669  0.095513  0  1.010798  0
H  H48  1  0.11296989  0.56555438  0.72429297  1  0  0.093972  0  0.972979  0  0  0.103936  0  1.037167  0  0  0.106889  0  1.035451  0  0.073855  0  0.103441  0.101613  0  1.038962  0
H  H49  1  0.88703171  0.43445321  0.27571065  1  0  0.093937  0  0.972918  0  0  0.103934  0  1.037095  0  0  0.106888  0  1.035379  0  0.073914  0  0.10342  0.101609  0  1.038895  0
H  H50  1  0.37452122  0.12400713  0.89355741  1  0  0.407375  0  0.783586  0  0  0.39398  0  0.832929  0  0  0.403343  0  0.823274  0  0.61787  0  0.348982  0.387224  0  0.840027  0
H  H51  1  0.62547047  0.87599887  0.10644548  1  0  0.40738  0  0.783536  0  0  0.394025  0  0.832833  0  0  0.403388  0  0.823178  0  0.617888  0  0.349009  0.387268  0  0.839933  0
C  C52  1  0.20420480  0.89016789  0.34172999  1  0  0.62136  0  3.92128  0  0  0.570116  0  4.221564  0  0  0.604771  0  4.215023  0  1.536489  0  0.208742  0.546858  0  4.224935  0
C  C53  1  0.79579212  0.10983255  0.65827558  1  0  0.621314  0  3.921525  0  0  0.570005  0  4.22183  0  0  0.604661  0  4.215292  0  1.536168  0  0.208606  0.546746  0  4.2252  0
C  C54  1  0.67549972  0.41995715  0.66200282  1  0  0.639029  0  3.894184  0  0  0.588293  0  4.18943  0  0  0.624053  0  4.181359  0  1.522423  0  0.213948  0.564392  0  4.193946  0
C  C55  1  0.32450823  0.58003933  0.33799958  1  0  0.638955  0  3.894463  0  0  0.588161  0  4.189783  0  0  0.623924  0  4.18171  0  1.522937  0  0.213939  0.564259  0  4.194295  0
C  C56  1  0.34128788  0.62382915  0.63428285  1  0  0.629904  0  3.89188  0  0  0.580524  0  4.18543  0  0  0.615738  0  4.17833  0  1.541704  0  0.212705  0.556847  0  4.189473  0
C  C57  1  0.65871211  0.37617129  0.36572102  1  0  0.62976  0  3.892049  0  0  0.580309  0  4.185675  0  0  0.615518  0  4.178581  0  1.54164  0  0.212625  0.556634  0  4.189713  0
C  C58  1  0.32398989  0.91185563  0.60015369  1  0  0.138387  0  3.70645  0  0  0.103658  0  3.961487  0  0  0.111517  0  3.980428  0  0.467853  0  0.055259  0.098531  0  3.948582  0
C  C59  1  0.67601042  0.08814323  0.39984356  1  0  0.138564  0  3.706542  0  0  0.103838  0  3.961575  0  0  0.111698  0  3.980519  0  0.467704  0  0.055361  0.098711  0  3.948669  0
C  C60  1  0.35438753  0.96710370  0.67702821  1  0  -0.115844  0  3.713249  0  0  -0.128646  0  3.966844  0  0  -0.136183  0  3.988269  0  -0.037459  0  -0.080399  -0.12394  0  3.953111  0
C  C61  1  0.64562230  0.03289357  0.32296718  1  0  -0.11592  0  3.713005  0  0  -0.128727  0  3.966641  0  0  -0.136265  0  3.988064  0  -0.037395  0  -0.080418  -0.124029  0  3.952915  0
C  C62  1  0.49296282  0.96463107  0.69531910  1  0  0.013568  0  3.677493  0  0  -0.008856  0  3.934125  0  0  -0.004171  0  3.949724  0  -0.013619  0  -0.061587  -0.011608  0  3.923447  0
C  C63  1  0.50704427  0.03536461  0.30467665  1  0  0.01346  0  3.677365  0  0  -0.00905  0  3.934028  0  0  -0.004362  0  3.949628  0  -0.014368  0  -0.061668  -0.011804  0  3.923354  0
C  C64  1  0.59515165  0.90861223  0.63538495  1  0  -0.123955  0  3.674067  0  0  -0.143247  0  3.922331  0  0  -0.150365  0  3.943769  0  -0.020932  0  -0.071922  -0.138747  0  3.907936  0
C  C65  1  0.40485533  0.09138901  0.36460707  1  0  -0.123733  0  3.673806  0  0  -0.142989  0  3.922041  0  0  -0.15012  0  3.943488  0  -0.020323  0  -0.071844  -0.138486  0  3.907643  0
C  C66  1  0.55756030  0.85466993  0.55942370  1  0  0.182971  0  3.749216  0  0  0.176214  0  3.993169  0  0  0.18391  0  4.01296  0  0.487128  0  0.128863  0.171107  0  3.979686  0
C  C67  1  0.44244190  0.14532973  0.44056805  1  0  0.182841  0  3.749444  0  0  0.176011  0  3.993458  0  0  0.183709  0  4.013252  0  0.486592  0  0.128739  0.1709  0  3.979973  0
C  C68  1  0.66030267  0.79390664  0.49233331  1  0  0.177447  0  3.758114  0  0  0.170931  0  4.002493  0  0  0.178164  0  4.022805  0  0.498946  0  0.129326  0.166397  0  3.98814  0
C  C69  1  0.33969920  0.20609459  0.50765599  1  0  0.177578  0  3.75827  0  0  0.171076  0  4.002615  0  0  0.178311  0  4.022921  0  0.498814  0  0.129333  0.166551  0  3.988248  0
C  C70  1  0.80307405  0.78821363  0.49861448  1  0  -0.12762  0  3.686077  0  0  -0.144891  0  3.930552  0  0  -0.152497  0  3.952465  0  0.011159  0  -0.072261  -0.139793  0  3.915118  0
C  C71  1  0.19692954  0.21178919  0.50137678  1  0  -0.127832  0  3.686197  0  0  -0.145125  0  3.930694  0  0  -0.152734  0  3.952605  0  0.011122  0  -0.07228  -0.140026  0  3.915254  0
C  C72  1  0.89460294  0.73065168  0.43281055  1  0  0.00674  0  3.679025  0  0  -0.011766  0  3.924132  0  0  -0.007327  0  3.940805  0  -0.082682  0  -0.058143  -0.013993  0  3.912437  0
C  C73  1  0.10539829  0.26935273  0.56717989  1  0  0.006746  0  3.67892  0  0  -0.011703  0  3.92405  0  0  -0.007265  0  3.940721  0  -0.082211  0  -0.058171  -0.013928  0  3.912349  0
C  C74  1  0.84033703  0.68082752  0.36131059  1  0  -0.117729  0  3.729159  0  0  -0.128755  0  3.977495  0  0  -0.136783  0  3.999519  0  -0.030226  0  -0.079601  -0.123975  0  3.962533  0
C  C75  1  0.15966560  0.31918007  0.63867785  1  0  -0.117648  0  3.728887  0  0  -0.128766  0  3.977215  0  0  -0.136797  0  3.999238  0  -0.030575  0  -0.079524  -0.123986  0  3.962256  0
C  C76  1  0.69705426  0.68907095  0.35923881  1  0  0.140694  0  3.678966  0  0  0.108478  0  3.92881  0  0  0.116665  0  3.946054  0  0.438511  0  0.058944  0.103322  0  3.917149  0
C  C77  1  0.30295170  0.31093028  0.64075327  1  0  0.140711  0  3.678987  0  0  0.108526  0  3.928808  0  0  0.116715  0  3.94605  0  0.438555  0  0.058892  0.103367  0  3.917152  0
C  C78  1  0.11691499  0.97912793  0.28156209  1  0  -0.095729  0  3.730329  0  0  -0.077243  0  3.96227  0  0  -0.084923  0  3.983381  0  -0.056655  0  -0.014908  -0.072413  0  3.948239  0
C  C79  1  0.88308026  0.02087569  0.71844619  1  0  -0.095724  0  3.730335  0  0  -0.077137  0  3.962096  0  0  -0.084819  0  3.98321  0  -0.056414  0  -0.014829  -0.072297  0  3.948056  0
C  C80  1  0.04098933  0.05836923  0.33571320  1  0  -0.08483  0  3.751024  0  0  -0.108416  0  4.003477  0  0  -0.107805  0  4.021416  0  -0.073605  0  -0.087697  -0.108858  0  3.991832  0
C  C81  1  0.95900097  0.94163360  0.66429019  1  0  -0.084868  0  3.750751  0  0  -0.108452  0  4.003202  0  0  -0.10784  0  4.021141  0  -0.073623  0  -0.087684  -0.108898  0  3.991564  0
C  C82  1  0.97096150  0.15088700  0.28474439  1  0  -0.087063  0  3.759434  0  0  -0.101891  0  4.014679  0  0  -0.104918  0  4.033829  0  -0.054035  0  -0.095977  -0.09993  0  4.001675  0
C  C83  1  0.02903477  0.84911662  0.71525929  1  0  -0.087117  0  3.759608  0  0  -0.101967  0  4.014865  0  0  -0.104992  0  4.034012  0  -0.053948  0  -0.09595  -0.100007  0  4.001864  0
C  C84  1  0.97300599  0.16313269  0.17822428  1  0  -0.048082  0  3.761057  0  0  -0.062081  0  4.008558  0  0  -0.062343  0  4.029503  0  -0.081705  0  -0.087379  -0.061448  0  3.993975  0
C  C85  1  0.02698560  0.83686379  0.82177834  1  0  -0.047981  0  3.761175  0  0  -0.06199  0  4.008663  0  0  -0.062254  0  4.029612  0  -0.082437  0  -0.087443  -0.061357  0  3.99408  0
C  C86  1  0.04205438  0.08246848  0.12391574  1  0  -0.109196  0  3.737026  0  0  -0.12849  0  3.984762  0  0  -0.13236  0  4.006805  0  -0.01813  0  -0.088738  -0.126028  0  3.969829  0
C  C87  1  0.95794302  0.91752959  0.87609086  1  0  -0.109284  0  3.736932  0  0  -0.128606  0  3.984684  0  0  -0.132473  0  4.006723  0  -0.017498  0  -0.088796  -0.126141  0  3.969751  0
C  C88  1  0.11588438  0.98987019  0.17416134  1  0  0.045594  0  3.754805  0  0  0.052138  0  3.987706  0  0  0.053685  0  4.010474  0  0.0048  0  -0.000517  0.051483  0  3.972042  0
C  C89  1  0.88411566  0.01013502  0.82584343  1  0  0.045576  0  3.754887  0  0  0.052153  0  3.987695  0  0  0.0537  0  4.010469  0  0.004915  0  -0.000496  0.051493  0  3.97203  0
C  C90  1  0.18041085  0.90355028  0.11381592  1  0  0.068345  0  3.7429  0  0  0.071506  0  3.979887  0  0  0.074317  0  4.001576  0  -0.011636  0  0.007397  0.069629  0  3.965092  0
C  C91  1  0.81958881  0.09645176  0.88619003  1  0  0.068375  0  3.742958  0  0  0.071482  0  3.979975  0  0  0.074291  0  4.001665  0  -0.011477  0  0.007375  0.069609  0  3.965177  0
C  C92  1  0.14245638  0.80230010  0.13816858  1  0  -0.100044  0  3.712277  0  0  -0.120522  0  3.963269  0  0  -0.123876  0  3.982933  0  -0.007005  0  -0.082709  -0.118255  0  3.949887  0
C  C93  1  0.85753838  0.19770590  0.86183338  1  0  -0.099993  0  3.712531  0  0  -0.120444  0  3.963493  0  0  -0.123796  0  3.983156  0  -0.007478  0  -0.08266  -0.118179  0  3.950111  0
C  C94  1  0.19232198  0.72117391  0.07848323  1  0  -0.043861  0  3.751752  0  0  -0.059864  0  4.001293  0  0  -0.059608  0  4.02117  0  -0.091682  0  -0.081977  -0.05977  0  3.98743  0
C  C95  1  0.80767633  0.27882971  0.92151504  1  0  -0.044053  0  3.751937  0  0  -0.059991  0  4.001446  0  0  -0.059738  0  4.021323  0  -0.091475  0  -0.082013  -0.059896  0  3.987584  0
C  C96  1  0.27928461  0.74064144  0.99146169  1  0  -0.084197  0  3.782215  0  0  -0.095548  0  4.034978  0  0  -0.098817  0  4.056018  0  -0.021837  0  -0.093285  -0.093219  0  4.020449  0
C  C97  1  0.72071575  0.25936218  0.00854025  1  0  -0.084123  0  3.782123  0  0  -0.095474  0  4.034892  0  0  -0.098745  0  4.055937  0  -0.021806  0  -0.093326  -0.093148  0  4.020366  0
C  C98  1  0.31684782  0.84101448  0.96510274  1  0  -0.063652  0  3.732743  0  0  -0.091428  0  3.984663  0  0  -0.090283  0  4.004265  0  -0.080052  0  -0.083166  -0.092149  0  3.971637  0
C  C99  1  0.68315986  0.15898835  0.03490113  1  0  -0.063705  0  3.732862  0  0  -0.091473  0  3.984792  0  0  -0.090329  0  4.004394  0  -0.079028  0  -0.083184  -0.092194  0  3.971767  0
C  C100  1  0.26961999  0.92225418  0.02644310  1  0  -0.115389  0  3.72251  0  0  -0.097289  0  3.957484  0  0  -0.106133  0  3.979596  0  0.016583  0  -0.014516  -0.091445  0  3.942874  0
C  C101  1  0.73038549  0.07774944  0.97356306  1  0  -0.115371  0  3.72259  0  0  -0.097244  0  3.957593  0  0  -0.106089  0  3.979696  0  0.015489  0  -0.014497  -0.091399  0  3.942984  0
C  C102  1  0.32320591  0.02519308  0.00324580  1  0  0.649079  0  3.810468  0  0  0.598241  0  4.120304  0  0  0.631245  0  4.110862  0  1.485334  0  0.23214  0.575546  0  4.126645  0
C  C103  1  0.67679224  0.97481134  0.99675541  1  0  0.649279  0  3.810494  0  0  0.598367  0  4.120413  0  0  0.631381  0  4.110947  0  1.485811  0  0.232203  0.575668  0  4.126765  0
C  C104  1  0.69052548  0.51254953  0.71448093  1  0  -0.083793  0  3.716659  0  0  -0.06773  0  3.950142  0  0  -0.075696  0  3.970224  0  0.021043  0  -0.011105  -0.063343  0  3.937084  0
C  C105  1  0.30947467  0.48745012  0.28552606  1  0  -0.083867  0  3.716633  0  0  -0.067724  0  3.950069  0  0  -0.075692  0  3.970147  0  0.020618  0  -0.011056  -0.063336  0  3.937008  0
C  C106  1  0.81537839  0.55346666  0.69794995  1  0  -0.065531  0  3.739517  0  0  -0.08918  0  3.986754  0  0  -0.088367  0  4.006538  0  0.01109  0  -0.082279  -0.089437  0  3.973284  0
C  C107  1  0.18461686  0.44653697  0.30205077  1  0  -0.065382  0  3.739463  0  0  -0.089066  0  3.986705  0  0  -0.088261  0  4.006497  0  0.011244  0  -0.08223  -0.089322  0  3.973234  0
C  C108  1  0.83269375  0.64394678  0.73968405  1  0  -0.095304  0  3.802453  0  0  -0.110259  0  4.055809  0  0  -0.114637  0  4.079333  0  -0.081037  0  -0.101428  -0.10701  0  4.041018  0
C  C109  1  0.16730694  0.35605525  0.26031882  1  0  -0.095369  0  3.802481  0  0  -0.110309  0  4.055858  0  0  -0.114687  0  4.079384  0  -0.080968  0  -0.101487  -0.10706  0  4.041065  0
C  C110  1  0.72463233  0.69497987  0.79908476  1  0  -0.052622  0  3.774393  0  0  -0.065345  0  4.023456  0  0  -0.064756  0  4.04316  0  -0.083354  0  -0.086975  -0.065713  0  4.009446  0
C  C111  1  0.27536577  0.30501978  0.20091404  1  0  -0.052664  0  3.774352  0  0  -0.065392  0  4.023412  0  0  -0.0648  0  4.043109  0  -0.08334  0  -0.08702  -0.065761  0  4.009405  0
C  C112  1  0.60006096  0.65462951  0.81571294  1  0  -0.127645  0  3.740758  0  0  -0.148221  0  3.989422  0  0  -0.152917  0  4.011091  0  -0.018147  0  -0.095316  -0.144288  0  3.973913  0
C  C113  1  0.39993762  0.34536776  0.18428840  1  0  -0.127745  0  3.74076  0  0  -0.148292  0  3.989451  0  0  -0.152987  0  4.011115  0  -0.018284  0  -0.095261  -0.144359  0  3.973943  0
C  C114  1  0.58049797  0.56385727  0.77408177  1  0  0.06651  0  3.714732  0  0  0.07327  0  3.94853  0  0  0.075739  0  3.970447  0  -0.025535  0  0.010333  0.071815  0  3.933802  0
C  C115  1  0.41950202  0.43614317  0.22591983  1  0  0.066668  0  3.714573  0  0  0.073378  0  3.948386  0  0  0.075853  0  3.970292  0  -0.025331  0  0.010316  0.071921  0  3.93366  0
C  C116  1  0.32938485  0.56238163  0.73777560  1  0  -0.087372  0  3.698034  0  0  -0.071098  0  3.933105  0  0  -0.078769  0  3.952373  0  -0.041993  0  -0.009949  -0.066017  0  3.920146  0
C  C117  1  0.67061255  0.43761643  0.26223025  1  0  -0.087303  0  3.697872  0  0  -0.070987  0  3.932891  0  0  -0.078658  0  3.952159  0  -0.041986  0  -0.009915  -0.065907  0  3.91993  0
C  C118  1  0.44354833  0.52711068  0.79867315  1  0  0.075539  0  3.72117  0  0  0.079324  0  3.958648  0  0  0.083198  0  3.978325  0  0.03782  0  0.010455  0.076434  0  3.946175  0
C  C119  1  0.55645246  0.47288579  0.20132740  1  0  0.075327  0  3.721294  0  0  0.079155  0  3.958731  0  0  0.083032  0  3.978402  0  0.03783  0  0.010412  0.076265  0  3.946258  0
C  C120  1  0.42306504  0.46472015  0.89220207  1  0  -0.122331  0  3.738017  0  0  -0.143344  0  3.990423  0  0  -0.147278  0  4.010369  0  -0.094097  0  -0.092899  -0.141085  0  3.977674  0
C  C121  1  0.57693774  0.53527157  0.10779671  1  0  -0.122373  0  3.738181  0  0  -0.143426  0  3.990611  0  0  -0.147368  0  4.010558  0  -0.094157  0  -0.092977  -0.141162  0  3.977859  0
C  C122  1  0.29338985  0.43768788  0.92561778  1  0  -0.060261  0  3.78556  0  0  -0.072192  0  4.029072  0  0  -0.071562  0  4.0489  0  -0.057014  0  -0.093292  -0.072389  0  4.01553  0
C  C123  1  0.70660831  0.56230146  0.07438007  1  0  -0.060221  0  3.78547  0  0  -0.072118  0  4.028981  0  0  -0.071497  0  4.048817  0  -0.05706  0  -0.093294  -0.072315  0  4.015437  0
C  C124  1  0.18005059  0.47470911  0.86602329  1  0  -0.098395  0  3.812013  0  0  -0.110301  0  4.061614  0  0  -0.114346  0  4.083555  0  -0.103462  0  -0.100869  -0.108  0  4.047572  0
C  C125  1  0.81995359  0.52528578  0.13397727  1  0  -0.098315  0  3.811872  0  0  -0.110212  0  4.061464  0  0  -0.114255  0  4.083405  0  -0.103141  0  -0.100805  -0.10791  0  4.047421  0
C  C126  1  0.19889680  0.53670672  0.77292245  1  0  -0.075253  0  3.755982  0  0  -0.100757  0  4.009018  0  0  -0.100143  0  4.029644  0  0.008983  0  -0.086441  -0.10117  0  3.996035  0
C  C127  1  0.80110334  0.46329293  0.22707698  1  0  -0.07524  0  3.755835  0  0  -0.100779  0  4.008871  0  0  -0.100166  0  4.029497  0  0.00894  0  -0.086425  -0.101192  0  3.995887  0
N  N128  1  0.42272460  0.85650436  0.54395047  1  0  -0.375249  0  3.287544  0  0  -0.303696  0  3.534354  0  0  -0.325106  0  3.557598  0  -1.260846  0  -0.300466  -0.289469  0  3.518378  0
N  N129  1  0.57727431  0.14349133  0.45604652  1  0  -0.375202  0  3.287892  0  0  -0.303613  0  3.534702  0  0  -0.32502  0  3.55794  0  -1.260672  0  -0.300398  -0.289385  0  3.518725  0
N  N130  1  0.60948319  0.74404121  0.42340431  1  0  -0.350573  0  3.224555  0  0  -0.283485  0  3.472919  0  0  -0.302879  0  3.492648  0  -1.217083  0  -0.29237  -0.270256  0  3.458992  0
N  N131  1  0.39052035  0.25595686  0.57658983  1  0  -0.350613  0  3.224624  0  0  -0.283483  0  3.472878  0  0  -0.302878  0  3.492605  0  -1.217124  0  -0.292357  -0.270256  0  3.45895  0
O  O132  1  0.16182487  0.85781092  0.43219365  1  0  -0.615497  0  1.972382  0  0  -0.559991  0  2.206279  0  0  -0.587028  0  2.199385  0  -1.168904  0  -0.294494  -0.541336  0  2.210309  0
O  O133  1  0.83815972  0.14218476  0.56781175  1  0  -0.615414  0  1.972654  0  0  -0.559836  0  2.206517  0  0  -0.586876  0  2.199622  0  -1.168648  0  -0.294362  -0.541185  0  2.210545  0
O  O134  1  0.32306441  0.85083675  0.30394117  1  0  -0.612605  0  1.963782  0  0  -0.560026  0  2.199519  0  0  -0.587793  0  2.19321  0  -1.146511  0  -0.292604  -0.541184  0  2.203126  0
O  O135  1  0.67693203  0.14916608  0.69606715  1  0  -0.612604  0  1.963777  0  0  -0.560004  0  2.199535  0  0  -0.587767  0  2.193217  0  -1.146666  0  -0.292582  -0.541162  0  2.203149  0
O  O136  1  0.55973978  0.38522201  0.66978346  1  0  -0.613092  0  2.033809  0  0  -0.552897  0  2.268736  0  0  -0.581948  0  2.263061  0  -1.155968  0  -0.283607  -0.532918  0  2.271961  0
O  O137  1  0.44025595  0.61479432  0.33019369  1  0  -0.61286  0  2.033688  0  0  -0.552741  0  2.268721  0  0  -0.581792  0  2.26305  0  -1.156002  0  -0.283632  -0.532766  0  2.271953  0
O  O138  1  0.77698853  0.37717384  0.60721051  1  0  -0.618676  0  1.942047  0  0  -0.564528  0  2.169003  0  0  -0.592117  0  2.161389  0  -1.157595  0  -0.297744  -0.545658  0  2.173581  0
O  O139  1  0.22303029  0.62280438  0.39281475  1  0  -0.618709  0  1.942305  0  0  -0.56451  0  2.169254  0  0  -0.592095  0  2.161634  0  -1.158002  0  -0.297675  -0.545645  0  2.173847  0
O  O140  1  0.45626118  0.61480305  0.58067279  1  0  -0.59276  0  1.969801  0  0  -0.539344  0  2.19892  0  0  -0.567718  0  2.194449  0  -1.141618  0  -0.282854  -0.52008  0  2.20145  0
O  O141  1  0.54373584  0.38519184  0.41932290  1  0  -0.592708  0  1.96976  0  0  -0.539262  0  2.198892  0  0  -0.567654  0  2.194468  0  -1.14194  0  -0.282855  -0.519998  0  2.201421  0
O  O142  1  0.23460311  0.68408044  0.59928978  1  0  -0.614962  0  1.987007  0  0  -0.555941  0  2.212246  0  0  -0.583932  0  2.205346  0  -1.165885  0  -0.293583  -0.536405  0  2.215944  0
O  O143  1  0.76539521  0.31592318  0.40071757  1  0  -0.614946  0  1.987036  0  0  -0.555903  0  2.212296  0  0  -0.583882  0  2.205385  0  -1.16603  0  -0.293572  -0.536367  0  2.215991  0
O  O144  1  0.36156396  0.07392102  0.06649369  1  0  -0.53972  0  1.926995  0  0  -0.505156  0  2.144771  0  0  -0.525311  0  2.137618  0  -1.147413  0  -0.28022  -0.491282  0  2.149687  0
O  O145  1  0.63843274  0.92609053  0.93351274  1  0  -0.539843  0  1.927356  0  0  -0.505208  0  2.145114  0  0  -0.525363  0  2.137942  0  -1.147776  0  -0.280238  -0.491336  0  2.15004  0
O  O146  1  0.32917837  0.06060452  0.90144992  1  0  -0.538763  0  2.039998  0  0  -0.492483  0  2.242815  0  0  -0.511995  0  2.228061  0  -1.11085  0  -0.32722  -0.478614  0  2.252753  0
O  O147  1  0.67082775  0.93939592  0.09855359  1  0  -0.538783  0  2.039859  0  0  -0.492536  0  2.242666  0  0  -0.512054  0  2.227919  0  -1.110917  0  -0.327231  -0.478665  0  2.252608  0
