# generated using pymatgen
data_Zn2H19C35N7O8
_symmetry_space_group_name_H-M   'P 1'
_cell_length_a   9.82571734
_cell_length_b   10.96006026
_cell_length_c   15.81746076
_cell_angle_alpha   87.98683043
_cell_angle_beta   90.11878488
_cell_angle_gamma   89.04360777
_symmetry_Int_Tables_number   1
_chemical_formula_structural   Zn2H19C35N7O8
_chemical_formula_sum   'Zn2 H19 C35 N7 O8'
_cell_volume   1702.09498111
_cell_formula_units_Z   1
loop_
 _symmetry_equiv_pos_site_id
 _symmetry_equiv_pos_as_xyz
  1  'x, y, z'
loop_
 _atom_site_type_symbol
 _atom_site_label
 _atom_site_symmetry_multiplicity
 _atom_site_fract_x
 _atom_site_fract_y
 _atom_site_fract_z
 _atom_site_occupancy
 _atom_site_pbe_bader_charge
 _atom_site_pbe_bader_spin_density
 _atom_site_pbe_cm5_charge
 _atom_site_pbe_ddec_charge
 _atom_site_pbe_ddec_spin_density
 _atom_site_pbe_ddec_sum_bond_order
 _atom_site_pbe_magmom
Zn  Zn0  1  0.36813543  0.49346827  0.50049663  1  1.282031  0  0.668192  0.816811  0  2.450107  0
Zn  Zn1  1  0.64529033  0.49041508  0.49943538  1  1.29861  0  0.66957  0.822626  0  2.464091  0
H  H2  1  0.56446035  0.69589877  0.05474376  1  0.069006  0  0.103814  0.10976  0  0.963914  0
H  H3  1  0.19711273  0.87321310  0.48845813  1  0.020321  0  0.092719  0.101302  0  0.989005  0
H  H4  1  0.61459066  0.63663263  0.91627053  1  0.078685  0  0.105165  0.113288  0  0.963234  0
H  H5  1  0.13756184  0.54441042  0.69309922  1  0.175778  0  0.129112  0.17316  0  0.953711  0
H  H6  1  0.13584234  0.68557339  0.63275064  1  0.142162  0  0.125512  0.155266  0  0.960557  0
H  H7  1  0.87957814  0.68824894  0.62795931  1  0.158659  0  0.141659  0.146983  0  0.918643  0
H  H8  1  0.70880307  0.42895186  0.93056079  1  0.122183  0  0.126832  0.124928  0  0.945173  0
H  H9  1  0.71055732  0.49969739  0.06772541  1  0.056867  0  0.10777  0.118395  0  0.95849  0
H  H10  1  0.63588450  0.36082136  0.10132826  1  0.078963  0  0.108241  0.121176  0  0.967361  0
H  H11  1  0.34781651  0.33080303  0.94318801  1  0.094979  0  0.125052  0.116305  0  0.939283  0
H  H12  1  0.27241531  0.48219418  0.08069101  1  0.074823  0  0.107088  0.117994  0  0.968062  0
H  H13  1  0.43976374  0.66429255  0.89570874  1  0.060757  0  0.103644  0.112101  0  0.970488  0
H  H14  1  0.38735278  0.67993579  0.03970378  1  0.046322  0  0.10097  0.104901  0  0.967223  0
H  H15  1  0.37174323  0.34605688  0.08738152  1  0.072959  0  0.108498  0.120978  0  0.958875  0
H  H16  1  0.74191253  0.87406100  0.48990175  1  0.081508  0  0.098361  0.100515  0  1.010995  0
H  H17  1  0.73997056  0.09994075  0.46913583  1  0.103499  0  0.101519  0.106572  0  1.002593  0
H  H18  1  0.22130418  0.12349106  0.57056257  1  0.043377  0  0.094823  0.105445  0  0.982914  0
H  H19  1  0.19674181  0.10071419  0.46012892  1  0.06062  0  0.093475  0.104325  0  0.994074  0
H  H20  1  0.22765429  0.89646384  0.59834033  1  0.026259  0  0.092878  0.09678  0  0.995333  0
C  C21  1  0.52940098  0.72534435  0.52263541  1  1.558587  0  0.215842  0.605191  0  4.164792  0
C  C22  1  0.52691725  0.86081910  0.51336211  1  -0.038548  0  -0.014533  -0.074769  0  3.975606  0
C  C23  1  0.64677078  0.92582098  0.49508162  1  0.033132  0  -0.088225  -0.103481  0  3.997127  0
C  C24  1  0.48689085  0.45061115  0.66221837  1  1.648961  0  0.224913  0.680117  0  4.221032  0
C  C25  1  0.64559402  0.05234925  0.48284998  1  -0.10276  0  -0.083979  -0.095248  0  3.981547  0
C  C26  1  0.52413705  0.12225627  0.48765918  1  0.034188  0  -0.010037  -0.066776  0  3.960579  0
C  C27  1  0.40592658  0.05725596  0.50430548  1  0.008308  0  -0.000743  0.068737  0  3.873361  0
C  C28  1  0.25344906  0.06900467  0.51689931  1  -0.028673  0  -0.153588  -0.198622  0  3.882258  0
C  C29  1  0.25543973  0.92578675  0.53353185  1  0.023025  0  -0.153625  -0.197615  0  3.895497  0
C  C30  1  0.93575664  0.52445580  0.56028785  1  0.538112  0  0.167439  0.177479  0  3.813211  0
C  C31  1  0.93479243  0.42971652  0.43608115  1  0.570674  0  0.173919  0.152358  0  3.927166  0
C  C32  1  0.48685147  0.63525375  0.03041741  1  -0.057863  0  -0.149317  -0.193834  0  3.847329  0
C  C33  1  0.07990837  0.42797388  0.43655112  1  0.685752  0  0.177156  0.157989  0  3.932979  0
C  C34  1  0.07786326  0.52629099  0.55958214  1  0.639451  0  0.163273  0.223053  0  3.865387  0
C  C35  1  0.08938104  0.59545831  0.63977725  1  -0.059906  0  -0.116128  -0.253228  0  3.73004  0
C  C36  1  0.52505414  0.25780718  0.48074255  1  1.543769  0  0.220385  0.60955  0  4.155964  0
C  C37  1  0.92580475  0.59731792  0.64114219  1  0.063484  0  -0.023364  -0.055198  0  3.834226  0
C  C38  1  0.48740350  0.54097180  0.33889536  1  1.622773  0  0.225653  0.687456  0  4.207433  0
C  C39  1  0.51154234  0.61110652  0.93609767  1  -0.041937  0  -0.148095  -0.192259  0  3.839943  0
C  C40  1  0.61548095  0.40299954  0.96472377  1  0.108639  0  -0.04516  -0.051722  0  3.838733  0
C  C41  1  0.62253759  0.44115187  0.05863625  1  -0.019166  0  -0.139825  -0.223372  0  3.793907  0
C  C42  1  0.48796421  0.54370882  0.24786284  1  0.377303  0  -0.053369  -0.206269  0  3.978366  0
C  C43  1  0.49078908  0.51224213  0.08171728  1  0.130794  0  0.003922  0.177376  0  3.907365  0
C  C44  1  0.49472906  0.47358410  0.91923078  1  0.124186  0  0.019494  0.130816  0  3.865962  0
C  C45  1  0.86716078  0.37960529  0.36551577  1  0.877872  0  0.193174  0.205019  0  3.971866  0
C  C46  1  0.14842891  0.36775661  0.36978698  1  0.886782  0  0.195398  0.206308  0  3.974031  0
C  C47  1  0.86628770  0.54298025  0.71722702  1  0.902422  0  0.186504  0.268491  0  3.939909  0
C  C48  1  0.60068862  0.27146756  0.95790505  1  0.814591  0  0.174822  0.257955  0  3.967397  0
C  C49  1  0.24385695  0.49420353  0.91999889  1  0.836987  0  0.178394  0.2665  0  3.968968  0
C  C50  1  0.36486946  0.43763234  0.05708453  1  -0.040411  0  -0.140929  -0.224895  0  3.799499  0
C  C51  1  0.35836767  0.42718321  0.95925092  1  0.093941  0  -0.047045  -0.054354  0  3.85462  0
C  C52  1  0.48886659  0.53169827  0.17185539  1  -0.606642  0  -0.017305  -0.026729  0  4.010992  0
C  C53  1  0.49505679  0.45560607  0.82918478  1  -0.468007  0  -0.022913  -0.043669  0  4.050823  0
C  C54  1  0.49104572  0.44648432  0.75309594  1  0.230762  0  -0.04526  -0.184315  0  3.969659  0
C  C55  1  0.40741193  0.93060585  0.51746977  1  -0.058744  0  -0.004151  0.063233  0  3.878866  0
N  N56  1  0.86078417  0.48001598  0.49938486  1  -1.152122  0  -0.254505  -0.175567  0  3.382816  0
N  N57  1  0.15313092  0.48029824  0.49852712  1  -1.162917  0  -0.258074  -0.188155  0  3.367253  0
N  N58  1  0.82304458  0.33830597  0.30442165  1  -0.990108  0  -0.238664  -0.239768  0  2.624809  0
N  N59  1  0.19260096  0.31253766  0.31405390  1  -1.008001  0  -0.239298  -0.243367  0  2.623596  0
N  N60  1  0.82623150  0.50395314  0.78175339  1  -1.101702  0  -0.281191  -0.338512  0  2.756209  0
N  N61  1  0.58497863  0.16660784  0.95362668  1  -1.145958  0  -0.334699  -0.391716  0  2.683711  0
N  N62  1  0.15479313  0.54922718  0.88697664  1  -1.152368  0  -0.330056  -0.398538  0  2.724929  0
O  O63  1  0.41455724  0.67253755  0.52477427  1  -1.173952  0  -0.316737  -0.550572  0  2.301806  0
O  O64  1  0.64580980  0.67112838  0.52577400  1  -1.165333  0  -0.327807  -0.564594  0  2.315704  0
O  O65  1  0.36889848  0.45801531  0.62817525  1  -1.141682  0  -0.314919  -0.545147  0  2.270707  0
O  O66  1  0.60063297  0.44953545  0.62388954  1  -1.150481  0  -0.308956  -0.543933  0  2.292588  0
O  O67  1  0.40975763  0.31318522  0.48163957  1  -1.171354  0  -0.313736  -0.551031  0  2.339207  0
O  O68  1  0.64039848  0.30944378  0.47715621  1  -1.164385  0  -0.319322  -0.55339  0  2.349907  0
O  O69  1  0.37135469  0.53881397  0.37498849  1  -1.147014  0  -0.316584  -0.548413  0  2.290237  0
O  O70  1  0.60294836  0.53785216  0.37584190  1  -1.15283  0  -0.31304  -0.548178  0  2.285744  0
