# generated using pymatgen
data_Zn2H12C19(NO9)2
_symmetry_space_group_name_H-M   'P 1'
_cell_length_a   9.77385258
_cell_length_b   10.91828415
_cell_length_c   11.16888983
_cell_angle_alpha   92.52592739
_cell_angle_beta   84.61129886
_cell_angle_gamma   88.20488778
_symmetry_Int_Tables_number   1
_chemical_formula_structural   Zn2H12C19(NO9)2
_chemical_formula_sum   'Zn2 H12 C19 N2 O18'
_cell_volume   1184.69932566
_cell_formula_units_Z   1
loop_
 _symmetry_equiv_pos_site_id
 _symmetry_equiv_pos_as_xyz
  1  'x, y, z'
loop_
 _atom_site_type_symbol
 _atom_site_label
 _atom_site_symmetry_multiplicity
 _atom_site_fract_x
 _atom_site_fract_y
 _atom_site_fract_z
 _atom_site_occupancy
 _atom_site_pbe_bader_charge
 _atom_site_pbe_bader_spin_density
 _atom_site_pbe_cm5_charge
 _atom_site_pbe_ddec_charge
 _atom_site_pbe_ddec_spin_density
 _atom_site_pbe_ddec_sum_bond_order
 _atom_site_pbe_magmom
Zn  Zn0  1  0.62811390  0.50222366  0.47206912  1  1.295005  0  0.676138  0.862846  0  2.411958  0
Zn  Zn1  1  0.34150224  0.48685486  0.48752372  1  1.286946  0  0.675518  0.853766  0  2.431939  0
H  H2  1  0.33206206  0.40627234  0.10776107  1  0.10973  0  0.107584  0.112273  0  1.008251  0
H  H3  1  0.87989185  0.42352643  0.48510150  1  0.432589  0  0.320162  0.293003  0  0.907549  0
H  H4  1  0.14241752  0.58363403  0.33120619  1  0.196184  0  0.147737  0.128038  0  0.951444  0
H  H5  1  0.06740888  0.46586844  0.55844046  1  0.432982  0  0.325795  0.296159  0  0.897979  0
H  H6  1  0.32478722  0.18417912  0.77265665  1  0.605716  0  0.350207  0.387472  0  0.841707  0
H  H7  1  0.19709513  0.19558954  0.26402486  1  0.619028  0  0.35185  0.390986  0  0.83567  0
H  H8  1  0.56187904  0.76191544  0.89852630  1  0.611957  0  0.353153  0.388149  0  0.837765  0
H  H9  1  0.32263557  0.87766073  0.38347918  1  0.100213  0  0.115744  0.124355  0  0.968177  0
H  H10  1  0.82447449  0.05607485  0.51219045  1  0.642251  0  0.356061  0.395862  0  0.831844  0
H  H11  1  0.79011603  0.85122355  0.37715925  1  0.670739  0  0.315517  0.37998  0  0.942325  0
H  H12  1  0.61160356  0.53094392  0.07647024  1  0.116604  0  0.110095  0.139135  0  1.005117  0
H  H13  1  0.52955294  0.90793872  0.57423520  1  0.069819  0  0.111678  0.126  0  0.986684  0
C  C14  1  0.51744140  0.25787237  0.44095594  1  1.570751  0  0.214876  0.616009  0  4.183068  0
C  C15  1  0.39475387  0.92627887  0.43588485  1  -0.018633  0  -0.073586  -0.071787  0  3.970329  0
C  C16  1  0.42119129  0.44178051  0.05570875  1  -0.086853  0  -0.071389  -0.03908  0  3.971937  0
C  C17  1  0.51404936  0.49981034  0.11742069  1  0.008562  0  -0.097709  -0.23799  0  3.882408  0
C  C18  1  0.46118738  0.86333256  0.51524048  1  -0.035122  0  -0.07304  -0.177764  0  3.848241  0
C  C19  1  0.42535370  0.41463560  0.92646155  1  0.051443  0  -0.001197  -0.03322  0  3.93687  0
C  C20  1  0.40739972  0.05706625  0.42135708  1  0.084535  0  0.02449  0.032216  0  3.88943  0
C  C21  1  0.47961193  0.46619700  0.70622234  1  1.662066  0  0.21678  0.615118  0  4.209856  0
C  C22  1  0.48769406  0.48293670  0.84004506  1  -0.028299  0  0.017996  -0.122936  0  3.763613  0
C  C23  1  0.52395354  0.12012634  0.43175398  1  0.027611  0  -0.007678  -0.198688  0  3.806067  0
C  C24  1  0.92624075  0.57667737  0.41193077  1  0.696334  0  0.189688  0.200196  0  3.881859  0
C  C25  1  0.07643817  0.54977538  0.40652565  1  0.68677  0  0.126441  0.158874  0  3.826614  0
C  C26  1  0.34205588  0.30694206  0.89455760  1  1.531188  0  0.23407  0.58224  0  4.109857  0
C  C27  1  0.27461485  0.12118079  0.39455896  1  1.576207  0  0.234782  0.595016  0  4.121066  0
C  C28  1  0.57355786  0.59040919  0.86814666  1  1.534338  0  0.240513  0.603616  0  4.119474  0
C  C29  1  0.66174278  0.05682439  0.43106248  1  1.506328  0  0.249642  0.62398  0  4.092289  0
C  C30  1  0.88573098  0.69029868  0.34795899  1  1.666995  0  0.24809  0.554657  0  4.155385  0
C  C31  1  0.45621212  0.72785490  0.51837590  1  1.615925  0  0.209254  0.630584  0  4.193207  0
C  C32  1  0.49310573  0.51347142  0.25030603  1  1.535702  0  0.209396  0.641125  0  4.171748  0
N  N33  1  0.83740210  0.50406952  0.45824326  1  -1.1732  0  -0.430197  -0.40569  0  3.227073  0
N  N34  1  0.13272820  0.49208399  0.48734488  1  -1.170737  0  -0.435054  -0.377383  0  3.24684  0
O  O35  1  0.62705803  0.31442562  0.41613837  1  -1.15253  0  -0.314831  -0.538606  0  2.253603  0
O  O36  1  0.59676351  0.54862144  0.30348441  1  -1.158746  0  -0.32724  -0.559863  0  2.282064  0
O  O37  1  0.56622313  0.67441831  0.54555166  1  -1.153283  0  -0.317724  -0.550155  0  2.2907  0
O  O38  1  0.34819131  0.67621368  0.49031407  1  -1.164537  0  -0.316897  -0.551443  0  2.291577  0
O  O39  1  0.37688776  0.48742564  0.30318651  1  -1.169492  0  -0.322293  -0.568298  0  2.329078  0
O  O40  1  0.24332867  0.27283183  0.95846220  1  -1.133126  0  -0.29937  -0.492011  0  2.046165  0
O  O41  1  0.38970053  0.24827692  0.78837693  1  -1.100009  0  -0.325476  -0.468224  0  2.247847  0
O  O42  1  0.16724227  0.12293307  0.46019387  1  -1.155808  0  -0.311949  -0.509511  0  2.042676  0
O  O43  1  0.59304480  0.44244321  0.64374393  1  -1.155389  0  -0.311043  -0.533725  0  2.303546  0
O  O44  1  0.28674880  0.16125440  0.28116673  1  -1.096169  0  -0.32381  -0.464445  0  2.218443  0
O  O45  1  0.69771699  0.58278430  0.87133240  1  -1.089954  0  -0.276146  -0.461006  0  2.036202  0
O  O46  1  0.49764823  0.69687262  0.88349809  1  -1.096733  0  -0.327015  -0.468924  0  2.186975  0
O  O47  1  0.70906897  0.98030851  0.35213747  1  -1.152425  0  -0.274483  -0.495386  0  2.153405  0
O  O48  1  0.73166375  0.09453200  0.52336681  1  -1.122891  0  -0.313283  -0.455053  0  2.216921  0
O  O49  1  0.92012401  0.69061236  0.24003839  1  -1.079795  0  -0.254086  -0.42054  0  2.007781  0
O  O50  1  0.82126539  0.77665209  0.42017151  1  -1.15642  0  -0.313585  -0.456867  0  2.310924  0
O  O51  1  0.39869397  0.30505079  0.47530026  1  -1.152345  0  -0.304491  -0.54236  0  2.38046  0
O  O52  1  0.36299126  0.48807871  0.66930813  1  -1.142025  0  -0.309682  -0.530701  0  2.281187  0
