# generated using pymatgen
data_CuH6C6N3ClO4
_symmetry_space_group_name_H-M   'P 1'
_cell_length_a   7.61430248
_cell_length_b   9.19338828
_cell_length_c   13.42920114
_cell_angle_alpha   89.99939122
_cell_angle_beta   90.00037266
_cell_angle_gamma   97.30517327
_symmetry_Int_Tables_number   1
_chemical_formula_structural   CuH6C6N3ClO4
_chemical_formula_sum   'Cu4 H24 C24 N12 Cl4 O16'
_cell_volume   932.43021650
_cell_formula_units_Z   4
loop_
 _symmetry_equiv_pos_site_id
 _symmetry_equiv_pos_as_xyz
  1  'x, y, z'
loop_
 _atom_site_type_symbol
 _atom_site_label
 _atom_site_symmetry_multiplicity
 _atom_site_fract_x
 _atom_site_fract_y
 _atom_site_fract_z
 _atom_site_occupancy
 _atom_site_hle17_bader_spin_density
 _atom_site_hle17_ddec_charge
 _atom_site_hle17_ddec_spin_density
 _atom_site_hle17_ddec_sum_bond_order
 _atom_site_hle17_magmom
 _atom_site_hse06_10hf_bader_spin_density
 _atom_site_hse06_10hf_ddec_charge
 _atom_site_hse06_10hf_ddec_spin_density
 _atom_site_hse06_10hf_ddec_sum_bond_order
 _atom_site_hse06_10hf_magmom
 _atom_site_hse06_bader_spin_density
 _atom_site_hse06_ddec_charge
 _atom_site_hse06_ddec_spin_density
 _atom_site_hse06_ddec_sum_bond_order
 _atom_site_hse06_magmom
 _atom_site_pbe_bader_spin_density
 _atom_site_pbe_cm5_charge
 _atom_site_pbe_ddec_charge
 _atom_site_pbe_ddec_spin_density
 _atom_site_pbe_ddec_sum_bond_order
 _atom_site_pbe_magmom
Cu  Cu0  1  0.29134144  0.62647305  0.81945429  1  0  0.502206  0  1.84422  0  0  0.384515  0  2.299494  0  0  0.36679  0  2.269213  0  0  0.611072  0.400665  0  2.316432  0
Cu  Cu1  1  0.20865660  0.87351959  0.31945849  1  0  0.502261  0  1.844216  0  0  0.384537  0  2.299556  0  0  0.366832  0  2.269219  0  0  0.611095  0.400695  0  2.316495  0
Cu  Cu2  1  0.70866455  0.37353198  0.18054605  1  0  0.502153  0  1.844319  0  0  0.384511  0  2.299594  0  0  0.366757  0  2.269273  0  0  0.611079  0.400676  0  2.316506  0
Cu  Cu3  1  0.79134277  0.12647667  0.68054334  1  0  0.502262  0  1.844298  0  0  0.384615  0  2.29957  0  0  0.366835  0  2.26924  0  0  0.611159  0.400765  0  2.316486  0
H  H4  1  0.06704446  0.66473250  0.64391463  1  0  0.103666  0  0.945548  0  0  0.110421  0  1.01013  0  0  0.113544  0  1.007581  0  0  0.120835  0.107863  0  1.012639  0
H  H5  1  0.43295413  0.83526817  0.14391546  1  0  0.103639  0  0.945533  0  0  0.110397  0  1.010127  0  0  0.113516  0  1.007584  0  0  0.120836  0.107839  0  1.012635  0
H  H6  1  0.93296136  0.33527143  0.35608422  1  0  0.103698  0  0.945535  0  0  0.110453  0  1.01011  0  0  0.113576  0  1.007563  0  0  0.120832  0.107895  0  1.012618  0
H  H7  1  0.56704735  0.16472481  0.85607966  1  0  0.103634  0  0.945521  0  0  0.11041  0  1.01009  0  0  0.113533  0  1.007539  0  0  0.120822  0.107853  0  1.012596  0
H  H8  1  0.28347931  0.93122377  0.87629943  1  0  0.106235  0  0.962227  0  0  0.112044  0  1.027745  0  0  0.115119  0  1.025049  0  0  0.119669  0.109737  0  1.029826  0
H  H9  1  0.21651636  0.56877465  0.37629918  1  0  0.106187  0  0.962232  0  0  0.112039  0  1.027721  0  0  0.115116  0  1.025022  0  0  0.119661  0.109734  0  1.029802  0
H  H10  1  0.71651916  0.06878347  0.12369942  1  0  0.106312  0  0.962111  0  0  0.112077  0  1.027682  0  0  0.115151  0  1.024987  0  0  0.119681  0.109772  0  1.02976  0
H  H11  1  0.78348381  0.43121833  0.62369817  1  0  0.106226  0  0.962187  0  0  0.112055  0  1.0277  0  0  0.115131  0  1.025004  0  0  0.119668  0.10975  0  1.02978  0
H  H12  1  0.87966470  0.85755978  0.59579416  1  0  0.092801  0  0.950968  0  0  0.098309  0  1.017323  0  0  0.101063  0  1.015346  0  0  0.119059  0.096354  0  1.018776  0
H  H13  1  0.62033315  0.64243991  0.09579526  1  0  0.092843  0  0.950976  0  0  0.098359  0  1.017316  0  0  0.1011  0  1.015354  0  0  0.119071  0.096405  0  1.018765  0
H  H14  1  0.12033501  0.14243868  0.40420692  1  0  0.092814  0  0.950989  0  0  0.098329  0  1.017322  0  0  0.101082  0  1.015348  0  0  0.119071  0.096378  0  1.018773  0
H  H15  1  0.37966799  0.35755087  0.90420508  1  0  0.092752  0  0.95109  0  0  0.098328  0  1.01737  0  0  0.101056  0  1.01542  0  0  0.119069  0.096388  0  1.018805  0
H  H16  1  0.08630847  0.11762251  0.83307237  1  0  0.088885  0  0.933369  0  0  0.097697  0  0.997829  0  0  0.100233  0  0.995606  0  0  0.121687  0.095241  0  1.000582  0
H  H17  1  0.41368554  0.38237356  0.33307577  1  0  0.088924  0  0.933387  0  0  0.097733  0  0.99783  0  0  0.100268  0  0.99561  0  0  0.121719  0.095277  0  1.000584  0
H  H18  1  0.91367435  0.88237708  0.16693169  1  0  0.088903  0  0.93344  0  0  0.097718  0  0.997863  0  0  0.100253  0  0.995643  0  0  0.121703  0.095263  0  1.000618  0
H  H19  1  0.58631611  0.61762051  0.66692755  1  0  0.088858  0  0.93337  0  0  0.09766  0  0.997833  0  0  0.100197  0  0.995609  0  0  0.121694  0.095204  0  1.000588  0
H  H20  1  0.20683265  0.72174578  0.02224106  1  0  0.09905  0  0.945812  0  0  0.108461  0  1.007573  0  0  0.11064  0  1.006221  0  0  0.124337  0.106585  0  1.009204  0
H  H21  1  0.29318154  0.77825442  0.52224544  1  0  0.099072  0  0.945799  0  0  0.108471  0  1.007569  0  0  0.110649  0  1.00622  0  0  0.124333  0.106595  0  1.0092  0
H  H22  1  0.79316564  0.27826036  0.97776002  1  0  0.099097  0  0.945846  0  0  0.108485  0  1.007607  0  0  0.110664  0  1.006257  0  0  0.124331  0.106609  0  1.009237  0
H  H23  1  0.70682788  0.22174731  0.47775862  1  0  0.099106  0  0.945789  0  0  0.108511  0  1.007555  0  0  0.110691  0  1.006201  0  0  0.124337  0.106635  0  1.009185  0
H  H24  1  0.98009435  0.63689847  0.15368695  1  0  0.091927  0  0.964267  0  0  0.09764  0  1.035869  0  0  0.100963  0  1.032676  0  0  0.118207  0.094913  0  1.039034  0
H  H25  1  0.51991495  0.86311133  0.65369194  1  0  0.091993  0  0.964093  0  0  0.097669  0  1.03577  0  0  0.100991  0  1.032578  0  0  0.118227  0.094942  0  1.038937  0
H  H26  1  0.01990411  0.36310877  0.84631264  1  0  0.091917  0  0.964273  0  0  0.097612  0  1.035912  0  0  0.100937  0  1.032714  0  0  0.1182  0.094886  0  1.039079  0
H  H27  1  0.48008545  0.13689151  0.34631138  1  0  0.091934  0  0.964296  0  0  0.09763  0  1.035912  0  0  0.100955  0  1.032716  0  0  0.11821  0.094904  0  1.039077  0
C  C28  1  0.07274691  0.76692109  0.68553327  1  0  0.071804  0  3.650884  0  0  0.04237  0  3.902535  0  0  0.045378  0  3.915934  0  0  0.044633  0.040403  0  3.894112  0
C  C29  1  0.42724944  0.73307898  0.18553334  1  0  0.071939  0  3.650844  0  0  0.042495  0  3.902452  0  0  0.045503  0  3.915861  0  0  0.044642  0.040531  0  3.894024  0
C  C30  1  0.92726285  0.23308283  0.31446632  1  0  0.071684  0  3.650966  0  0  0.042264  0  3.902639  0  0  0.045264  0  3.916039  0  0  0.04465  0.040299  0  3.894211  0
C  C31  1  0.57274731  0.26691729  0.81446476  1  0  0.07188  0  3.6508  0  0  0.042487  0  3.902382  0  0  0.045489  0  3.915775  0  0  0.044684  0.040525  0  3.893949  0
C  C32  1  0.19218681  0.91384036  0.81400671  1  0  0.081692  0  3.627047  0  0  0.05278  0  3.87496  0  0  0.056192  0  3.888028  0  0  0.045437  0.050469  0  3.866423  0
C  C33  1  0.30781370  0.58616004  0.31400817  1  0  0.08175  0  3.626924  0  0  0.052762  0  3.874856  0  0  0.056177  0  3.887926  0  0  0.045423  0.050449  0  3.86632  0
C  C34  1  0.80781525  0.08616468  0.18599213  1  0  0.081592  0  3.626783  0  0  0.052706  0  3.874759  0  0  0.056116  0  3.887819  0  0  0.04546  0.050394  0  3.866221  0
C  C35  1  0.69218305  0.41383623  0.68599217  1  0  0.081688  0  3.626933  0  0  0.052725  0  3.87491  0  0  0.056138  0  3.887962  0  0  0.045407  0.050413  0  3.866371  0
C  C36  1  0.96694676  0.87305679  0.66006764  1  0  0.090669  0  3.651376  0  0  0.062491  0  3.899651  0  0  0.065134  0  3.914076  0  0  0.047864  0.060058  0  3.89108  0
C  C37  1  0.53304958  0.62694528  0.16006778  1  0  0.090552  0  3.651386  0  0  0.062393  0  3.89966  0  0  0.065039  0  3.914086  0  0  0.047852  0.059943  0  3.891121  0
C  C38  1  0.03305461  0.12694387  0.33993344  1  0  0.090636  0  3.651505  0  0  0.062469  0  3.899751  0  0  0.065103  0  3.914182  0  0  0.047843  0.060021  0  3.89121  0
C  C39  1  0.46694928  0.37304770  0.83993181  1  0  0.0907  0  3.651409  0  0  0.062437  0  3.89971  0  0  0.065111  0  3.914153  0  0  0.047827  0.059978  0  3.891179  0
C  C40  1  0.08301084  0.01779418  0.78931882  1  0  0.099548  0  3.657568  0  0  0.068189  0  3.912582  0  0  0.071648  0  3.925414  0  0  0.053492  0.065642  0  3.904823  0
C  C41  1  0.41698636  0.48220033  0.28931778  1  0  0.09952  0  3.657574  0  0  0.068191  0  3.9126  0  0  0.071644  0  3.925424  0  0  0.053484  0.065645  0  3.904839  0
C  C42  1  0.91698197  0.98220210  0.21068450  1  0  0.099464  0  3.657447  0  0  0.06812  0  3.912447  0  0  0.071574  0  3.925275  0  0  0.053431  0.065572  0  3.904693  0
C  C43  1  0.58301529  0.51779374  0.71068256  1  0  0.099527  0  3.657663  0  0  0.068197  0  3.912634  0  0  0.071667  0  3.925472  0  0  0.053488  0.065659  0  3.904876  0
C  C44  1  0.11470774  0.62201208  0.01262937  1  0  0.088827  0  3.641626  0  0  0.060461  0  3.887369  0  0  0.062976  0  3.902694  0  0  0.054064  0.058531  0  3.878256  0
C  C45  1  0.38530110  0.87798827  0.51263187  1  0  0.088617  0  3.641641  0  0  0.060324  0  3.887361  0  0  0.062837  0  3.90269  0  0  0.05395  0.0584  0  3.878258  0
C  C46  1  0.88528958  0.37799626  0.98736873  1  0  0.08861  0  3.641788  0  0  0.060292  0  3.887463  0  0  0.062812  0  3.902778  0  0  0.053993  0.058372  0  3.878355  0
C  C47  1  0.61470746  0.12200797  0.48736921  1  0  0.088586  0  3.641787  0  0  0.06023  0  3.887526  0  0  0.062732  0  3.902838  0  0  0.053985  0.058295  0  3.878414  0
C  C48  1  0.98829852  0.57669096  0.08424225  1  0  0.079526  0  3.646356  0  0  0.051976  0  3.893559  0  0  0.053996  0  3.908436  0  0  0.051158  0.049452  0  3.886076  0
C  C49  1  0.51170368  0.92331218  0.58424304  1  0  0.079563  0  3.646016  0  0  0.051972  0  3.893326  0  0  0.053976  0  3.908193  0  0  0.051196  0.049436  0  3.885839  0
C  C50  1  0.01170109  0.42331518  0.91575585  1  0  0.079656  0  3.646215  0  0  0.052121  0  3.893342  0  0  0.054126  0  3.908245  0  0  0.051232  0.049589  0  3.885858  0
C  C51  1  0.48830294  0.07668846  0.41575729  1  0  0.079573  0  3.646304  0  0  0.05207  0  3.893467  0  0  0.054075  0  3.908372  0  0  0.051194  0.049546  0  3.885989  0
N  N52  1  0.18704213  0.78622594  0.76308679  1  0  -0.25785  0  3.391251  0  0  -0.190144  0  3.699922  0  0  -0.191251  0  3.704244  0  0  -0.365125  -0.189619  0  3.696135  0
N  N53  1  0.31295774  0.71377411  0.26308733  1  0  -0.257956  0  3.391282  0  0  -0.190211  0  3.699947  0  0  -0.191335  0  3.70429  0  0  -0.36514  -0.189687  0  3.696162  0
N  N54  1  0.81296570  0.21378238  0.23691131  1  0  -0.25763  0  3.391186  0  0  -0.18997  0  3.69989  0  0  -0.191058  0  3.704188  0  0  -0.365127  -0.189444  0  3.696089  0
N  N55  1  0.68704374  0.28621887  0.73691151  1  0  -0.25789  0  3.391204  0  0  -0.190238  0  3.699964  0  0  -0.191321  0  3.704253  0  0  -0.365187  -0.189712  0  3.696168  0
N  N56  1  0.96898692  0.99866560  0.71218123  1  0  -0.251456  0  3.385589  0  0  -0.185408  0  3.686568  0  0  -0.186104  0  3.689839  0  0  -0.356862  -0.185515  0  3.684349  0
N  N57  1  0.53101104  0.50133461  0.21218377  1  0  -0.251433  0  3.385637  0  0  -0.185435  0  3.68667  0  0  -0.18611  0  3.689912  0  0  -0.356877  -0.185542  0  3.684444  0
N  N58  1  0.03100920  0.00133506  0.28781985  1  0  -0.25142  0  3.38556  0  0  -0.18536  0  3.686511  0  0  -0.186049  0  3.689781  0  0  -0.356843  -0.185465  0  3.684299  0
N  N59  1  0.46899062  0.49865946  0.78781731  1  0  -0.251404  0  3.385488  0  0  -0.18533  0  3.686449  0  0  -0.186055  0  3.689752  0  0  -0.356825  -0.18545  0  3.684253  0
N  N60  1  0.12808017  0.54549024  0.92787548  1  0  -0.237309  0  3.310055  0  0  -0.168368  0  3.59793  0  0  -0.17009  0  3.603014  0  0  -0.342497  -0.168043  0  3.5948  0
N  N61  1  0.37191894  0.95450962  0.42787447  1  0  -0.237201  0  3.309882  0  0  -0.168284  0  3.597759  0  0  -0.170008  0  3.60285  0  0  -0.342453  -0.167981  0  3.594651  0
N  N62  1  0.87191680  0.45451591  0.07212337  1  0  -0.237201  0  3.310287  0  0  -0.168264  0  3.598131  0  0  -0.169987  0  3.603214  0  0  -0.342474  -0.167968  0  3.595015  0
N  N63  1  0.62808751  0.04548993  0.57212735  1  0  -0.237194  0  3.309906  0  0  -0.168234  0  3.597782  0  0  -0.169912  0  3.602827  0  0  -0.34249  -0.167899  0  3.594636  0
Cl  Cl64  1  0.66086910  0.83596092  0.90504306  1  0  1.388095  0  6.199093  0  0  1.332315  0  6.758826  0  0  1.383848  0  6.73568  0  0  0.716093  1.296607  0  6.773414  0
Cl  Cl65  1  0.83913099  0.66403869  0.40504406  1  0  1.388111  0  6.19901  0  0  1.332288  0  6.758813  0  0  1.383824  0  6.735657  0  0  0.716067  1.296583  0  6.773396  0
Cl  Cl66  1  0.33913130  0.16404193  0.09495578  1  0  1.388411  0  6.199037  0  0  1.332657  0  6.758736  0  0  1.38421  0  6.735568  0  0  0.716252  1.296949  0  6.773324  0
Cl  Cl67  1  0.16086462  0.33595868  0.59495553  1  0  1.388246  0  6.199192  0  0  1.332412  0  6.759026  0  0  1.383952  0  6.735865  0  0  0.716176  1.296704  0  6.773612  0
O  O68  1  0.49564705  0.75993431  0.94817814  1  0  -0.583366  0  1.905749  0  0  -0.551342  0  2.174363  0  0  -0.565329  0  2.157702  0  0  -0.323222  -0.541389  0  2.185377  0
O  O69  1  0.00435436  0.74006195  0.44818182  1  0  -0.583345  0  1.905661  0  0  -0.55127  0  2.174252  0  0  -0.565262  0  2.157593  0  0  -0.323166  -0.541324  0  2.185271  0
O  O70  1  0.50435466  0.24006853  0.05182071  1  0  -0.583434  0  1.905631  0  0  -0.551401  0  2.174198  0  0  -0.565388  0  2.157524  0  0  -0.323258  -0.541452  0  2.185212  0
O  O71  1  0.99564073  0.25993213  0.55181703  1  0  -0.583433  0  1.905611  0  0  -0.551379  0  2.174221  0  0  -0.565361  0  2.157551  0  0  -0.323232  -0.541429  0  2.185237  0
O  O72  1  0.77988208  0.72920267  0.88086576  1  0  -0.535851  0  1.843235  0  0  -0.513883  0  2.079814  0  0  -0.533251  0  2.07486  0  0  -0.319604  -0.499777  0  2.0829  0
O  O73  1  0.72011779  0.77079729  0.38086554  1  0  -0.535818  0  1.843262  0  0  -0.513842  0  2.079848  0  0  -0.533199  0  2.074891  0  0  -0.319585  -0.499736  0  2.082933  0
O  O74  1  0.22011963  0.27080017  0.11913383  1  0  -0.535907  0  1.843263  0  0  -0.513925  0  2.07981  0  0  -0.533287  0  2.074847  0  0  -0.319604  -0.499819  0  2.082896  0
O  O75  1  0.27987536  0.22920119  0.61913628  1  0  -0.535867  0  1.843407  0  0  -0.513858  0  2.079955  0  0  -0.53322  0  2.074999  0  0  -0.319594  -0.49975  0  2.08304  0
O  O76  1  0.61474952  0.91212825  0.81439323  1  0  -0.580005  0  1.898714  0  0  -0.558881  0  2.172766  0  0  -0.572323  0  2.156003  0  0  -0.320617  -0.549164  0  2.183949  0
O  O77  1  0.88524973  0.58787267  0.31439346  1  0  -0.580041  0  1.898688  0  0  -0.558893  0  2.17271  0  0  -0.572364  0  2.156  0  0  -0.32063  -0.549174  0  2.183888  0
O  O78  1  0.38525054  0.08787240  0.18560637  1  0  -0.580123  0  1.898769  0  0  -0.558996  0  2.172795  0  0  -0.572458  0  2.156042  0  0  -0.320672  -0.549278  0  2.183977  0
O  O79  1  0.11474376  0.41212800  0.68560389  1  0  -0.580104  0  1.898858  0  0  -0.558932  0  2.172858  0  0  -0.572409  0  2.156156  0  0  -0.320658  -0.549212  0  2.184038  0
O  O80  1  0.74381877  0.94219697  0.97672319  1  0  -0.539133  0  1.827065  0  0  -0.511713  0  2.06109  0  0  -0.529217  0  2.0497  0  0  -0.319692  -0.499068  0  2.068601  0
O  O81  1  0.75617885  0.55779832  0.47672317  1  0  -0.539159  0  1.827041  0  0  -0.511749  0  2.061085  0  0  -0.529256  0  2.049696  0  0  -0.319722  -0.499107  0  2.068596  0
O  O82  1  0.25618295  0.05780588  0.02327566  1  0  -0.539195  0  1.827057  0  0  -0.511838  0  2.061133  0  0  -0.52935  0  2.049741  0  0  -0.319768  -0.499196  0  2.068646  0
O  O83  1  0.24381476  0.44219466  0.52327493  1  0  -0.539095  0  1.827077  0  0  -0.511732  0  2.061195  0  0  -0.529234  0  2.049803  0  0  -0.319719  -0.499087  0  2.068708  0
