# generated using pymatgen
data_CdH18C21S(N2O3)2
_symmetry_space_group_name_H-M   'P 1'
_cell_length_a   9.31388271
_cell_length_b   10.60530306
_cell_length_c   12.46006257
_cell_angle_alpha   102.47282516
_cell_angle_beta   98.15200585
_cell_angle_gamma   106.69055060
_symmetry_Int_Tables_number   1
_chemical_formula_structural   CdH18C21S(N2O3)2
_chemical_formula_sum   'Cd2 H36 C42 S2 N8 O12'
_cell_volume   1123.41688481
_cell_formula_units_Z   2
loop_
 _symmetry_equiv_pos_site_id
 _symmetry_equiv_pos_as_xyz
  1  'x, y, z'
loop_
 _atom_site_type_symbol
 _atom_site_label
 _atom_site_symmetry_multiplicity
 _atom_site_fract_x
 _atom_site_fract_y
 _atom_site_fract_z
 _atom_site_occupancy
 _atom_site_hle17_bader_spin_density
 _atom_site_hle17_ddec_charge
 _atom_site_hle17_ddec_spin_density
 _atom_site_hle17_ddec_sum_bond_order
 _atom_site_hle17_magmom
 _atom_site_hse06_10hf_bader_spin_density
 _atom_site_hse06_10hf_ddec_charge
 _atom_site_hse06_10hf_ddec_spin_density
 _atom_site_hse06_10hf_ddec_sum_bond_order
 _atom_site_hse06_10hf_magmom
 _atom_site_hse06_bader_spin_density
 _atom_site_hse06_ddec_charge
 _atom_site_hse06_ddec_spin_density
 _atom_site_hse06_ddec_sum_bond_order
 _atom_site_hse06_magmom
 _atom_site_pbe_bader_spin_density
 _atom_site_pbe_cm5_charge
 _atom_site_pbe_ddec_charge
 _atom_site_pbe_ddec_spin_density
 _atom_site_pbe_ddec_sum_bond_order
 _atom_site_pbe_magmom
Cd  Cd0  1  0.08181658  0.86823849  0.90647633  1  0  1.124429  0  1.680439  0  0  0.927691  0  2.132853  0  0  0.987298  0  2.080174  0  0  0.774963  0.882541  0  2.172743  0
Cd  Cd1  1  0.91817310  0.13176225  0.09352913  1  0  1.124454  0  1.680429  0  0  0.927737  0  2.132838  0  0  0.987342  0  2.080159  0  0  0.774946  0.882593  0  2.172724  0
H  H2  1  0.48767191  0.78608287  0.44112988  1  0  0.288874  0  0.944688  0  0  0.271125  0  1.010659  0  0  0.278638  0  1.00508  0  0  0.30109  0.265823  0  1.014604  0
H  H3  1  0.51233056  0.21392009  0.55886857  1  0  0.288926  0  0.944622  0  0  0.271156  0  1.010616  0  0  0.278678  0  1.005031  0  0  0.3011  0.265857  0  1.014556  0
H  H4  1  0.23307219  0.78923228  0.66233587  1  0  0.315316  0  0.929573  0  0  0.296332  0  0.99471  0  0  0.304292  0  0.988271  0  0  0.309288  0.290531  0  0.999669  0
H  H5  1  0.76692518  0.21076248  0.33766049  1  0  0.315283  0  0.929582  0  0  0.296311  0  0.994724  0  0  0.304272  0  0.988283  0  0  0.309284  0.290498  0  0.999687  0
H  H6  1  0.24968957  0.45207090  0.65603083  1  0  0.135494  0  0.988513  0  0  0.1414  0  1.054248  0  0  0.1462  0  1.049985  0  0  0.107259  0.137878  0  1.057513  0
H  H7  1  0.75031973  0.54793311  0.34397579  1  0  0.135516  0  0.988494  0  0  0.141369  0  1.054302  0  0  0.146165  0  1.050046  0  0  0.107277  0.137901  0  1.057498  0
H  H8  1  0.26034357  0.21363284  0.68830896  1  0  0.119768  0  0.964778  0  0  0.126443  0  1.030393  0  0  0.130111  0  1.027862  0  0  0.102847  0.12377  0  1.032132  0
H  H9  1  0.73965773  0.78637007  0.31169738  1  0  0.119726  0  0.964855  0  0  0.126391  0  1.030485  0  0  0.130064  0  1.027951  0  0  0.102803  0.12372  0  1.032221  0
H  H10  1  0.76316210  0.64002488  0.84262460  1  0  0.082719  0  0.937245  0  0  0.089934  0  1.001209  0  0  0.092793  0  0.998888  0  0  0.115801  0.087726  0  1.003127  0
H  H11  1  0.23683743  0.35997599  0.15737635  1  0  0.082699  0  0.937228  0  0  0.089927  0  1.00119  0  0  0.092804  0  0.99885  0  0  0.115801  0.087721  0  1.003112  0
H  H12  1  0.51301870  0.54323070  0.69766913  1  0  0.113157  0  0.952651  0  0  0.121666  0  1.013762  0  0  0.124949  0  1.012677  0  0  0.111966  0.119353  0  1.014484  0
H  H13  1  0.48697903  0.45677119  0.30233020  1  0  0.113181  0  0.952677  0  0  0.121699  0  1.013776  0  0  0.124984  0  1.012687  0  0  0.11198  0.119387  0  1.0145  0
H  H14  1  0.69580041  0.86142241  0.53942774  1  0  0.118543  0  0.994786  0  0  0.126264  0  1.057971  0  0  0.130506  0  1.055355  0  0  0.110954  0.123033  0  1.060365  0
H  H15  1  0.30420460  0.13858160  0.46057198  1  0  0.118562  0  0.994762  0  0  0.126267  0  1.057964  0  0  0.130509  0  1.055349  0  0  0.110962  0.12304  0  1.060349  0
H  H16  1  0.93373303  0.94181317  0.68818165  1  0  0.082121  0  0.946967  0  0  0.092409  0  1.00616  0  0  0.09471  0  1.004707  0  0  0.116398  0.090683  0  1.007343  0
H  H17  1  0.06626757  0.05818771  0.31182022  1  0  0.082138  0  0.946937  0  0  0.092425  0  1.006133  0  0  0.094726  0  1.004681  0  0  0.1164  0.090699  0  1.007312  0
H  H18  1  0.17646666  0.58000768  0.39655324  1  0  0.080221  0  0.921478  0  0  0.097033  0  0.979163  0  0  0.098556  0  0.97789  0  0  0.112074  0.095848  0  0.980377  0
H  H19  1  0.82353831  0.41999630  0.60344968  1  0  0.080244  0  0.921409  0  0  0.097042  0  0.979108  0  0  0.098562  0  0.977841  0  0  0.112078  0.09586  0  0.980321  0
H  H20  1  0.25513347  0.63717950  0.28768967  1  0  0.049097  0  0.927122  0  0  0.066919  0  0.989679  0  0  0.066123  0  0.990596  0  0  0.097647  0.067673  0  0.988992  0
H  H21  1  0.74486862  0.36282243  0.71231015  1  0  0.049109  0  0.927123  0  0  0.06692  0  0.989677  0  0  0.066137  0  0.990578  0  0  0.09765  0.067678  0  0.988981  0
H  H22  1  0.28191714  0.88327876  0.39643188  1  0  0.078697  0  0.94791  0  0  0.092994  0  1.012954  0  0  0.093905  0  1.013575  0  0  0.090556  0.092258  0  1.012711  0
H  H23  1  0.71808204  0.11672415  0.60356940  1  0  0.078643  0  0.947985  0  0  0.093003  0  1.012968  0  0  0.093912  0  1.013593  0  0  0.090551  0.092268  0  1.012726  0
H  H24  1  0.09563575  0.77065943  0.32819920  1  0  0.068279  0  0.986626  0  0  0.082091  0  1.057745  0  0  0.080558  0  1.062423  0  0  0.086845  0.08326  0  1.054249  0
H  H25  1  0.90436598  0.22934149  0.67179879  1  0  0.068292  0  0.986603  0  0  0.082087  0  1.057744  0  0  0.080553  0  1.062425  0  0  0.086834  0.083257  0  1.05425  0
H  H26  1  0.08537765  0.90010651  0.50986320  1  0  0.056022  0  0.914754  0  0  0.073009  0  0.977499  0  0  0.072993  0  0.977194  0  0  0.103969  0.072931  0  0.978075  0
H  H27  1  0.91461863  0.09989129  0.49013441  1  0  0.056049  0  0.914771  0  0  0.073045  0  0.977485  0  0  0.07303  0  0.977178  0  0  0.103973  0.072958  0  0.978057  0
H  H28  1  0.04289823  0.72520787  0.50857735  1  0  0.073928  0  0.902844  0  0  0.095399  0  0.95513  0  0  0.095527  0  0.955573  0  0  0.114958  0.095272  0  0.954901  0
H  H29  1  0.95709589  0.27478991  0.49141842  1  0  0.073864  0  0.902933  0  0  0.095351  0  0.955198  0  0  0.095477  0  0.955643  0  0  0.114949  0.095214  0  0.954963  0
H  H30  1  0.76215148  0.27587330  0.93935729  1  0  0.084668  0  0.966761  0  0  0.088151  0  1.036804  0  0  0.091  0  1.034708  0  0  0.11148  0.086065  0  1.038281  0
H  H31  1  0.23784663  0.72412046  0.06063656  1  0  0.08477  0  0.966753  0  0  0.088203  0  1.036838  0  0  0.091054  0  1.03474  0  0  0.111494  0.086118  0  1.038316  0
H  H32  1  0.55346866  0.22134508  0.76697657  1  0  0.110093  0  0.954232  0  0  0.120414  0  1.012337  0  0  0.123939  0  1.010873  0  0  0.112623  0.117887  0  1.013393  0
H  H33  1  0.44653312  0.77864060  0.23300976  1  0  0.110246  0  0.954076  0  0  0.120565  0  1.012159  0  0  0.124108  0  1.010679  0  0  0.112691  0.11804  0  1.013209  0
H  H34  1  0.42102450  0.80037531  0.77785235  1  0  0.118957  0  0.975878  0  0  0.127118  0  1.037408  0  0  0.130437  0  1.036556  0  0  0.11166  0.124772  0  1.03797  0
H  H35  1  0.57897972  0.19961442  0.22214624  1  0  0.118907  0  0.975886  0  0  0.127075  0  1.037425  0  0  0.130391  0  1.036575  0  0  0.11163  0.124731  0  1.037986  0
H  H36  1  0.63149014  0.87131844  0.94752717  1  0  0.08128  0  0.930652  0  0  0.091687  0  0.990077  0  0  0.093826  0  0.988796  0  0  0.116865  0.090121  0  0.990993  0
H  H37  1  0.36850972  0.12868039  0.05247584  1  0  0.081257  0  0.930704  0  0  0.091673  0  0.990109  0  0  0.09381  0  0.988829  0  0  0.116844  0.090107  0  0.991027  0
C  C38  1  0.12233104  0.61006979  0.81684506  1  0  0.643922  0  3.983361  0  0  0.598319  0  4.270985  0  0  0.632384  0  4.263966  0  0  0.189051  0.575174  0  4.274484  0
C  C39  1  0.87766995  0.38993212  0.18315544  1  0  0.64397  0  3.983263  0  0  0.598364  0  4.270889  0  0  0.632428  0  4.263874  0  0  0.189067  0.575211  0  4.274405  0
C  C40  1  0.14701355  0.47609885  0.80266460  1  0  -0.147517  0  3.732572  0  0  -0.128979  0  3.995889  0  0  -0.134993  0  4.015267  0  0  -0.028688  -0.124943  0  3.982909  0
C  C41  1  0.85298923  0.52390510  0.19733968  1  0  -0.147571  0  3.732736  0  0  -0.129011  0  3.996009  0  0  -0.135026  0  4.015391  0  0  -0.028659  -0.124983  0  3.983057  0
C  C42  1  0.21079107  0.40996421  0.72345396  1  0  -0.095015  0  3.729555  0  0  -0.121104  0  3.9857  0  0  -0.12121  0  4.002182  0  0  -0.102379  -0.121096  0  3.974616  0
C  C43  1  0.78921643  0.59004081  0.27655025  1  0  -0.095077  0  3.72982  0  0  -0.121148  0  3.986006  0  0  -0.121253  0  4.002489  0  0  -0.102444  -0.121178  0  3.974893  0
C  C44  1  0.21623261  0.28386521  0.74045630  1  0  -0.080266  0  3.731057  0  0  -0.107783  0  3.989872  0  0  -0.106179  0  4.006636  0  0  -0.100609  -0.108277  0  3.978075  0
C  C45  1  0.78377051  0.71613975  0.25955062  1  0  -0.08012  0  3.731156  0  0  -0.107614  0  3.989946  0  0  -0.106009  0  4.00671  0  0  -0.100483  -0.108114  0  3.978156  0
C  C46  1  0.15700919  0.25617290  0.83245532  1  0  -0.170927  0  3.762171  0  0  -0.152606  0  4.030862  0  0  -0.160361  0  4.050557  0  0  -0.035867  -0.147527  0  4.018022  0
C  C47  1  0.84298997  0.74383000  0.16754757  1  0  -0.17096  0  3.762184  0  0  -0.152664  0  4.030911  0  0  -0.16042  0  4.050608  0  0  -0.035925  -0.147574  0  4.01805  0
C  C48  1  0.14026488  0.13279518  0.87269143  1  0  0.645002  0  3.981655  0  0  0.596752  0  4.271201  0  0  0.632683  0  4.262771  0  0  0.187946  0.572016  0  4.275952  0
C  C49  1  0.85972774  0.86720461  0.12730935  1  0  0.644958  0  3.981583  0  0  0.596722  0  4.271124  0  0  0.632654  0  4.262695  0  0  0.187968  0.571982  0  4.27587  0
C  C50  1  0.74154681  0.68502626  0.77366343  1  0  0.128187  0  3.702662  0  0  0.099117  0  3.954416  0  0  0.10533  0  3.972724  0  0  0.048857  0.09502  0  3.942146  0
C  C51  1  0.25845272  0.31497462  0.22633752  1  0  0.128262  0  3.702553  0  0  0.099176  0  3.954344  0  0  0.105374  0  3.972652  0  0  0.048858  0.095082  0  3.942076  0
C  C52  1  0.60445448  0.63186209  0.69363139  1  0  -0.117716  0  3.698978  0  0  -0.139153  0  3.944204  0  0  -0.14409  0  3.963906  0  0  -0.075195  -0.135997  0  3.931167  0
C  C53  1  0.39554615  0.36814186  0.30636945  1  0  -0.117779  0  3.699011  0  0  -0.139249  0  3.944277  0  0  -0.144188  0  3.96398  0  0  -0.075198  -0.13609  0  3.931246  0
C  C54  1  0.58332977  0.69367769  0.60679030  1  0  0.018683  0  3.723592  0  0  0.036914  0  3.957418  0  0  0.036437  0  3.976885  0  0  0.014517  0.037066  0  3.94426  0
C  C55  1  0.41667123  0.30632728  0.39321156  1  0  0.01872  0  3.723507  0  0  0.036977  0  3.95729  0  0  0.036511  0  3.976727  0  0  0.01454  0.037121  0  3.944155  0
C  C56  1  0.70311097  0.80735419  0.60404247  1  0  -0.133912  0  3.684473  0  0  -0.156449  0  3.930088  0  0  -0.16191  0  3.949205  0  0  -0.08024  -0.152905  0  3.917715  0
C  C57  1  0.29689076  0.19264977  0.39595849  1  0  -0.133964  0  3.684306  0  0  -0.156486  0  3.929918  0  0  -0.16195  0  3.949035  0  0  -0.08028  -0.152936  0  3.917538  0
C  C58  1  0.83705541  0.85404196  0.68732193  1  0  0.131152  0  3.701352  0  0  0.10259  0  3.95088  0  0  0.109391  0  3.969231  0  0  0.048539  0.098061  0  3.938338  0
C  C59  1  0.16294521  0.14595893  0.31267914  1  0  0.131138  0  3.701193  0  0  0.102575  0  3.950727  0  0  0.109376  0  3.969077  0  0  0.048539  0.098049  0  3.938175  0
C  C60  1  0.42994230  0.63557694  0.52511367  1  0  0.521652  0  3.863125  0  0  0.469414  0  4.159947  0  0  0.498203  0  4.159412  0  0  0.234264  0.450172  0  4.15953  0
C  C61  1  0.57005869  0.36443107  0.47489037  1  0  0.521603  0  3.863264  0  0  0.469381  0  4.160024  0  0  0.498175  0  4.159491  0  0  0.23417  0.450133  0  4.159613  0
C  C62  1  0.25218310  0.66879923  0.37731116  1  0  0.065154  0  3.651007  0  0  0.002604  0  3.921408  0  0  0.008142  0  3.933309  0  0  -0.061349  -0.001224  0  3.913335  0
C  C63  1  0.74781789  0.33120269  0.62268934  1  0  0.065095  0  3.651007  0  0  0.002563  0  3.921413  0  0  0.008096  0  3.933324  0  0  -0.061382  -0.001268  0  3.913339  0
C  C64  1  0.19253738  0.79032580  0.39819137  1  0  -0.170779  0  3.668407  0  0  -0.209838  0  3.929386  0  0  -0.212931  0  3.944452  0  0  -0.166834  -0.207307  0  3.91858  0
C  C65  1  0.80746254  0.20967611  0.60180741  1  0  -0.170727  0  3.668457  0  0  -0.209849  0  3.92948  0  0  -0.212942  0  3.944554  0  0  -0.166808  -0.207333  0  3.918673  0
C  C66  1  0.13458662  0.81687787  0.50739319  1  0  0.078465  0  3.628199  0  0  0.015842  0  3.896309  0  0  0.021987  0  3.907669  0  0  -0.054702  0.01166  0  3.888484  0
C  C67  1  0.86540929  0.18311891  0.49260419  1  0  0.078443  0  3.628301  0  0  0.015864  0  3.896365  0  0  0.022011  0  3.907729  0  0  -0.054697  0.011704  0  3.888484  0
C  C68  1  0.36007046  0.97602194  0.64756986  1  0  0.548943  0  3.822981  0  0  0.494102  0  4.117776  0  0  0.524065  0  4.114529  0  0  0.245594  0.473937  0  4.119168  0
C  C69  1  0.63992981  0.02396878  0.35242447  1  0  0.549144  0  3.822632  0  0  0.4943  0  4.117488  0  0  0.524237  0  4.114279  0  0  0.245716  0.474118  0  4.118881  0
C  C70  1  0.68322911  0.17220491  0.90007676  1  0  0.118362  0  3.705805  0  0  0.090891  0  3.95277  0  0  0.096828  0  3.97177  0  0  0.044301  0.08709  0  3.939494  0
C  C71  1  0.31677082  0.82778785  0.09991711  1  0  0.118213  0  3.706001  0  0  0.090754  0  3.953009  0  0  0.096693  0  3.972016  0  0  0.044233  0.086951  0  3.939728  0
C  C72  1  0.56897959  0.14139621  0.80462645  1  0  -0.117249  0  3.704388  0  0  -0.138129  0  3.949044  0  0  -0.143143  0  3.968645  0  0  -0.074882  -0.134833  0  3.935577  0
C  C73  1  0.43102398  0.85859151  0.19536367  1  0  -0.117513  0  3.704281  0  0  -0.138364  0  3.948947  0  0  -0.143401  0  3.968536  0  0  -0.074983  -0.135061  0  3.935474  0
C  C74  1  0.47345096  0.00609058  0.75605357  1  0  0.021539  0  3.714972  0  0  0.036913  0  3.953738  0  0  0.036546  0  3.972631  0  0  0.01568  0.037191  0  3.941046  0
C  C75  1  0.52655330  0.99389917  0.24394102  1  0  0.021511  0  3.714918  0  0  0.036899  0  3.953733  0  0  0.036544  0  3.972624  0  0  0.015697  0.037172  0  3.941051  0
C  C76  1  0.49389905  0.90696841  0.80910262  1  0  -0.134784  0  3.697052  0  0  -0.158228  0  3.950045  0  0  -0.164259  0  3.9717  0  0  -0.078499  -0.154355  0  3.935956  0
C  C77  1  0.50610266  0.09302334  0.19089367  1  0  -0.134608  0  3.697035  0  0  -0.158104  0  3.950085  0  0  -0.164134  0  3.971737  0  0  -0.078428  -0.154237  0  3.93601  0
C  C78  1  0.61051733  0.94596379  0.90484681  1  0  0.135322  0  3.698203  0  0  0.102822  0  3.95569  0  0  0.109423  0  3.97481  0  0  0.046967  0.098355  0  3.942465  0
C  C79  1  0.38948620  0.05403306  0.09515222  1  0  0.135241  0  3.698138  0  0  0.10277  0  3.955625  0  0  0.109371  0  3.974746  0  0  0.046958  0.098306  0  3.942402  0
S  S80  1  0.09445486  0.38460418  0.89742942  1  0  0.185134  0  2.669404  0  0  0.179844  0  2.996279  0  0  0.181379  0  3.002586  0  0  0.103865  0.178161  0  2.992918  0
S  S81  1  0.90554430  0.61539872  0.10257346  1  0  0.18518  0  2.669421  0  0  0.179882  0  2.996295  0  0  0.18142  0  3.002602  0  0  0.103893  0.178203  0  2.99293  0
N  N82  1  0.85613575  0.79492371  0.77095236  1  0  -0.323889  0  3.266084  0  0  -0.246737  0  3.529978  0  0  -0.266322  0  3.54914  0  0  -0.32948  -0.233193  0  3.516812  0
N  N83  1  0.14386233  0.20507614  0.22904743  1  0  -0.323899  0  3.265882  0  0  -0.246747  0  3.529795  0  0  -0.266332  0  3.548962  0  0  -0.329447  -0.233204  0  3.516627  0
N  N84  1  0.40471983  0.70127168  0.44644730  1  0  -0.43027  0  3.313056  0  0  -0.36982  0  3.56445  0  0  -0.39288  0  3.575366  0  0  -0.42186  -0.353973  0  3.55657  0
N  N85  1  0.59528263  0.29873433  0.55355331  1  0  -0.430274  0  3.312977  0  0  -0.369817  0  3.564366  0  0  -0.392881  0  3.575263  0  0  -0.421798  -0.353968  0  3.556483  0
N  N86  1  0.25099823  0.85312039  0.61064070  1  0  -0.416531  0  3.288706  0  0  -0.353521  0  3.534656  0  0  -0.376093  0  3.544315  0  0  -0.409998  -0.337922  0  3.527831  0
N  N87  1  0.74899912  0.14687437  0.38935647  1  0  -0.416441  0  3.288428  0  0  -0.353511  0  3.534453  0  0  -0.37608  0  3.544127  0  0  -0.409974  -0.337872  0  3.527579  0
N  N88  1  0.70512841  0.07556065  0.94892397  1  0  -0.332261  0  3.262457  0  0  -0.253079  0  3.52804  0  0  -0.273169  0  3.547419  0  0  -0.329769  -0.238999  0  3.514672  0
N  N89  1  0.29486894  0.92443410  0.05107319  1  0  -0.332112  0  3.262354  0  0  -0.252911  0  3.527908  0  0  -0.273002  0  3.547289  0  0  -0.329705  -0.238827  0  3.51453  0
O  O90  1  0.05142506  0.64110880  0.89462378  1  0  -0.66601  0  2.041519  0  0  -0.60655  0  2.301541  0  0  -0.635573  0  2.291389  0  0  -0.342744  -0.585756  0  2.307429  0
O  O91  1  0.94857377  0.35889310  0.10537487  1  0  -0.666014  0  2.041468  0  0  -0.606573  0  2.301512  0  0  -0.63559  0  2.291352  0  0  -0.342726  -0.58576  0  2.307372  0
O  O92  1  0.17326527  0.68785875  0.75704234  1  0  -0.633989  0  1.962818  0  0  -0.581255  0  2.190923  0  0  -0.605384  0  2.180953  0  0  -0.325949  -0.562943  0  2.197817  0
O  O93  1  0.82673719  0.31214421  0.24295771  1  0  -0.634028  0  1.962734  0  0  -0.581283  0  2.190831  0  0  -0.605419  0  2.180875  0  0  -0.325995  -0.562963  0  2.197726  0
O  O94  1  0.08366455  0.12188154  0.95938234  1  0  -0.68487  0  2.03247  0  0  -0.617474  0  2.299569  0  0  -0.647005  0  2.286347  0  0  -0.344578  -0.595843  0  2.308037  0
O  O95  1  0.91632302  0.87812533  0.04061840  1  0  -0.684825  0  2.0326  0  0  -0.617364  0  2.299558  0  0  -0.646894  0  2.286334  0  0  -0.344541  -0.595729  0  2.308018  0
O  O96  1  0.18215878  0.03832728  0.81738837  1  0  -0.628371  0  1.982214  0  0  -0.566091  0  2.227297  0  0  -0.595015  0  2.219202  0  0  -0.325059  -0.545344  0  2.233521  0
O  O97  1  0.81783199  0.96167348  0.18261720  1  0  -0.628414  0  1.982151  0  0  -0.566155  0  2.227248  0  0  -0.595083  0  2.219153  0  0  -0.325116  -0.545415  0  2.233484  0
O  O98  1  0.33117796  0.53278778  0.53390485  1  0  -0.549948  0  1.953786  0  0  -0.509743  0  2.178795  0  0  -0.530149  0  2.172548  0  0  -0.298357  -0.495795  0  2.182729  0
O  O99  1  0.66882301  0.46722328  0.46610216  1  0  -0.549954  0  1.953818  0  0  -0.509726  0  2.178794  0  0  -0.530133  0  2.172544  0  0  -0.298341  -0.495792  0  2.182751  0
O  O100  1  0.37288763  0.06468906  0.59371804  1  0  -0.588909  0  1.983593  0  0  -0.537724  0  2.21437  0  0  -0.558561  0  2.205345  0  0  -0.301812  -0.523178  0  2.220259  0
O  O101  1  0.62711479  0.93530472  0.40628031  1  0  -0.589033  0  1.983446  0  0  -0.53784  0  2.214239  0  0  -0.55866  0  2.205231  0  0  -0.301927  -0.523293  0  2.220138  0
