# generated using pymatgen
data_Zn4H8C28S2Br2O13F4
_symmetry_space_group_name_H-M   'P 1'
_cell_length_a   18.57291681
_cell_length_b   19.74057066
_cell_length_c   32.86171640
_cell_angle_alpha   86.06947831
_cell_angle_beta   73.58533195
_cell_angle_gamma   61.93272209
_symmetry_Int_Tables_number   1
_chemical_formula_structural   Zn4H8C28S2Br2O13F4
_chemical_formula_sum   'Zn16 H32 C112 S8 Br8 O52 F16'
_cell_volume   10168.58004190
_cell_formula_units_Z   4
loop_
 _symmetry_equiv_pos_site_id
 _symmetry_equiv_pos_as_xyz
  1  'x, y, z'
loop_
 _atom_site_type_symbol
 _atom_site_label
 _atom_site_symmetry_multiplicity
 _atom_site_fract_x
 _atom_site_fract_y
 _atom_site_fract_z
 _atom_site_occupancy
 _atom_site_pbe_bader_charge
 _atom_site_pbe_bader_spin_density
 _atom_site_pbe_cm5_charge
 _atom_site_pbe_ddec_charge
 _atom_site_pbe_ddec_spin_density
 _atom_site_pbe_ddec_sum_bond_order
 _atom_site_pbe_magmom
Zn  Zn0  1  0.87420977  0.55550356  0.51864930  1  1.321985  0  0.671531  0.960099  0  2.359995  0
Zn  Zn1  1  0.03821711  0.48532452  0.43845660  1  1.315853  0  0.676414  0.963593  0  2.410081  0
Zn  Zn2  1  0.04194438  0.39811846  0.52360021  1  1.317677  0  0.674079  0.966233  0  2.356994  0
Zn  Zn3  1  0.04683726  0.56012948  0.51840512  1  1.318998  0  0.674078  0.966999  0  2.355952  0
Zn  Zn4  1  0.62431615  0.19208708  0.73268426  1  1.307714  0  0.673659  0.962308  0  2.382798  0
Zn  Zn5  1  0.46503218  0.34983039  0.72547644  1  1.313328  0  0.673528  0.962031  0  2.382954  0
Zn  Zn6  1  0.45781232  0.26570492  0.81274687  1  1.318183  0  0.675003  0.967361  0  2.35384  0
Zn  Zn7  1  0.45284578  0.19242803  0.72911994  1  1.319866  0  0.674046  0.967206  0  2.352377  0
Zn  Zn8  1  0.46320366  0.76142716  0.31276747  1  1.324632  0  0.671184  0.958607  0  2.363988  0
Zn  Zn9  1  0.45324608  0.69285490  0.23080998  1  1.32103  0  0.676514  0.964167  0  2.408837  0
Zn  Zn10  1  0.62560347  0.69271025  0.22903964  1  1.317512  0  0.674791  0.967741  0  2.355571  0
Zn  Zn11  1  0.45822077  0.85200519  0.22653254  1  1.318032  0  0.673969  0.96587  0  2.356958  0
Zn  Zn12  1  0.03469732  0.90031937  0.02468603  1  1.316499  0  0.674268  0.961517  0  2.38583  0
Zn  Zn13  1  0.05190618  0.05551177  0.01828272  1  1.317153  0  0.67171  0.958757  0  2.362419  0
Zn  Zn14  1  0.87597470  0.05967324  0.01985203  1  1.31885  0  0.676709  0.968837  0  2.381292  0
Zn  Zn15  1  0.03647122  0.98435447  0.93723894  1  1.319431  0  0.674253  0.966992  0  2.356739  0
H  H16  1  0.54308290  0.48238871  0.62175644  1  0.055458  0  0.101672  0.114315  0  0.974246  0
H  H17  1  0.54827357  0.52265032  0.66706363  1  0.079631  0  0.099409  0.11141  0  0.980581  0
H  H18  1  0.64427692  0.57071226  0.61898114  1  0.053296  0  0.098135  0.109356  0  0.982906  0
H  H19  1  0.63889833  0.53057028  0.57365741  1  0.058031  0  0.098781  0.109061  0  0.98092  0
H  H20  1  0.35287335  0.67394298  0.43098481  1  0.065052  0  0.098323  0.108316  0  0.981909  0
H  H21  1  0.26227786  0.76225428  0.42838721  1  0.02886  0  0.097937  0.109556  0  0.983314  0
H  H22  1  0.16596403  0.71438804  0.47637422  1  0.068689  0  0.101073  0.113591  0  0.97488  0
H  H23  1  0.25652583  0.62608659  0.47889064  1  0.055512  0  0.101174  0.113034  0  0.974788  0
H  H24  1  0.54727746  0.76245141  0.42805762  1  0.084813  0  0.097957  0.109531  0  0.983209  0
H  H25  1  0.54238349  0.67416761  0.43051001  1  0.027743  0  0.098047  0.107802  0  0.982212  0
H  H26  1  0.63822581  0.62614998  0.47857183  1  0.066833  0  0.097815  0.107733  0  0.981986  0
H  H27  1  0.64336922  0.71430269  0.47614461  1  0.057046  0  0.098317  0.110175  0  0.982672  0
H  H28  1  0.33366521  0.17929918  0.63107761  1  0.076831  0  0.100989  0.112097  0  0.975947  0
H  H29  1  0.24305901  0.21961146  0.67644466  1  0.092531  0  0.102605  0.115266  0  0.973209  0
H  H30  1  0.14690258  0.26761789  0.62843037  1  0.048272  0  0.102189  0.115341  0  0.973679  0
H  H31  1  0.23761949  0.22731391  0.58310252  1  0.077084  0  0.101117  0.112958  0  0.975776  0
H  H32  1  0.95673043  0.07656782  0.81940562  1  0.042999  0  0.101774  0.113865  0  0.974179  0
H  H33  1  0.95177222  0.98839314  0.82190337  1  0.042441  0  0.100902  0.112622  0  0.975421  0
H  H34  1  0.85559085  0.03634194  0.77397595  1  0.055393  0  0.098277  0.109403  0  0.983014  0
H  H35  1  0.86045255  0.12459831  0.77146354  1  0.069453  0  0.101384  0.114133  0  0.974483  0
H  H36  1  0.16608316  0.21359184  0.97591988  1  0.076971  0  0.098161  0.109302  0  0.982906  0
H  H37  1  0.25695639  0.12547187  0.97837278  1  0.059146  0  0.099852  0.110441  0  0.979223  0
H  H38  1  0.35275923  0.17365918  0.93036254  1  0.079827  0  0.102904  0.116068  0  0.972338  0
H  H39  1  0.26199347  0.26182920  0.92799900  1  0.035711  0  0.101247  0.11381  0  0.974401  0
H  H40  1  0.25679750  0.03110510  0.07351665  1  0.068064  0  0.098879  0.108798  0  0.980825  0
H  H41  1  0.16586200  0.07150032  0.11879725  1  0.070029  0  0.098536  0.109611  0  0.982308  0
H  H42  1  0.26170497  0.02348779  0.16693818  1  0.058025  0  0.101363  0.113796  0  0.974302  0
H  H43  1  0.35253444  0.98321412  0.12166646  1  0.046746  0  0.101983  0.114706  0  0.973331  0
H  H44  1  0.95180566  0.72716343  0.08308154  1  0.039536  0  0.098789  0.109987  0  0.982443  0
H  H45  1  0.95686754  0.76737475  0.12844612  1  0.065623  0  0.102779  0.116069  0  0.972098  0
H  H46  1  0.86073930  0.71945490  0.17642225  1  0.066343  0  0.103194  0.116265  0  0.971779  0
H  H47  1  0.85594900  0.67893178  0.13108705  1  0.050192  0  0.10074  0.112333  0  0.976285  0
C  C48  1  0.86230934  0.56814192  0.43109534  1  1.564491  0  0.229348  0.627947  0  4.170254  0
C  C49  1  0.12344589  0.31580093  0.43858292  1  1.577115  0  0.214729  0.61709  0  4.215743  0
C  C50  1  0.86354188  0.43011303  0.56842892  1  1.57424  0  0.228424  0.626212  0  4.170579  0
C  C51  1  0.13810407  0.43221187  0.56841992  1  1.578148  0  0.230743  0.629894  0  4.166217  0
C  C52  1  0.87579976  0.68378561  0.56073970  1  1.606967  0  0.2159  0.622118  0  4.208559  0
C  C53  1  0.13738898  0.56919847  0.43101343  1  1.57079  0  0.230264  0.625673  0  4.172503  0
C  C54  1  0.63912542  0.31777210  0.68142817  1  1.59248  0  0.229242  0.626702  0  4.169346  0
C  C55  1  0.37757156  0.43438555  0.81077199  1  1.571255  0  0.215852  0.622033  0  4.207602  0
C  C56  1  0.63593876  0.18180864  0.81958963  1  1.603656  0  0.22904  0.626477  0  4.170483  0
C  C57  1  0.36172788  0.18130506  0.81812405  1  1.583455  0  0.229449  0.626394  0  4.168344  0
C  C58  1  0.62353088  0.06605361  0.68871445  1  1.590846  0  0.217534  0.623142  0  4.206305  0
C  C59  1  0.36363085  0.31922432  0.68058814  1  1.575911  0  0.230183  0.628838  0  4.165394  0
C  C60  1  0.36313748  0.68057939  0.31886774  1  1.562238  0  0.229207  0.626036  0  4.172702  0
C  C61  1  0.62262230  0.56607596  0.18829317  1  1.521971  0  0.21461  0.619009  0  4.213291  0
C  C62  1  0.63815539  0.68060472  0.31832225  1  1.569455  0  0.230108  0.629551  0  4.168034  0
C  C63  1  0.63623765  0.81947651  0.18083577  1  1.580844  0  0.228946  0.627392  0  4.168314  0
C  C64  1  0.37706466  0.93242654  0.31207802  1  1.592327  0  0.216606  0.623333  0  4.204729  0
C  C65  1  0.36182591  0.81869272  0.18122911  1  1.57136  0  0.228404  0.624759  0  4.172787  0
C  C66  1  0.13740603  0.93077837  0.06870842  1  1.587356  0  0.229937  0.628905  0  4.16595  0
C  C67  1  0.88048277  0.18360929  0.06118591  1  1.549012  0  0.217629  0.624135  0  4.208152  0
C  C68  1  0.86113928  0.93228339  0.06908577  1  1.589181  0  0.228391  0.625142  0  4.171869  0
C  C69  1  0.86169181  0.06927882  0.93150438  1  1.574731  0  0.229099  0.625452  0  4.171271  0
C  C70  1  0.12098234  0.81576004  0.93931935  1  1.571226  0  0.215557  0.620609  0  4.209298  0
C  C71  1  0.13788937  0.06777581  0.93071103  1  1.567564  0  0.229991  0.628707  0  4.167143  0
C  C72  1  0.73683485  0.80313710  0.60092165  1  -0.030279  0  -0.023488  0.062543  0  3.994562  0
C  C73  1  0.76255394  0.94631308  0.64899778  1  -0.057572  0  -0.022188  0.061432  0  3.996239  0
C  C74  1  0.82468363  0.75839947  0.58591734  1  -0.131968  0  -0.028684  -0.171658  0  3.938507  0
C  C75  1  0.67465974  0.99117283  0.66383064  1  -0.107694  0  -0.028637  -0.169734  0  3.934297  0
C  C76  1  0.78526390  0.87781386  0.62600643  1  -0.099353  0  -0.029903  -0.061928  0  4.100526  0
C  C77  1  0.71406371  0.87167741  0.62385526  1  -0.114898  0  -0.028596  -0.059974  0  4.099524  0
C  C78  1  0.20225198  0.22637999  0.36902468  1  0.073711  0  -0.022224  0.06092  0  3.99486  0
C  C79  1  0.29824967  0.02219838  0.38160844  1  0.09086  0  -0.023778  0.061944  0  3.996946  0
C  C80  1  0.17288785  0.24175858  0.41301334  1  -0.141172  0  -0.028874  -0.169102  0  3.939087  0
C  C81  1  0.32767534  0.00659454  0.33768046  1  -0.158828  0  -0.029168  -0.172016  0  3.939863  0
C  C82  1  0.25254609  0.10221300  0.39309336  1  -0.194932  0  -0.029219  -0.059283  0  4.100714  0
C  C83  1  0.24799121  0.14628273  0.35758021  1  -0.182237  0  -0.028842  -0.061939  0  4.097155  0
C  C84  1  0.69715244  0.34468310  0.65291456  1  -0.007807  0  -0.017563  -0.167166  0  3.978836  0
C  C85  1  0.80830118  0.40042569  0.59701806  1  0.13385  0  -0.016795  -0.165101  0  3.977491  0
C  C86  1  0.66655275  0.41701397  0.63647258  1  0.00375  0  -0.005759  0.06615  0  3.904895  0
C  C87  1  0.83998389  0.32736354  0.61342178  1  0.486519  0  0.099606  0.158669  0  4.043849  0
C  C88  1  0.71949300  0.44354625  0.60985731  1  -0.057551  0  -0.007367  0.064302  0  3.906433  0
C  C89  1  0.78662204  0.30059594  0.64023517  1  0.598311  0  0.099514  0.159709  0  4.043237  0
C  C90  1  0.58586074  0.48992521  0.63606289  1  -0.031508  0  -0.148809  -0.194841  0  3.873212  0
C  C91  1  0.64594165  0.52007745  0.60591809  1  -0.007696  0  -0.149799  -0.194839  0  3.879165  0
C  C92  1  0.30590797  0.65202200  0.34643514  1  0.035895  0  -0.017167  -0.166508  0  3.979401  0
C  C93  1  0.19413574  0.59674064  0.40198713  1  0.071276  0  -0.018327  -0.167515  0  3.981521  0
C  C94  1  0.28017410  0.66373385  0.39078963  1  0.010372  0  -0.007604  0.064149  0  3.912144  0
C  C95  1  0.21958732  0.58445421  0.35724062  1  0.466687  0  0.101032  0.159868  0  4.039941  0
C  C96  1  0.22691296  0.63744866  0.41724526  1  0.002055  0  -0.00649  0.064608  0  3.911642  0
C  C97  1  0.27322794  0.61110218  0.33053640  1  0.564604  0  0.10159  0.161938  0  4.038512  0
C  C98  1  0.28829604  0.69940381  0.42752405  1  0.006731  0  -0.150586  -0.197196  0  3.882563  0
C  C99  1  0.22790344  0.66943342  0.45756836  1  -0.018299  0  -0.14852  -0.194149  0  3.87471  0
C  C100  1  0.69623015  0.65214790  0.34605862  1  0.129901  0  -0.018255  -0.169228  0  3.97697  0
C  C101  1  0.80725975  0.59635023  0.40193223  1  -0.024595  0  -0.017803  -0.167785  0  3.98101  0
C  C102  1  0.66563943  0.66386077  0.39044424  1  0.002457  0  -0.007373  0.065966  0  3.907593  0
C  C103  1  0.83909507  0.58430698  0.35718971  1  0.546491  0  0.101223  0.160867  0  4.041634  0
C  C104  1  0.71851735  0.63731656  0.41701864  1  0.045228  0  -0.007894  0.064154  0  3.910861  0
C  C105  1  0.78571158  0.61118589  0.33037913  1  0.468568  0  0.101596  0.162175  0  4.041875  0
C  C106  1  0.58496141  0.69959539  0.42713901  1  -0.026908  0  -0.149878  -0.19463  0  3.877312  0
C  C107  1  0.64508628  0.66945380  0.45728625  1  -0.010803  0  -0.14917  -0.194194  0  3.877937  0
C  C108  1  0.30611475  0.34938278  0.65261103  1  0.08071  0  -0.0179  -0.168854  0  3.97958  0
C  C109  1  0.19446675  0.40530186  0.59700217  1  0.05149  0  -0.018501  -0.171259  0  3.980865  0
C  C110  1  0.27285663  0.30643908  0.64000965  1  -0.040979  0  -0.005914  0.066749  0  3.908535  0
C  C111  1  0.22726992  0.44936526  0.60962605  1  0.514556  0  0.098424  0.159339  0  4.045378  0
C  C112  1  0.21971465  0.33302471  0.61352154  1  0.033647  0  -0.00664  0.065481  0  3.907511  0
C  C113  1  0.28082798  0.42255122  0.63631745  1  0.510116  0  0.099233  0.159547  0  4.042652  0
C  C114  1  0.27172540  0.23000724  0.64413964  1  -0.059459  0  -0.14692  -0.193391  0  3.875039  0
C  C115  1  0.21149276  0.26011421  0.61407132  1  -0.01241  0  -0.148407  -0.19718  0  3.876909  0
C  C116  1  0.29812808  0.58348977  0.82088808  1  0.026358  0  -0.022945  0.060879  0  3.998198  0
C  C117  1  0.20175002  0.66664873  0.92927568  1  0.038659  0  -0.022768  0.05955  0  3.998695  0
C  C118  1  0.32779919  0.50977950  0.83506502  1  -0.136257  0  -0.029614  -0.171807  0  3.938895  0
C  C119  1  0.17171978  0.74031902  0.91505488  1  -0.143929  0  -0.029194  -0.169719  0  3.937901  0
C  C120  1  0.24781221  0.60944496  0.89495539  1  -0.174188  0  -0.028845  -0.059221  0  4.099911  0
C  C121  1  0.25215910  0.64069565  0.85517851  1  -0.155012  0  -0.029172  -0.06054  0  4.101883  0
C  C122  1  0.80332811  0.09824452  0.90395968  1  0.009211  0  -0.016496  -0.16645  0  3.97771  0
C  C123  1  0.69149439  0.15399490  0.84852643  1  -0.049079  0  -0.019319  -0.169931  0  3.982523  0
C  C124  1  0.83352578  0.08675214  0.85957710  1  -0.024563  0  -0.005627  0.065742  0  3.909857  0
C  C125  1  0.66018311  0.16588953  0.89325381  1  0.534735  0  0.099628  0.159746  0  4.045864  0
C  C126  1  0.78032040  0.11331392  0.83314211  1  0.104562  0  -0.007456  0.063094  0  3.90556  0
C  C127  1  0.71384547  0.13916960  0.91990021  1  0.588096  0  0.100961  0.161184  0  4.042257  0
C  C128  1  0.91404432  0.05122497  0.82282707  1  0.01617  0  -0.147429  -0.192705  0  3.874018  0
C  C129  1  0.85372449  0.08131608  0.79279859  1  -0.023527  0  -0.149449  -0.195913  0  3.874716  0
C  C130  1  0.19422058  0.09585274  0.90159483  1  0.072684  0  -0.017905  -0.167157  0  3.978023  0
C  C131  1  0.30517720  0.15204003  0.84584414  1  0.050138  0  -0.017724  -0.166768  0  3.976858  0
C  C132  1  0.22703387  0.13665121  0.91677426  1  -0.005445  0  -0.006347  0.064837  0  3.907756  0
C  C133  1  0.27250650  0.11095203  0.83011178  1  0.536007  0  0.098909  0.158257  0  4.044501  0
C  C134  1  0.27984549  0.16342638  0.89024732  1  0.009238  0  -0.00661  0.065127  0  3.906039  0
C  C135  1  0.21921214  0.08404182  0.85685539  1  0.517398  0  0.099915  0.158667  0  4.044367  0
C  C136  1  0.22808264  0.16873651  0.95706855  1  -0.046973  0  -0.149242  -0.194785  0  3.877317  0
C  C137  1  0.28814009  0.19898125  0.92698804  1  -0.002052  0  -0.147455  -0.195217  0  3.872162  0
C  C138  1  0.64301498  0.44633323  0.14884045  1  0.009033  0  -0.0229  0.059152  0  3.998365  0
C  C139  1  0.86005581  0.30307527  0.10102506  1  -0.026455  0  -0.023315  0.062755  0  3.998682  0
C  C140  1  0.67132916  0.49116551  0.16362354  1  -0.105092  0  -0.02853  -0.168046  0  3.93613  0
C  C141  1  0.83189719  0.25828501  0.08615116  1  -0.073736  0  -0.028946  -0.173981  0  3.943021  0
C  C142  1  0.79134535  0.37161809  0.12389821  1  -0.14323  0  -0.029537  -0.060711  0  4.103526  0
C  C143  1  0.71188905  0.37771422  0.12602633  1  -0.133011  0  -0.028628  -0.060893  0  4.09878  0
C  C144  1  0.19404237  0.90108930  0.09709271  1  0.078458  0  -0.018002  -0.168177  0  3.980817  0
C  C145  1  0.30526901  0.84553241  0.15281291  1  0.036465  0  -0.016383  -0.166663  0  3.979496  0
C  C146  1  0.22686900  0.94429055  0.10982491  1  -0.008984  0  -0.00753  0.064105  0  3.910274  0
C  C147  1  0.27272643  0.80121618  0.14016773  1  0.523893  0  0.100677  0.161237  0  4.042199  0
C  C148  1  0.27975968  0.91784480  0.13640402  1  -0.012332  0  -0.006131  0.066455  0  3.910604  0
C  C149  1  0.21920023  0.82797656  0.11345589  1  0.529368  0  0.099784  0.159197  0  4.042626  0
C  C150  1  0.22785857  0.02080066  0.10579002  1  -0.034023  0  -0.149114  -0.194289  0  3.877433  0
C  C151  1  0.28793038  0.99073057  0.13595019  1  0.007891  0  -0.147882  -0.195112  0  3.872063  0
C  C152  1  0.80300529  0.90519446  0.09721963  1  -0.005969  0  -0.017888  -0.168613  0  3.981198  0
C  C153  1  0.69162755  0.84933828  0.15262071  1  -0.035244  0  -0.017207  -0.16676  0  3.978798  0
C  C154  1  0.83350740  0.83276219  0.11355127  1  -0.012193  0  -0.005884  0.06665  0  3.905837  0
C  C155  1  0.66006397  0.92252509  0.13636307  1  0.518011  0  0.09967  0.157869  0  4.045356  0
C  C156  1  0.78046001  0.80615671  0.13996674  1  0.09291  0  -0.007779  0.06306  0  3.908133  0
C  C157  1  0.71353417  0.94938082  0.10974468  1  0.602796  0  0.099626  0.160048  0  4.044652  0
C  C158  1  0.91414274  0.75988850  0.11407641  1  0.001088  0  -0.148764  -0.196388  0  3.873469  0
C  C159  1  0.85396190  0.72974081  0.14411858  1  -0.006667  0  -0.147885  -0.194382  0  3.873735  0
S  S160  1  0.87957611  0.80023986  0.60000060  1  0.298545  0  0.094247  0.156366  0  2.781541  0
S  S161  1  0.61975857  0.94938159  0.64969250  1  0.313112  0  0.092249  0.154245  0  2.778643  0
S  S162  1  0.20119125  0.15829296  0.44032691  1  0.305607  0  0.089756  0.150128  0  2.783915  0
S  S163  1  0.29942105  0.09006070  0.31036269  1  0.31457  0  0.096496  0.159664  0  2.778902  0
S  S164  1  0.29949796  0.51054837  0.89048800  1  0.326618  0  0.094372  0.156149  0  2.777668  0
S  S165  1  0.20009050  0.73961938  0.85965680  1  0.328097  0  0.092297  0.153656  0  2.78076  0
S  S166  1  0.78215427  0.44934908  0.14964636  1  0.299041  0  0.089934  0.150093  0  2.779716  0
S  S167  1  0.72107186  0.30006725  0.10018401  1  0.32371  0  0.099876  0.165025  0  2.775644  0
Br  Br168  1  0.65334096  0.78087611  0.59343512  1  0.005435  0  0.045544  -0.013093  0  1.400567  0
Br  Br169  1  0.84599044  0.96858413  0.65643399  1  0.017576  0  0.05181  -0.00276  0  1.397631  0
Br  Br170  1  0.18705860  0.29799398  0.32750214  1  0.026238  0  0.058896  0.00804  0  1.394761  0
Br  Br171  1  0.31334667  0.95067200  0.42332632  1  0.007476  0  0.044195  -0.014912  0  1.401647  0
Br  Br172  1  0.31287663  0.61019589  0.76428569  1  0.011663  0  0.049019  -0.006011  0  1.397772  0
Br  Br173  1  0.18698818  0.64004155  0.98586866  1  0.016725  0  0.053775  -0.000336  0  1.399088  0
Br  Br174  1  0.53001993  0.46855601  0.15617988  1  0.026552  0  0.059394  0.008584  0  1.395709  0
Br  Br175  1  0.97332770  0.28078023  0.09345256  1  0.00513  0  0.045129  -0.013514  0  1.40118  0
O  O176  1  0.99930541  0.50023279  0.50084465  1  -1.23634  0  -0.570676  -1.03135  0  2.529847  0
O  O177  1  0.82340569  0.58328359  0.47089673  1  -1.154129  0  -0.309368  -0.538373  0  2.311773  0
O  O178  1  0.10218996  0.37644645  0.41849157  1  -1.177863  0  -0.312067  -0.532914  0  2.393559  0
O  O179  1  0.94363092  0.38720553  0.55876047  1  -1.157131  0  -0.312659  -0.541234  0  2.365726  0
O  O180  1  0.94231380  0.53176685  0.41433211  1  -1.148159  0  -0.309847  -0.534638  0  2.374256  0
O  O181  1  0.82413176  0.49726614  0.55610933  1  -1.164677  0  -0.308175  -0.534117  0  2.314021  0
O  O182  1  0.10626936  0.31230585  0.47907822  1  -1.144228  0  -0.318987  -0.543177  0  2.320333  0
O  O183  1  0.11570147  0.38419142  0.55949663  1  -1.157519  0  -0.307368  -0.532536  0  2.312095  0
O  O184  1  0.95666264  0.65719652  0.55104327  1  -1.175303  0  -0.31806  -0.540063  0  2.322698  0
O  O185  1  0.11735609  0.49923605  0.55542001  1  -1.166  0  -0.313111  -0.543036  0  2.362619  0
O  O186  1  0.83588162  0.65271964  0.55091080  1  -1.167062  0  -0.316151  -0.542719  0  2.38238  0
O  O187  1  0.11234944  0.53111052  0.41424751  1  -1.152513  0  -0.310295  -0.534251  0  2.374038  0
O  O188  1  0.11884748  0.58659499  0.47074394  1  -1.147416  0  -0.308507  -0.53597  0  2.310954  0
O  O189  1  0.49939963  0.24973103  0.75021482  1  -1.223465  0  -0.570785  -1.03242  0  2.53008  0
O  O190  1  0.67235886  0.25127822  0.69501685  1  -1.167845  0  -0.31265  -0.54211  0  2.365895  0
O  O191  1  0.40017265  0.43409655  0.77038997  1  -1.145399  0  -0.315307  -0.540379  0  2.386247  0
O  O192  1  0.55582192  0.21871744  0.83609871  1  -1.162411  0  -0.312449  -0.542578  0  2.363125  0
O  O193  1  0.55969655  0.36521574  0.68970227  1  -1.161893  0  -0.30606  -0.529046  0  2.31465  0
O  O194  1  0.67524199  0.16545933  0.77987694  1  -1.1606  0  -0.306803  -0.52986  0  2.319653  0
O  O195  1  0.39364882  0.37557092  0.83283695  1  -1.171312  0  -0.3182  -0.541658  0  2.319452  0
O  O196  1  0.38414311  0.21870364  0.83766597  1  -1.170276  0  -0.306451  -0.530854  0  2.311279  0
O  O197  1  0.54262849  0.09463328  0.69678122  1  -1.143216  0  -0.318808  -0.542455  0  2.317778  0
O  O198  1  0.38274049  0.16706203  0.77810942  1  -1.169249  0  -0.313764  -0.543582  0  2.363368  0
O  O199  1  0.66359604  0.09551940  0.69992339  1  -1.167554  0  -0.314804  -0.539462  0  2.38434  0
O  O200  1  0.39063406  0.36249279  0.69039522  1  -1.162722  0  -0.313196  -0.541438  0  2.366757  0
O  O201  1  0.38087035  0.25140419  0.69219059  1  -1.159671  0  -0.306843  -0.533426  0  2.30965  0
O  O202  1  0.50065067  0.75073999  0.25027903  1  -1.241083  0  -0.571395  -1.031817  0  2.52982  0
O  O203  1  0.38759502  0.71625911  0.33831089  1  -1.159697  0  -0.309367  -0.536142  0  2.312953  0
O  O204  1  0.54187179  0.59593870  0.19876943  1  -1.134205  0  -0.312099  -0.534002  0  2.390173  0
O  O205  1  0.67150272  0.66784205  0.27830494  1  -1.166867  0  -0.311798  -0.541962  0  2.363587  0
O  O206  1  0.38280842  0.66730708  0.27888525  1  -1.142488  0  -0.309176  -0.534094  0  2.375699  0
O  O207  1  0.55864645  0.71571947  0.33798297  1  -1.154426  0  -0.308604  -0.534074  0  2.313992  0
O  O208  1  0.66643679  0.59456933  0.19700338  1  -1.159283  0  -0.318806  -0.54418  0  2.322678  0
O  O209  1  0.67542669  0.75143887  0.19216493  1  -1.162939  0  -0.306538  -0.532144  0  2.313448  0
O  O210  1  0.39393199  0.93656565  0.27166228  1  -1.165101  0  -0.317514  -0.539716  0  2.318947  0
O  O211  1  0.55616130  0.86302012  0.19116149  1  -1.165531  0  -0.31333  -0.543482  0  2.365844  0
O  O212  1  0.39826666  0.87159893  0.33204334  1  -1.175828  0  -0.316578  -0.543192  0  2.383222  0
O  O213  1  0.38333174  0.75124065  0.19364383  1  -1.157209  0  -0.310685  -0.535875  0  2.37346  0
O  O214  1  0.38386642  0.86666731  0.19063905  1  -1.156479  0  -0.306672  -0.533701  0  2.310614  0
O  O215  1  0.00080977  0.00015640  0.99966470  1  -1.232425  0  -0.57138  -1.031633  0  2.530945  0
O  O216  1  0.10893271  0.88818366  0.05967845  1  -1.161384  0  -0.312096  -0.539604  0  2.370446  0
O  O217  1  0.96134520  0.15272189  0.05078587  1  -1.144761  0  -0.317002  -0.545221  0  2.381722  0
O  O218  1  0.82813405  0.99966425  0.05651031  1  -1.167309  0  -0.310516  -0.538506  0  2.366292  0
O  O219  1  0.12248974  0.99754110  0.05592043  1  -1.164551  0  -0.30846  -0.534843  0  2.312533  0
O  O220  1  0.94050582  0.88419343  0.06008546  1  -1.160635  0  -0.306356  -0.529881  0  2.317064  0
O  O221  1  0.83569194  0.15657166  0.05220089  1  -1.164726  0  -0.317021  -0.536661  0  2.326866  0
O  O222  1  0.82856029  0.08477441  0.97143328  1  -1.158241  0  -0.310455  -0.537687  0  2.368247  0
O  O223  1  0.10224726  0.87449469  0.91714399  1  -1.173496  0  -0.31869  -0.542598  0  2.320475  0
O  O224  1  0.94101998  0.03097518  0.91201142  1  -1.162048  0  -0.307347  -0.533203  0  2.311141  0
O  O225  1  0.10022009  0.81608632  0.97969407  1  -1.140864  0  -0.313349  -0.537016  0  2.386879  0
O  O226  1  0.12255872  0.08278631  0.97043631  1  -1.145934  0  -0.308307  -0.532967  0  2.313889  0
O  O227  1  0.11022584  0.03194237  0.91409395  1  -1.166493  0  -0.313098  -0.543255  0  2.363955  0
F  F228  1  0.92421381  0.27849951  0.60420054  1  -0.617596  0  -0.093879  -0.109627  0  1.39031  0
F  F229  1  0.82643783  0.22948050  0.65330510  1  -0.611488  0  -0.093086  -0.109179  0  1.391587  0
F  F230  1  0.19365684  0.54617936  0.33736018  1  -0.610558  0  -0.089282  -0.104068  0  1.39229  0
F  F231  1  0.29180094  0.59500176  0.28848104  1  -0.613841  0  -0.089194  -0.104071  0  1.391936  0
F  F232  1  0.92322790  0.54585917  0.33741380  1  -0.609579  0  -0.089047  -0.1039  0  1.392544  0
F  F233  1  0.82557029  0.59513389  0.28832268  1  -0.613422  0  -0.092035  -0.107586  0  1.389831  0
F  F234  1  0.20911842  0.52044982  0.59648861  1  -0.612156  0  -0.094141  -0.109972  0  1.389863  0
F  F235  1  0.30708108  0.47143264  0.64543820  1  -0.614269  0  -0.094906  -0.111693  0  1.391315  0
F  F236  1  0.57599099  0.20390078  0.91317137  1  -0.618429  0  -0.092754  -0.108728  0  1.389324  0
F  F237  1  0.67433204  0.15489653  0.96198215  1  -0.61791  0  -0.090224  -0.104699  0  1.389518  0
F  F238  1  0.29067453  0.09512641  0.78800061  1  -0.618292  0  -0.094215  -0.109974  0  1.390087  0
F  F239  1  0.19309984  0.04579929  0.83698826  1  -0.612302  0  -0.093976  -0.10898  0  1.389108  0
F  F240  1  0.29106760  0.73012969  0.15318310  1  -0.609749  0  -0.089858  -0.10486  0  1.392895  0
F  F241  1  0.19315028  0.77903811  0.10423854  1  -0.612189  0  -0.09306  -0.109144  0  1.391604  0
F  F242  1  0.57583428  0.97137585  0.14548807  1  -0.617153  0  -0.092967  -0.108543  0  1.39082  0
F  F243  1  0.67394631  0.02043277  0.09665672  1  -0.610791  0  -0.09001  -0.104242  0  1.389438  0
