# generated using pymatgen
data_CoH11C10(NO2)2
_symmetry_space_group_name_H-M   'P 1'
_cell_length_a   6.61856507
_cell_length_b   7.77221762
_cell_length_c   24.79114955
_cell_angle_alpha   90.01525573
_cell_angle_beta   89.88357553
_cell_angle_gamma   92.58684875
_symmetry_Int_Tables_number   1
_chemical_formula_structural   CoH11C10(NO2)2
_chemical_formula_sum   'Co4 H44 C40 N8 O16'
_cell_volume   1273.97752360
_cell_formula_units_Z   4
loop_
 _symmetry_equiv_pos_site_id
 _symmetry_equiv_pos_as_xyz
  1  'x, y, z'
loop_
 _atom_site_type_symbol
 _atom_site_label
 _atom_site_symmetry_multiplicity
 _atom_site_fract_x
 _atom_site_fract_y
 _atom_site_fract_z
 _atom_site_occupancy
 _atom_site_pbe_bader_charge
 _atom_site_pbe_bader_spin_density
 _atom_site_pbe_cm5_charge
 _atom_site_pbe_ddec_charge
 _atom_site_pbe_ddec_spin_density
 _atom_site_pbe_ddec_sum_bond_order
 _atom_site_pbe_magmom
Co  Co0  1  0.89227581  0.05569630  0.78816868  1  1.140484  0.977436  0.629741  0.715282  1.050667  2.847472  0.971
Co  Co1  1  0.62438634  0.43877808  0.28817471  1  1.269671  2.609685  0.654898  0.889242  2.814094  2.440735  2.59
Co  Co2  1  0.12398872  0.93986542  0.21066663  1  1.28206  2.619978  0.663284  0.902441  2.827039  2.446549  2.602
Co  Co3  1  0.39217700  0.55587960  0.71202685  1  1.138352  0.97658  0.629456  0.714958  1.049836  2.845193  0.97
H  H4  1  0.86628384  0.23311914  0.64898217  1  0.065222  -0.000292  0.108083  0.071077  -0.000327  0.99014  0.0
H  H5  1  0.69063535  0.98228595  0.70592335  1  0.449801  -8.1e-05  0.301159  0.297439  -0.000231  0.946836  0.0
H  H6  1  0.66776697  0.19104331  0.72601954  1  0.511967  8e-06  0.293687  0.294924  -0.000154  0.99122  0.0
H  H7  1  0.16477304  0.05916325  0.63083596  1  0.058665  -0.000291  0.104712  0.125702  -0.000268  0.977294  0.0
H  H8  1  0.93407423  0.93848072  0.62622938  1  0.05691  -0.00074  0.102081  0.119786  -0.000637  0.98342  0.0
H  H9  1  0.29928858  0.14258460  0.81591437  1  0.149909  -0.000189  0.123059  0.100771  -0.000451  1.028142  0.0
H  H10  1  0.52965041  0.09758384  0.89101916  1  0.126913  6.2e-05  0.107681  0.125167  7.2e-05  1.042223  0.0
H  H11  1  0.03135085  0.83130890  0.97419163  1  0.069268  -8.9e-05  0.102103  0.109549  0.0  1.00916  0.0
H  H12  1  0.81722716  0.89373885  0.89425102  1  0.100965  -0.000138  0.115942  0.089875  -0.000359  1.035397  0.0
H  H13  1  0.35713075  0.84588140  0.01777767  1  0.055164  2e-05  0.096767  0.096989  8.1e-05  0.98723  0.0
H  H14  1  0.56003347  0.83512171  0.97171900  1  0.022426  -0.001342  0.095959  0.097653  -0.001057  0.971857  -0.001
H  H15  1  0.63251437  0.27137925  0.14201291  1  0.052644  0.002869  0.10016  0.058402  0.001186  1.00189  0.002
H  H16  1  0.82466992  0.51692953  0.19912779  1  0.452554  0.001556  0.293286  0.297083  0.001052  0.964123  0.001
H  H17  1  0.85053806  0.30810131  0.21697098  1  0.468695  0.000103  0.288879  0.29473  0.000115  0.992588  0.0
H  H18  1  0.33544330  0.44700936  0.13147660  1  0.081167  0.00021  0.104102  0.126397  3e-06  0.974796  0.0
H  H19  1  0.56345570  0.57088546  0.12514289  1  0.02638  -2.8e-05  0.100113  0.116364  -0.000173  0.989466  0.0
H  H20  1  0.20057120  0.35254671  0.31960592  1  0.159423  0.00122  0.119913  0.094851  0.000182  1.016032  0.001
H  H21  1  0.96163036  0.40247567  0.39355366  1  0.127755  0.000755  0.107888  0.124761  0.000259  1.037444  0.0
H  H22  1  0.45325962  0.67275045  0.47782993  1  0.059082  0.000747  0.100958  0.107432  0.000398  1.009712  0.0
H  H23  1  0.67328237  0.60809942  0.39850173  1  0.143962  0.001015  0.113419  0.086316  1.3e-05  1.035378  0.001
H  H24  1  0.12885732  0.65544829  0.52032197  1  0.042125  5e-05  0.096613  0.096902  0.000103  0.988096  0.0
H  H25  1  0.92725557  0.66587999  0.47398264  1  0.05195  -0.001183  0.097485  0.100698  -0.000947  0.972089  -0.001
H  H26  1  0.13267395  0.77047970  0.35694697  1  0.053845  0.003771  0.10152  0.060679  0.00151  0.99959  0.002
H  H27  1  0.32307395  0.01760234  0.29986553  1  0.456551  0.001398  0.29355  0.297665  0.000823  0.964748  0.0
H  H28  1  0.34911230  0.80886515  0.28207701  1  0.476059  0.000228  0.289293  0.294412  -0.000136  0.993777  0.0
H  H29  1  0.83515743  0.94628406  0.36876786  1  0.064893  2.2e-05  0.104599  0.126911  -0.000133  0.973878  0.0
H  H30  1  0.06363748  0.06941473  0.37502819  1  0.026321  -0.000332  0.100156  0.116447  -0.000404  0.989478  0.0
H  H31  1  0.69766875  0.85353404  0.18071411  1  0.125852  0.001103  0.121734  0.098323  -0.000115  1.016248  0.001
H  H32  1  0.45979450  0.90164434  0.10633932  1  0.114062  0.000782  0.107174  0.122707  0.000398  1.037173  0.0
H  H33  1  0.95244979  0.17222327  0.02211190  1  0.056895  0.000901  0.101884  0.108233  0.000445  1.007922  0.0
H  H34  1  0.17083230  0.10853911  0.10144508  1  0.101883  0.001414  0.11306  0.085465  0.000391  1.035314  0.001
H  H35  1  0.62900147  0.15487217  0.97965176  1  0.044728  5.3e-05  0.097196  0.097929  0.000102  0.986963  0.0
H  H36  1  0.42682581  0.16568142  0.02598028  1  0.051323  -0.001151  0.097375  0.100646  -0.000939  0.971911  -0.001
H  H37  1  0.36543644  0.73333431  0.85126408  1  0.073641  -0.000295  0.107925  0.070692  -0.000332  0.991427  0.0
H  H38  1  0.19010413  0.48245335  0.79440469  1  0.483359  -8.1e-05  0.301007  0.297048  -0.000232  0.947507  0.0
H  H39  1  0.16744443  0.69119336  0.77431795  1  0.509356  -1e-06  0.293506  0.294878  -0.000165  0.991178  0.0
H  H40  1  0.66391631  0.55966895  0.86921387  1  0.058921  -0.000293  0.104365  0.125076  -0.00027  0.978422  0.0
H  H41  1  0.43330676  0.43880567  0.87404533  1  0.05771  -0.000743  0.101605  0.118868  -0.000642  0.983691  0.0
H  H42  1  0.79927796  0.64222277  0.68413442  1  0.149321  -0.000195  0.122706  0.100191  -0.000449  1.028962  0.0
H  H43  1  0.03009741  0.59707938  0.60885058  1  0.124069  6e-05  0.107738  0.125483  7.1e-05  1.041381  0.0
H  H44  1  0.53188702  0.33176625  0.52584879  1  0.071863  -9.8e-05  0.102654  0.110225  -8e-06  1.007848  0.0
H  H45  1  0.31730031  0.39433600  0.60594467  1  0.101871  -0.000137  0.116105  0.090023  -0.000353  1.035298  0.0
H  H46  1  0.85805333  0.34623635  0.48208744  1  0.063482  -1.6e-05  0.097491  0.097949  6.1e-05  0.986495  0.0
H  H47  1  0.06075741  0.33530523  0.52798026  1  0.020258  -0.001297  0.095975  0.097595  -0.001021  0.971721  -0.001
C  C48  1  0.07666703  0.27021712  0.71371562  1  1.560903  -0.008581  0.223319  0.559726  -0.010626  4.065379  -0.007
C  C49  1  0.92872373  0.15440731  0.68131811  1  0.284532  0.001069  0.001429  0.067738  -0.000103  3.851776  0.001
C  C50  1  0.03689538  0.00607460  0.65490500  1  -0.039003  0.004259  -0.159367  -0.338757  0.001995  3.909584  0.003
C  C51  1  0.11876225  0.86940928  0.69254681  1  1.568534  -0.000738  0.207504  0.624086  -0.001335  4.135416  -0.001
C  C52  1  0.24495580  0.07667162  0.85212843  1  0.431349  -0.014491  0.038534  0.076675  -0.015286  3.914989  -0.009
C  C53  1  0.37310305  0.04919796  0.89509340  1  -0.072245  0.00273  -0.092133  -0.194596  0.000548  3.970872  0.003
C  C54  1  0.30192857  0.95771467  0.94049514  1  -0.040937  -0.020875  -0.005064  0.135092  -0.021574  3.983148  -0.013
C  C55  1  0.09738873  0.90243111  0.94005918  1  -0.072625  0.002958  -0.097941  -0.206335  0.000492  4.013699  0.003
C  C56  1  0.97578981  0.93696960  0.89603429  1  0.470649  -0.015908  0.033501  0.068507  -0.016746  3.942489  -0.01
C  C57  1  0.44113300  0.91885398  0.98635063  1  -0.020279  -0.001037  -0.153181  -0.18671  -0.001638  3.949891  0.0
C  C58  1  0.43652085  0.22773226  0.20921937  1  1.550167  -0.001038  0.220638  0.58045  -0.002551  4.106358  -0.002
C  C59  1  0.58252808  0.34719859  0.17673862  1  0.306927  0.008846  -0.002268  0.076625  0.004515  3.897069  0.005
C  C60  1  0.46736532  0.49797286  0.15430591  1  -0.054264  0.0052  -0.158871  -0.338673  0.002451  3.902628  0.003
C  C61  1  0.39046304  0.62808533  0.19498965  1  1.574744  0.000331  0.216884  0.646  -0.000253  4.103906  0.0
C  C62  1  0.25119180  0.42019898  0.35595778  1  0.429757  -0.012254  0.0439  0.094543  -0.012739  3.93326  -0.007
C  C63  1  0.11822346  0.44978601  0.39803335  1  -0.047595  0.006401  -0.089804  -0.191958  0.00265  3.956647  0.005
C  C64  1  0.18659906  0.54293372  0.44331818  1  -0.002144  -0.019505  -0.000551  0.143008  -0.020299  3.977836  -0.013
C  C65  1  0.39061888  0.59966632  0.44368269  1  -0.114855  0.005905  -0.097263  -0.207594  0.002321  4.003861  0.005
C  C66  1  0.51490072  0.56344072  0.40018346  1  0.460564  -0.013201  0.036452  0.085452  -0.014085  3.964455  -0.008
C  C67  1  0.04550781  0.58231343  0.48885999  1  -0.027696  -0.001091  -0.153584  -0.190344  -0.001619  3.948754  0.0
C  C68  1  0.93361590  0.72881877  0.29047917  1  1.527388  -5.7e-05  0.218464  0.579228  -0.000536  4.104626  -0.001
C  C69  1  0.08134272  0.84719901  0.32266402  1  0.320082  0.009449  -0.003727  0.075653  0.005577  3.888538  0.005
C  C70  1  0.96706420  0.99750367  0.34583235  1  -0.03951  0.005895  -0.159635  -0.338739  0.002885  3.904384  0.004
C  C71  1  0.89038130  0.12871496  0.30557567  1  1.568908  0.000764  0.21506  0.643964  0.000283  4.108299  0.001
C  C72  1  0.74829632  0.92050822  0.14422008  1  0.420421  -0.01234  0.045788  0.0965  -0.013325  3.929423  -0.008
C  C73  1  0.61636338  0.94929220  0.10198557  1  0.009403  0.006136  -0.089253  -0.191746  0.002595  3.956468  0.005
C  C74  1  0.68528091  0.04219183  0.05662453  1  -0.025009  -0.018837  -0.000457  0.14302  -0.019582  3.976786  -0.012
C  C75  1  0.88921142  0.09915258  0.05624724  1  -0.031856  0.006155  -0.096665  -0.205627  0.0024  4.001207  0.005
C  C76  1  0.01259223  0.06353411  0.09982684  1  0.436283  -0.011927  0.035609  0.082978  -0.012384  3.965314  -0.007
C  C77  1  0.54494910  0.08179765  0.01107356  1  -0.025125  -0.001101  -0.153219  -0.190727  -0.001633  3.947508  0.0
C  C78  1  0.57636980  0.77028774  0.78645586  1  1.543651  -0.008596  0.223497  0.560582  -0.010623  4.066754  -0.007
C  C79  1  0.42803405  0.65453976  0.81889816  1  0.28172  0.00106  0.001567  0.067399  -0.000107  3.853748  0.001
C  C80  1  0.53616429  0.50635716  0.84527052  1  -0.044379  0.00425  -0.160098  -0.338734  0.001985  3.910628  0.003
C  C81  1  0.61837175  0.36959757  0.80761268  1  1.569587  -0.000716  0.207846  0.624855  -0.001307  4.135447  0.0
C  C82  1  0.74515847  0.57638752  0.64793136  1  0.423348  -0.014188  0.038369  0.076523  -0.014958  3.917604  -0.009
C  C83  1  0.87352890  0.54880901  0.60488844  1  -0.061191  0.002712  -0.092055  -0.195578  0.000556  3.971778  0.003
C  C84  1  0.80248201  0.45755612  0.55949383  1  -0.04378  -0.020313  -0.00414  0.137444  -0.020996  3.983093  -0.013
C  C85  1  0.59783514  0.40258720  0.55999530  1  -0.043091  0.00295  -0.097123  -0.205235  0.00049  4.010472  0.003
C  C86  1  0.47599150  0.43724327  0.60409923  1  0.445034  -0.015638  0.033992  0.068759  -0.016418  3.940989  -0.009
C  C87  1  0.94184217  0.41903815  0.51350586  1  -0.029041  -0.001117  -0.153011  -0.187226  -0.001688  3.950342  0.0
N  N88  1  0.76665264  0.09293940  0.71872008  1  -1.120844  -0.014664  -0.632702  -0.557047  -0.01446  3.443143  -0.011
N  N89  1  0.04736332  0.02181034  0.85172068  1  -1.156928  -0.014607  -0.344538  -0.185763  -0.013823  3.624318  -0.009
N  N90  1  0.75124487  0.40489217  0.21123355  1  -1.153653  0.068785  -0.638425  -0.632232  0.03598  3.441535  0.053
N  N91  1  0.44741897  0.47521317  0.35644983  1  -1.22435  0.042909  -0.330412  -0.244295  0.02266  3.564576  0.038
N  N92  1  0.24964749  0.90556039  0.28780499  1  -1.173014  0.071161  -0.638113  -0.632495  0.037163  3.431809  0.054
N  N93  1  0.94438036  0.97587757  0.14369240  1  -1.218607  0.045706  -0.331129  -0.24386  0.024446  3.569441  0.04
N  N94  1  0.26623294  0.59308457  0.78158218  1  -1.146081  -0.014666  -0.63285  -0.557292  -0.014458  3.44405  -0.011
N  N95  1  0.54749233  0.52183322  0.64839770  1  -1.156347  -0.014454  -0.34529  -0.186268  -0.013689  3.625866  -0.009
O  O96  1  0.07250809  0.25095079  0.76509318  1  -1.125615  0.004395  -0.286021  -0.488418  0.002291  2.407133  0.005
O  O97  1  0.69271703  0.87517157  0.81208520  1  -1.134541  0.000408  -0.290878  -0.504579  -0.000192  2.470916  0.002
O  O98  1  0.08312833  0.87732235  0.74322970  1  -1.175606  0.049383  -0.303823  -0.54895  0.025553  2.301078  0.044
O  O99  1  0.21559279  0.75314025  0.66955805  1  -1.164801  0.057913  -0.315473  -0.560501  0.029886  2.275356  0.051
O  O100  1  0.44041920  0.23589393  0.26038141  1  -1.131992  0.069433  -0.29945  -0.534472  0.035402  2.365281  0.059
O  O101  1  0.81896949  0.62749009  0.31818095  1  -1.168046  0.066701  -0.312088  -0.559867  0.034627  2.412301  0.055
O  O102  1  0.43035134  0.61525223  0.24502009  1  -1.173952  0.054439  -0.301055  -0.553449  0.027954  2.289791  0.046
O  O103  1  0.28873467  0.74625990  0.17406016  1  -1.16363  0.077737  -0.321253  -0.577473  0.039985  2.318775  0.067
O  O104  1  0.93168573  0.74102345  0.23939954  1  -1.118636  0.073308  -0.299208  -0.538011  0.037367  2.364081  0.063
O  O105  1  0.31677461  0.12970436  0.18214735  1  -1.167497  0.079998  -0.311114  -0.557265  0.04189  2.423014  0.066
O  O106  1  0.92889647  0.11486111  0.25541735  1  -1.16432  0.06049  -0.302026  -0.558176  0.031091  2.286633  0.052
O  O107  1  0.79182074  0.24821148  0.32702748  1  -1.167413  0.067581  -0.321161  -0.575467  0.034673  2.309419  0.057
O  O108  1  0.57242673  0.75123704  0.73507999  1  -1.119607  0.004504  -0.285931  -0.488462  0.002341  2.407108  0.005
O  O109  1  0.19288656  0.37545453  0.68810156  1  -1.134254  0.000465  -0.290343  -0.503475  -0.000159  2.471871  0.002
O  O110  1  0.58311538  0.37741148  0.75695839  1  -1.174549  0.04883  -0.303605  -0.548845  0.02527  2.299426  0.043
O  O111  1  0.71507606  0.25343517  0.83059365  1  -1.164824  0.057716  -0.316109  -0.561799  0.029772  2.274904  0.05
