# generated using pymatgen
data_MnCrBH34C34N11O4
_symmetry_space_group_name_H-M   'P 1'
_cell_length_a   8.91095610
_cell_length_b   13.39313513
_cell_length_c   17.39789198
_cell_angle_alpha   90.40118940
_cell_angle_beta   89.44821752
_cell_angle_gamma   96.91229499
_symmetry_Int_Tables_number   1
_chemical_formula_structural   MnCrBH34C34N11O4
_chemical_formula_sum   'Mn2 Cr2 B2 H68 C68 N22 O8'
_cell_volume   2061.13928834
_cell_formula_units_Z   2
loop_
 _symmetry_equiv_pos_site_id
 _symmetry_equiv_pos_as_xyz
  1  'x, y, z'
loop_
 _atom_site_type_symbol
 _atom_site_label
 _atom_site_symmetry_multiplicity
 _atom_site_fract_x
 _atom_site_fract_y
 _atom_site_fract_z
 _atom_site_occupancy
 _atom_site_pbe_bader_charge
 _atom_site_pbe_bader_spin_density
 _atom_site_pbe_cm5_charge
 _atom_site_pbe_ddec_charge
 _atom_site_pbe_ddec_spin_density
 _atom_site_pbe_ddec_sum_bond_order
 _atom_site_pbe_magmom
Mn  Mn0  1  0.90963728  0.49694187  0.65512976  1  1.607172  1.908807  0.872929  0.884798  2.049921  3.488049  1.908
Mn  Mn1  1  0.07263591  0.49481604  0.17472736  1  1.600783  -1.804782  0.86661  0.873217  -1.945679  3.502579  -1.807
Cr  Cr2  1  0.20783154  0.66397733  0.89949989  1  1.575752  -2.606311  0.940014  0.855648  -2.810565  3.552883  -2.628
Cr  Cr3  1  0.79601624  0.34148234  0.40074600  1  1.565283  2.5153  0.938376  0.840155  2.71271  3.593833  2.536
B  B4  1  0.53302545  0.77451433  0.86303146  1  2.060616  7.9e-05  -0.058304  0.270706  -0.000747  3.550881  0.001
B  B5  1  0.47063346  0.23077752  0.36447573  1  2.072985  -6.6e-05  -0.057125  0.271589  0.000593  3.550142  -0.001
H  H6  1  0.19647921  0.72501873  0.58443806  1  0.089467  -0.001333  0.117656  0.082039  -0.00109  1.008663  -0.001
H  H7  1  0.80478037  0.27401491  0.07999815  1  0.091661  0.001557  0.117834  0.082081  0.001212  1.006488  0.001
H  H8  1  0.26739630  0.54404971  0.68494206  1  0.063225  0.000641  0.119028  0.083571  0.000388  0.941153  0.0
H  H9  1  0.71614584  0.45171673  0.18705612  1  0.064271  -0.000433  0.11731  0.07937  -0.000209  0.941328  0.0
H  H10  1  0.12555528  0.25795060  0.66558131  1  0.095709  -0.001401  0.118842  0.083356  -0.001096  1.005288  -0.001
H  H11  1  0.87529707  0.74164848  0.16457325  1  0.059997  0.001166  0.118242  0.083821  0.000921  1.007197  0.0
H  H12  1  0.15304338  0.43093735  0.54023234  1  0.073945  0.000478  0.12082  0.088383  -2.1e-05  0.947856  0.0
H  H13  1  0.85186274  0.56502016  0.04657598  1  0.104149  -0.000409  0.122119  0.092136  -1.5e-05  0.944175  0.0
H  H14  1  0.39532380  0.67066997  0.59434731  1  0.016126  8.3e-05  0.088682  0.081493  5.2e-05  1.011763  0.0
H  H15  1  0.60073091  0.32638762  0.09177287  1  -0.0113  -4.5e-05  0.088823  0.081505  -1.6e-05  1.010007  0.0
H  H16  1  0.32277141  0.59683990  0.51470675  1  0.016244  2.3e-05  0.092363  0.091318  1e-06  0.982742  0.0
H  H17  1  0.68227129  0.40230179  0.01514683  1  0.050021  -4.1e-05  0.094392  0.094511  -4e-06  0.976668  0.0
H  H18  1  0.53496715  0.28890540  0.75824413  1  0.089603  0.000198  0.106921  0.120606  0.000124  0.99769  0.0
H  H19  1  0.45726618  0.70779705  0.26193087  1  0.055301  -0.000223  0.106109  0.118633  -0.000141  1.001929  0.0
H  H20  1  0.60107962  0.73275438  0.67758178  1  0.110582  0.000111  0.108719  0.123806  0.000108  1.000934  0.0
H  H21  1  0.39233040  0.26484867  0.18120797  1  0.065691  -0.000152  0.107077  0.121012  -0.000112  1.004486  0.0
H  H22  1  0.29246561  0.29543126  0.58585171  1  0.042363  0.000342  0.089202  0.083126  0.000358  1.027056  0.0
H  H23  1  0.70752498  0.70153098  0.09011062  1  0.026044  -0.000383  0.089387  0.084507  -0.000389  1.024966  0.0
H  H24  1  0.35942079  0.36962109  0.66698187  1  0.012831  4.3e-05  0.089967  0.085155  1.5e-05  0.99231  0.0
H  H25  1  0.63219305  0.62755733  0.16962534  1  0.014648  2.5e-05  0.088322  0.082768  2.6e-05  0.996881  0.0
H  H26  1  0.09206454  0.86994346  0.55739870  1  0.067325  0.000212  0.100592  0.108304  3.3e-05  1.036441  0.0
H  H27  1  0.91005971  0.12911837  0.05552092  1  0.032583  -0.000183  0.100311  0.108077  -2.2e-05  1.035828  0.0
H  H28  1  0.58772268  0.56749374  0.54194375  1  0.029737  -4e-05  0.089537  0.088626  -9.5e-05  0.990274  0.0
H  H29  1  0.41388551  0.43152792  0.03825702  1  0.045086  -6.1e-05  0.089749  0.091717  -7.4e-05  0.991785  0.0
H  H30  1  0.54108387  0.53745181  0.63794955  1  0.050781  0.000318  0.093015  0.094722  0.000254  1.001241  0.0
H  H31  1  0.45052233  0.45958546  0.13539230  1  0.059642  -0.000339  0.091684  0.093301  -0.000267  1.000964  0.0
H  H32  1  0.54392376  0.11691934  0.81139766  1  0.057066  -0.000528  0.107292  0.117516  -0.000495  0.990977  0.0
H  H33  1  0.45442860  0.88474584  0.30788642  1  0.061503  0.000531  0.106629  0.116302  0.000487  0.991865  0.0
H  H34  1  0.00628550  0.12515614  0.73476399  1  0.053657  0.000192  0.100737  0.108574  1.9e-05  1.033198  0.0
H  H35  1  0.99351058  0.87733282  0.23366187  1  0.042277  -0.000185  0.101059  0.109953  -4e-05  1.032898  0.0
H  H36  1  0.63900238  0.90939759  0.62866434  1  0.068132  -0.000411  0.105313  0.112082  -0.000404  1.01159  0.0
H  H37  1  0.35989504  0.08974851  0.12718015  1  0.063961  0.000423  0.104864  0.111839  0.000398  1.008931  0.0
H  H38  1  0.55237515  0.38199937  0.56301284  1  0.047382  -0.000182  0.091642  0.094443  -0.000399  1.01852  0.0
H  H39  1  0.44908434  0.61654595  0.06286512  1  0.057698  0.000202  0.091036  0.09582  0.00035  1.009329  0.0
H  H40  1  0.41969899  0.41721162  0.49642854  1  0.018324  0.000276  0.087275  0.080973  8.7e-05  1.023351  0.0
H  H41  1  0.58733153  0.58165569  0.99767011  1  0.026829  -0.000246  0.08766  0.084001  -9.9e-05  1.011291  0.0
H  H42  1  0.22160910  0.77530828  0.07423791  1  0.107202  0.00014  0.122541  0.108927  0.000204  1.010296  0.0
H  H43  1  0.78373666  0.22422462  0.57135714  1  0.120998  9e-06  0.123049  0.109092  -7e-05  1.012355  0.0
H  H44  1  0.33693161  0.44251632  0.86896459  1  0.123149  9.7e-05  0.126229  0.114683  0.000172  0.979275  0.0
H  H45  1  0.66873423  0.56259668  0.37146310  1  0.104623  -2.2e-05  0.125284  0.111551  -8.8e-05  0.979893  0.0
H  H46  1  0.06553470  0.79557153  0.75907093  1  0.145102  0.000228  0.125506  0.114195  0.000185  0.999637  0.0
H  H47  1  0.94065903  0.20653298  0.26066594  1  0.091104  -0.000233  0.125901  0.114047  -0.000235  1.003118  0.0
H  H48  1  0.48143089  0.89090709  0.12033866  1  0.085135  8.8e-05  0.102761  0.125201  0.000142  1.026089  0.0
H  H49  1  0.52518829  0.10639611  0.61738806  1  0.084904  -6.8e-05  0.104016  0.126867  -0.000119  1.025345  0.0
H  H50  1  0.65574554  0.81670388  0.84821744  1  -0.550742  -9.2e-05  0.074877  -0.133725  9.3e-05  1.027822  0.0
H  H51  1  0.34788095  0.18883026  0.35019453  1  -0.558137  0.000125  0.075629  -0.132429  -5.1e-05  1.025177  0.0
H  H52  1  0.67245157  0.88655973  0.99251783  1  0.122105  -0.000315  0.126761  0.113115  -0.00027  1.014618  0.0
H  H53  1  0.33230032  0.11520703  0.49262058  1  0.108697  0.000296  0.128668  0.115265  0.000224  1.010159  0.0
H  H54  1  0.63992691  0.43771108  0.83076717  1  0.09969  0.000206  0.109508  0.135199  0.00015  1.033951  0.0
H  H55  1  0.36753393  0.56780459  0.33348986  1  0.104596  -0.000281  0.109273  0.134046  -0.000251  1.040866  0.0
H  H56  1  0.75504783  0.63679552  0.82671094  1  0.171072  -0.000413  0.13129  0.1272  -0.000362  0.99948  0.0
H  H57  1  0.25135091  0.36846148  0.32896923  1  0.162205  0.000229  0.13252  0.127335  0.000185  0.999982  0.0
H  H58  1  0.25229746  0.94493962  0.68452585  1  0.082599  -5.1e-05  0.100614  0.120604  3.9e-05  1.037225  0.0
H  H59  1  0.75527059  0.05845644  0.18473186  1  0.06868  -2e-06  0.101697  0.121842  -7.1e-05  1.036802  0.0
H  H60  1  0.53452323  0.92961301  0.74836731  1  0.137824  -0.000224  0.125044  0.110206  -0.000216  1.039612  0.0
H  H61  1  0.47060370  0.07619539  0.24765821  1  0.126809  0.000175  0.12573  0.112083  0.000174  1.03754  0.0
H  H62  1  0.10796619  0.04282005  0.57940999  1  0.013564  0.000498  0.087425  0.076245  0.000294  1.010693  0.0
H  H63  1  0.89317910  0.95757767  0.08046460  1  0.01047  -0.000511  0.086139  0.073578  -0.000309  1.013766  0.0
H  H64  1  0.00398241  0.12028581  0.52104386  1  0.112158  0.000391  0.103393  0.121236  0.000375  1.038342  0.0
H  H65  1  0.99544521  0.87754324  0.02151882  1  0.132673  -0.000351  0.102847  0.120405  -0.000294  1.041826  0.0
H  H66  1  0.04860817  0.00237793  0.48458990  1  0.027509  0.000379  0.096588  0.097538  0.000223  0.991936  0.0
H  H67  1  0.95083485  0.99423211  0.98451784  1  0.050205  -0.000385  0.095169  0.094967  -0.00023  0.994919  0.0
H  H68  1  0.93655938  0.95381318  0.74633196  1  0.060887  0.000667  0.090588  0.087458  0.000489  1.03003  0.0
H  H69  1  0.06442865  0.04883371  0.24338111  1  0.070012  -0.000569  0.090843  0.08846  -0.00043  1.032738  0.0
H  H70  1  0.87864347  0.89722438  0.83692934  1  0.095872  -0.000265  0.104706  0.119214  -0.000295  1.015764  0.0
H  H71  1  0.12496195  0.10831923  0.33267128  1  0.103846  0.000242  0.103915  0.119349  0.000274  1.017406  0.0
H  H72  1  0.99799645  0.01505659  0.83483704  1  0.031828  0.000373  0.094609  0.092069  0.000233  0.997119  0.0
H  H73  1  0.00452664  0.99096128  0.33332077  1  0.041326  -0.000301  0.093897  0.090936  -0.00019  0.999087  0.0
C  C74  1  0.08970694  0.68374294  0.60415805  1  0.565101  -0.02404  0.069894  0.087006  -0.019153  3.940492  -0.013
C  C75  1  0.90667826  0.31355602  0.10598883  1  0.546478  0.023369  0.070862  0.088672  0.018467  3.942322  0.013
C  C76  1  0.23148476  0.54307087  0.62422892  1  0.297528  0.000155  0.017133  0.087911  -0.0004  3.820663  0.0
C  C77  1  0.76081972  0.45298270  0.12742628  1  0.288628  -0.000274  0.016974  0.089949  0.000255  3.826167  -0.001
C  C78  1  0.76701263  0.30730877  0.71933600  1  0.607567  -0.005423  0.098439  0.291877  -0.00445  4.070749  -0.006
C  C79  1  0.22425125  0.68905828  0.22638658  1  0.669248  0.007921  0.096565  0.288382  0.006172  4.073449  0.007
C  C80  1  0.82280365  0.69948767  0.64256660  1  0.677074  -0.007164  0.098119  0.291356  -0.005424  4.06346  -0.007
C  C81  1  0.17051476  0.29704928  0.14830774  1  0.615087  0.007057  0.097331  0.290306  0.005589  4.064605  0.007
C  C82  1  0.03383498  0.30473610  0.67356787  1  0.572278  -0.018956  0.073051  0.091601  -0.014933  3.933103  -0.01
C  C83  1  0.96167543  0.69287188  0.17788240  1  0.578963  0.02515  0.067402  0.082788  0.019952  3.934464  0.013
C  C84  1  0.18952040  0.43246698  0.60080705  1  0.301009  0.000264  0.016258  0.08382  -0.000277  3.825737  0.001
C  C85  1  0.80768832  0.56356001  0.10616556  1  0.272457  -0.000547  0.016036  0.082544  3.2e-05  3.815249  -0.001
C  C86  1  0.07779396  0.57260557  0.82881346  1  0.719882  0.021082  -0.011887  -0.131199  0.02924  3.699407  0.051
C  C87  1  0.92321739  0.42865077  0.32629320  1  0.705874  -0.032883  0.003604  -0.113682  -0.041282  3.599549  -0.058
C  C88  1  0.96329962  0.74001761  0.60849958  1  -0.049097  0.020356  -0.030169  -0.052055  0.016105  4.072037  0.014
C  C89  1  0.03328617  0.25768799  0.11135210  1  0.037208  -0.020575  -0.030151  -0.051263  -0.016429  4.065703  -0.014
C  C90  1  0.36078689  0.59309274  0.57469614  1  -0.020452  -0.001756  -0.162735  -0.20048  -0.001497  3.946111  -0.001
C  C91  1  0.63734141  0.40444822  0.07440023  1  -0.02425  0.002003  -0.162907  -0.200237  0.001724  3.942321  0.002
C  C92  1  0.63816656  0.25287667  0.75464233  1  -0.062395  0.015756  -0.102017  -0.190063  0.012603  3.997821  0.009
C  C93  1  0.35528677  0.74485659  0.25780783  1  -0.011828  -0.015024  -0.102735  -0.189303  -0.011988  4.001433  -0.009
C  C94  1  0.90120839  0.25887960  0.71241341  1  0.023768  0.020349  -0.029167  -0.05511  0.016143  4.063296  0.014
C  C95  1  0.09294485  0.73942489  0.21685850  1  -0.036121  -0.01879  -0.030323  -0.053195  -0.014803  4.065584  -0.013
C  C96  1  0.70701898  0.76316903  0.65009557  1  -0.03632  0.014507  -0.098503  -0.182244  0.011503  3.977561  0.009
C  C97  1  0.28797670  0.23441979  0.15298836  1  -0.064697  -0.014464  -0.10066  -0.183798  -0.01153  3.980064  -0.009
C  C98  1  0.32369793  0.37278081  0.60657085  1  -0.033014  -0.001962  -0.163238  -0.200383  -0.001529  3.946417  -0.002
C  C99  1  0.67369735  0.62422242  0.10978337  1  -0.022066  0.001625  -0.16467  -0.204412  0.00125  3.943533  0.001
C  C100  1  0.98332175  0.84105621  0.58271861  1  0.018726  -0.010763  -0.11557  -0.267539  -0.008488  4.029249  -0.007
C  C101  1  0.01669331  0.15762604  0.08247325  1  -0.025875  0.010876  -0.116059  -0.269489  0.008576  4.035966  0.007
C  C102  1  0.49595219  0.53296491  0.57923318  1  -0.019982  0.000824  -0.168819  -0.144825  0.000667  3.931557  0.001
C  C103  1  0.50206621  0.46487341  0.07755957  1  -0.024445  -0.00094  -0.168182  -0.146927  -0.000833  3.931217  -0.001
C  C104  1  0.64299910  0.15755267  0.78350174  1  -0.006274  -0.008202  -0.095071  -0.164681  -0.006495  4.014034  -0.006
C  C105  1  0.35402739  0.84294564  0.28253837  1  -0.038697  0.01093  -0.098202  -0.168557  0.008687  4.020654  0.007
C  C106  1  0.90289675  0.16034153  0.74162651  1  -0.014213  -0.010644  -0.111501  -0.250852  -0.008481  4.011368  -0.007
C  C107  1  0.09475012  0.84061605  0.24204742  1  -0.042888  0.012291  -0.112684  -0.254825  0.009813  4.011751  0.008
C  C108  1  0.72836819  0.86079487  0.62380265  1  -0.106346  -0.010331  -0.095347  -0.161991  -0.00826  4.01151  -0.007
C  C109  1  0.26987310  0.13788344  0.12365024  1  0.019253  0.010167  -0.095433  -0.161673  0.008093  4.015092  0.007
C  C110  1  0.45384917  0.42288774  0.55704714  1  -0.005432  0.000211  -0.170447  -0.13738  -6e-06  3.906591  0.0
C  C111  1  0.54769658  0.57521489  0.05776870  1  -0.034376  -0.000161  -0.168679  -0.13473  -1.5e-05  3.899671  0.0
C  C112  1  0.16750173  0.56804096  0.98663099  1  0.69947  0.027819  -0.008712  -0.130421  0.035717  3.699633  0.057
C  C113  1  0.83655784  0.43223248  0.49118914  1  0.713443  -0.021644  0.008242  -0.107803  -0.027266  3.607866  -0.049
C  C114  1  0.01486622  0.71980127  0.92908561  1  0.652709  0.029769  -0.042407  -0.186096  0.034439  3.748658  0.055
C  C115  1  0.98616973  0.28266046  0.42845661  1  0.65434  -0.030613  -0.043821  -0.19191  -0.034201  3.758794  -0.053
C  C116  1  0.86736484  0.90094421  0.58994004  1  0.474373  0.015117  0.064869  0.22318  0.012605  4.114309  0.01
C  C117  1  0.13256499  0.09794568  0.08895045  1  0.480263  -0.015824  0.061538  0.218661  -0.013171  4.121633  -0.01
C  C118  1  0.77655629  0.11045533  0.77771549  1  0.447589  0.017317  0.063383  0.223561  0.014454  4.100249  0.011
C  C119  1  0.22217266  0.89135230  0.27596480  1  0.515624  -0.015396  0.064583  0.225598  -0.012895  4.102527  -0.01
C  C120  1  0.32626992  0.79526804  0.04272841  1  0.427659  -0.017382  0.029363  0.044205  -0.014308  3.956623  -0.012
C  C121  1  0.67857347  0.20552004  0.54088057  1  0.408135  0.01597  0.029854  0.046043  0.013165  3.948554  0.011
C  C122  1  0.42696041  0.50358088  0.86012150  1  0.39905  -0.016736  0.021125  0.013702  -0.01365  3.996804  -0.012
C  C123  1  0.57855159  0.50156924  0.36298188  1  0.361547  0.016249  0.022177  0.016367  0.01345  3.999971  0.012
C  C124  1  0.18601392  0.81754907  0.76489641  1  0.41237  -0.018488  0.02254  0.027292  -0.015326  3.976723  -0.013
C  C125  1  0.81980027  0.18556491  0.26621463  1  0.48457  0.01699  0.024326  0.031428  0.01413  3.969322  0.012
C  C126  1  0.45958175  0.85405576  0.06526643  1  0.018384  -0.001577  -0.119184  -0.227132  -0.001359  4.035543  0.0
C  C127  1  0.54593659  0.14550657  0.56334664  1  0.006161  0.002095  -0.117749  -0.225929  0.001742  4.032595  0.0
C  C128  1  0.55676136  0.85334611  0.00203420  1  0.360769  -0.02122  0.038135  0.001452  -0.017173  3.925757  -0.012
C  C129  1  0.44772822  0.14869768  0.50174624  1  0.403967  0.020839  0.038065  0.000455  0.016917  3.924514  0.012
C  C130  1  0.57983437  0.50202571  0.84145078  1  -0.058845  -0.003548  -0.111545  -0.214927  -0.002828  4.009854  -0.001
C  C131  1  0.42642145  0.50336777  0.34442391  1  0.042536  0.003718  -0.112909  -0.217635  0.003045  4.013105  0.001
C  C132  1  0.64064487  0.60275085  0.83817490  1  0.410615  -0.024171  0.048353  0.031171  -0.020037  3.879105  -0.014
C  C133  1  0.36505392  0.40271237  0.34100273  1  0.366146  0.023869  0.049697  0.032938  0.019558  3.871871  0.014
C  C134  1  0.28244252  0.89293361  0.72756598  1  -0.019337  -0.001705  -0.126954  -0.240816  -0.001472  4.055335  0.0
C  C135  1  0.72399295  0.11070563  0.22816277  1  0.001173  0.001896  -0.124911  -0.237973  0.001706  4.047521  0.0
C  C136  1  0.42517957  0.88621629  0.75795777  1  0.333181  -0.019676  0.03032  -0.008691  -0.015783  3.935839  -0.011
C  C137  1  0.58008763  0.11884678  0.25800492  1  0.340762  0.019657  0.032388  -0.007591  0.015796  3.928422  0.011
C  C138  1  0.01721091  0.04295935  0.53657187  1  0.398771  0.000666  -0.1448  -0.176152  0.000702  3.928857  0.0
C  C139  1  0.98310035  0.95545408  0.03646969  1  0.356696  -0.000673  -0.145324  -0.174301  -0.000716  3.935667  0.0
C  C140  1  0.90409723  0.96843947  0.80624425  1  0.365987  -0.00039  -0.144791  -0.181553  -0.000175  3.923307  0.0
C  C141  1  0.09807759  0.03616838  0.30293586  1  0.333666  0.000363  -0.144905  -0.183175  0.000187  3.924985  0.0
N  N142  1  0.08921634  0.58975849  0.62389494  1  -1.147936  -0.009412  -0.351774  -0.252755  -0.008853  3.514309  -0.019
N  N143  1  0.90198610  0.40553113  0.13036471  1  -1.137388  0.01075  -0.353919  -0.252829  0.010042  3.531284  0.02
N  N144  1  0.05326784  0.39586749  0.64614074  1  -1.145137  -0.009953  -0.352328  -0.250722  -0.009747  3.529072  -0.02
N  N145  1  0.93923331  0.59916404  0.15479270  1  -1.157847  0.010547  -0.352163  -0.252525  0.00995  3.519294  0.02
N  N146  1  0.85754971  0.46983247  0.55201915  1  -1.323728  0.066435  -0.38686  -0.267869  0.04907  3.586657  0.04
N  N147  1  0.15066118  0.51840286  0.04193595  1  -1.31892  -0.08697  -0.314181  -0.281722  -0.06875  3.18431  -0.062
N  N148  1  0.99959613  0.52414104  0.78529628  1  -1.346485  -0.100453  -0.321401  -0.290071  -0.079924  3.170019  -0.076
N  N149  1  0.99067157  0.46611434  0.27341285  1  -1.316231  0.103857  -0.383539  -0.261644  0.087233  3.575245  0.095
N  N150  1  0.34207943  0.76125097  0.97054022  1  -0.768518  -0.005477  -0.271421  -0.219439  0.00459  3.523417  0.026
N  N151  1  0.66127620  0.24275753  0.47035445  1  -0.775174  0.004153  -0.271948  -0.217284  -0.005103  3.528367  -0.025
N  N152  1  0.39710470  0.59948582  0.86774957  1  -0.772293  -0.006763  -0.280189  -0.230935  0.003224  3.566141  0.025
N  N153  1  0.60738677  0.40559253  0.37052717  1  -0.762821  0.007199  -0.282589  -0.237793  -0.00184  3.584098  -0.023
N  N154  1  0.26566113  0.76872357  0.81443151  1  -0.784987  -0.006228  -0.271437  -0.209453  0.004043  3.524091  0.027
N  N155  1  0.73883145  0.23558273  0.31565589  1  -0.779813  0.002487  -0.270714  -0.20661  -0.006578  3.518587  -0.027
N  N156  1  0.48374222  0.79737693  0.94595115  1  -0.995682  -0.0054  -0.12576  -0.011325  -0.002765  3.696995  -0.004
N  N157  1  0.51940866  0.20741383  0.44668318  1  -0.995297  0.004976  -0.125455  -0.010233  0.002502  3.692939  0.004
N  N158  1  0.52892663  0.65981982  0.85392835  1  -0.999565  -0.005992  -0.131273  -0.029229  -0.003225  3.717271  -0.004
N  N159  1  0.47568218  0.34553653  0.35671402  1  -1.007929  0.005383  -0.130051  -0.026034  0.002728  3.71267  0.004
N  N160  1  0.41237354  0.81058245  0.80941428  1  -0.971016  -0.005835  -0.125622  -0.010026  -0.003006  3.688268  -0.004
N  N161  1  0.59175444  0.19477521  0.30989950  1  -0.98618  0.004514  -0.126903  -0.010763  0.002055  3.689873  0.003
N  N162  1  0.89835850  0.74722029  0.94604352  1  -1.30889  -0.100663  -0.350843  -0.311484  -0.078223  3.0192  -0.072
N  N163  1  0.09990711  0.25214303  0.44503336  1  -1.312362  0.094281  -0.349969  -0.309172  0.072886  3.018746  0.067
O  O164  1  0.75629435  0.39831178  0.69363729  1  -1.073131  0.100495  -0.295448  -0.41795  0.08125  2.383391  0.076
O  O165  1  0.23014506  0.59484300  0.20561485  1  -1.074195  -0.095631  -0.296859  -0.416477  -0.077513  2.382297  -0.073
O  O166  1  0.79766380  0.60692852  0.66861749  1  -1.069234  0.100207  -0.294493  -0.423367  0.081152  2.437822  0.077
O  O167  1  0.19289762  0.38768162  0.17880181  1  -1.07269  -0.096198  -0.297402  -0.426631  -0.077904  2.435299  -0.073
O  O168  1  0.87594455  0.99918226  0.56748693  1  -1.078046  0.007833  -0.194658  -0.167364  0.006033  2.577044  0.006
O  O169  1  0.12506300  0.99981894  0.06510995  1  -1.075544  -0.008065  -0.196  -0.167244  -0.006224  2.575803  -0.007
O  O170  1  0.76887623  0.01619301  0.80916512  1  -1.076322  0.008043  -0.195211  -0.175455  0.006252  2.573713  0.007
O  O171  1  0.23270180  0.98779186  0.30446021  1  -1.07889  -0.00672  -0.196775  -0.177185  -0.005256  2.575246  -0.005
