# generated using pymatgen
data_ZnHC17N5(O6F5)2
_symmetry_space_group_name_H-M   'P 1'
_cell_length_a   10.79307965
_cell_length_b   14.72616403
_cell_length_c   16.00761118
_cell_angle_alpha   90.13086245
_cell_angle_beta   89.94875496
_cell_angle_gamma   91.10913120
_symmetry_Int_Tables_number   1
_chemical_formula_structural   ZnHC17N5(O6F5)2
_chemical_formula_sum   'Zn2 H2 C34 N10 O24 F20'
_cell_volume   2543.77605976
_cell_formula_units_Z   2
loop_
 _symmetry_equiv_pos_site_id
 _symmetry_equiv_pos_as_xyz
  1  'x, y, z'
loop_
 _atom_site_type_symbol
 _atom_site_label
 _atom_site_symmetry_multiplicity
 _atom_site_fract_x
 _atom_site_fract_y
 _atom_site_fract_z
 _atom_site_occupancy
 _atom_site_pbe_bader_charge
 _atom_site_pbe_bader_spin_density
 _atom_site_pbe_cm5_charge
 _atom_site_pbe_ddec_charge
 _atom_site_pbe_ddec_spin_density
 _atom_site_pbe_ddec_sum_bond_order
 _atom_site_pbe_magmom
Zn  Zn0  1  0.51138087  0.40438809  0.50124376  1  1.320928  0  0.695661  0.881759  0  2.436961  0
Zn  Zn1  1  0.50617740  0.59441254  0.49947381  1  1.31482  0  0.693546  0.87803  0  2.437002  0
H  H2  1  0.63732320  0.43109523  0.06165024  1  0.123339  0  0.124598  0.100178  0  0.939958  0
H  H3  1  0.64265700  0.57281847  0.08228084  1  0.132949  0  0.127487  0.106867  0  0.933455  0
C  C4  1  0.51049335  0.49654557  0.33860547  1  1.717558  0  0.227358  0.668685  0  4.231431  0
C  C5  1  0.27042325  0.48776772  0.49374780  1  1.65134  0  0.223007  0.639811  0  4.171564  0
C  C6  1  0.49579846  0.50254661  0.66203674  1  1.661088  0  0.229461  0.664841  0  4.234987  0
C  C7  1  0.74628165  0.51313434  0.50582593  1  1.62204  0  0.222816  0.641551  0  4.169485  0
C  C8  1  0.03438404  0.40922314  0.49752204  1  0.603662  0  0.102183  0.159792  0  3.749223  0
C  C9  1  0.05315455  0.54150828  0.42884695  1  0.62386  0  0.103447  0.159193  0  3.751675  0
C  C10  1  0.95492846  0.46129183  0.43096611  1  0.6206  0  0.104036  0.1599  0  3.7477  0
C  C11  1  0.88451366  0.51200886  0.50324520  1  -0.020286  0  -0.02047  -0.205527  0  3.702031  0
C  C12  1  0.96360503  0.45979423  0.56981761  1  0.617781  0  0.104503  0.164892  0  3.743319  0
C  C13  1  0.98227820  0.59207558  0.50112194  1  0.5994  0  0.100979  0.159115  0  3.749607  0
C  C14  1  0.06177164  0.54009673  0.56771669  1  0.627537  0  0.105804  0.161073  0  3.745026  0
C  C15  1  0.13217122  0.48931102  0.49541129  1  -0.051908  0  -0.020094  -0.202765  0  3.701891  0
C  C16  1  0.53872918  0.41449253  0.05001544  1  0.573623  0  0.037874  0.071934  0  3.840168  0
C  C17  1  0.55065355  0.58070328  0.05406699  1  0.54227  0  0.036795  0.067361  0  3.82301  0
C  C18  1  0.56933392  0.57461454  0.95785956  1  0.725109  0  0.179199  0.20629  0  3.688253  0
C  C19  1  0.52863979  0.40570802  0.95424372  1  0.759073  0  0.177714  0.20362  0  3.72708  0
C  C20  1  0.49093106  0.50255975  0.75258096  1  0.27282  0  -0.004279  -0.082827  0  3.868913  0
C  C21  1  0.46600791  0.49923270  0.08445106  1  0.123647  0  0.002481  0.027973  0  3.88141  0
C  C22  1  0.48145396  0.49887720  0.91792038  1  0.082412  0  0.001191  -0.109984  0  3.887093  0
C  C23  1  0.34267326  0.51209433  0.94785420  1  1.183082  0  0.216469  0.43038  0  3.862378  0
C  C24  1  0.33416823  0.51152290  0.04656946  1  0.346708  0  0.146784  -0.074513  0  3.478595  0
C  C25  1  0.48686620  0.50036106  0.82809722  1  -0.37451  0  -0.055882  -0.069228  0  4.111711  0
C  C26  1  0.47161783  0.49710437  0.17472535  1  -0.330614  0  -0.047834  -0.068393  0  4.097813  0
C  C27  1  0.49444303  0.49610932  0.24877855  1  0.090024  0  -0.017446  -0.111805  0  3.885178  0
C  C28  1  0.44351674  0.94515392  0.40826231  1  0.77681  0  0.176535  0.158232  0  3.745797  0
C  C29  1  0.43091406  0.05124375  0.41181714  1  0.782022  0  0.181262  0.173808  0  3.731104  0
C  C30  1  0.62375631  0.94672306  0.51566721  1  1.209374  0  0.209854  0.347151  0  3.932902  0
C  C31  1  0.62976700  0.05346776  0.50296375  1  1.251754  0  0.211508  0.350812  0  3.935389  0
C  C32  1  0.48755045  0.90999804  0.49582172  1  0.092844  0  0.009072  -0.169504  0  3.872676  0
C  C33  1  0.49187673  0.09004931  0.49391671  1  0.105795  0  0.010037  -0.162762  0  3.844176  0
C  C34  1  0.41678731  0.05290652  0.57229541  1  0.758624  0  0.181005  0.166966  0  3.71847  0
C  C35  1  0.39884046  0.94707793  0.56632073  1  0.803626  0  0.178206  0.164786  0  3.736616  0
C  C36  1  0.50001108  0.18866299  0.49598657  1  0.943726  0  0.225015  0.30123  0  3.92752  0
C  C37  1  0.48832364  0.81144086  0.49735980  1  0.903634  0  0.226826  0.296278  0  3.906026  0
N  N38  1  0.51641324  0.26598787  0.50346180  1  -1.072008  0  -0.2408  -0.211602  0  3.060604  0
N  N39  1  0.49469733  0.73332824  0.49850220  1  -1.022494  0  -0.225155  -0.19045  0  3.044795  0
N  N40  1  0.47437107  0.09975582  0.32722560  1  0.551031  0  0.063904  0.436198  0  4.225221  0
N  N41  1  0.53396625  0.90836032  0.33557469  1  0.563848  0  0.061957  0.42649  0  4.222401  0
N  N42  1  0.25823598  0.91071815  0.54970115  1  0.555511  0  0.062403  0.428871  0  4.206609  0
N  N43  1  0.29104846  0.10463062  0.59223287  1  0.553572  0  0.062839  0.433839  0  4.228457  0
N  N44  1  0.55777767  0.66940771  0.91134114  1  0.538163  0  0.059265  0.448958  0  4.191386  0
N  N45  1  0.44591004  0.32122679  0.92413022  1  0.561035  0  0.056779  0.449374  0  4.186244  0
N  N46  1  0.23668343  0.43866685  0.07626589  1  0.523733  0  0.059149  0.485432  0  4.230974  0
N  N47  1  0.27166417  0.59971202  0.08908280  1  0.576718  0  0.068583  0.475236  0  4.195653  0
O  O48  1  0.51357548  0.41935697  0.37375502  1  -1.1337  0  -0.305483  -0.53179  0  2.253289  0
O  O49  1  0.51819526  0.57449297  0.37269594  1  -1.128492  0  -0.307788  -0.535532  0  2.25354  0
O  O50  1  0.32197346  0.41138254  0.49583807  1  -1.141823  0  -0.306952  -0.525253  0  2.289125  0
O  O51  1  0.32154250  0.56621948  0.49160058  1  -1.143029  0  -0.312493  -0.544602  0  2.313722  0
O  O52  1  0.49860483  0.42471903  0.62794859  1  -1.124701  0  -0.302401  -0.527614  0  2.25356  0
O  O53  1  0.49665875  0.57983841  0.62711403  1  -1.130358  0  -0.304563  -0.531079  0  2.249522  0
O  O54  1  0.69549078  0.43461425  0.50665172  1  -1.149652  0  -0.311861  -0.545094  0  2.315068  0
O  O55  1  0.69440065  0.58949818  0.50616522  1  -1.146061  0  -0.309304  -0.528266  0  2.290255  0
O  O56  1  0.54295347  0.16631380  0.33246411  1  -0.358244  0  -0.055166  -0.209471  0  1.979177  0
O  O57  1  0.42255626  0.06692305  0.26595258  1  -0.367932  0  -0.074494  -0.228706  0  1.920128  0
O  O58  1  0.61846442  0.95898597  0.31277388  1  -0.388173  0  -0.0803  -0.24761  0  2.019087  0
O  O59  1  0.50743182  0.83156887  0.31254384  1  -0.351003  0  -0.05177  -0.197629  0  1.945582  0
O  O60  1  0.18395730  0.96372567  0.52078949  1  -0.382661  0  -0.079953  -0.244366  0  2.013755  0
O  O61  1  0.24315449  0.83113797  0.56869553  1  -0.348918  0  -0.054681  -0.20477  0  1.945846  0
O  O62  1  0.26478855  0.16941776  0.54876987  1  -0.360025  0  -0.057082  -0.213892  0  2.004815  0
O  O63  1  0.24045506  0.07573485  0.65545761  1  -0.368684  0  -0.076266  -0.2297  0  1.92069  0
O  O64  1  0.64389673  0.68862015  0.86439872  1  -0.389914  0  -0.098311  -0.262583  0  1.923821  0
O  O65  1  0.46587144  0.71388042  0.92668957  1  -0.386221  0  -0.099202  -0.267714  0  1.994085  0
O  O66  1  0.47622452  0.28937300  0.85660688  1  -0.3983  0  -0.098095  -0.261296  0  1.928776  0
O  O67  1  0.36265065  0.29485086  0.97073493  1  -0.416885  0  -0.105155  -0.277384  0  2.003049  0
O  O68  1  0.27159156  0.37945892  0.12355077  1  -0.381503  0  -0.074332  -0.237576  0  1.97803  0
O  O69  1  0.13120376  0.45128550  0.05029600  1  -0.399693  0  -0.111715  -0.285691  0  1.904197  0
O  O70  1  0.25337962  0.58831603  0.16404551  1  -0.409098  0  -0.088211  -0.260616  0  1.970579  0
O  O71  1  0.24776097  0.66576214  0.04717462  1  -0.357906  0  -0.075837  -0.236686  0  1.990665  0
F  F72  1  0.89616814  0.42465196  0.36369918  1  -0.620858  0  -0.104467  -0.122627  0  1.311877  0
F  F73  1  0.27264208  0.44227218  0.91475095  1  -0.600906  0  -0.088507  -0.152883  0  1.38476  0
F  F74  1  0.29749265  0.58802545  0.91297257  1  -0.598049  0  -0.078943  -0.135538  0  1.428379  0
F  F75  1  0.65446125  0.92615876  0.59518645  1  -0.577906  0  -0.069617  -0.113229  0  1.363689  0
F  F76  1  0.68793940  0.09386951  0.56826514  1  -0.588022  0  -0.070698  -0.1157  0  1.365976  0
F  F77  1  0.70544204  0.90533030  0.46441242  1  -0.591692  0  -0.070851  -0.116336  0  1.358693  0
F  F78  1  0.69580810  0.07379092  0.43349476  1  -0.588893  0  -0.072233  -0.122785  0  1.408924  0
F  F79  1  0.42777913  0.90879092  0.64008956  1  -0.571817  0  -0.055207  -0.075051  0  1.422043  0
F  F80  1  0.48394460  0.07176625  0.64258750  1  -0.571815  0  -0.062164  -0.084163  0  1.39188  0
F  F81  1  0.33237890  0.90571518  0.39015244  1  -0.581293  0  -0.057201  -0.07907  0  1.428932  0
F  F82  1  0.30790636  0.07033177  0.41219417  1  -0.58171  0  -0.063476  -0.08982  0  1.432319  0
F  F83  1  0.06200832  0.31988001  0.49553150  1  -0.613508  0  -0.108159  -0.126516  0  1.332926  0
F  F84  1  0.10240415  0.57963945  0.35907240  1  -0.616769  0  -0.101799  -0.117735  0  1.322636  0
F  F85  1  0.91397336  0.42164038  0.63942673  1  -0.619927  0  -0.102123  -0.120913  0  1.310873  0
F  F86  1  0.95473350  0.68150087  0.50285891  1  -0.616015  0  -0.110861  -0.129613  0  1.320398  0
F  F87  1  0.12060972  0.57691730  0.63479511  1  -0.618968  0  -0.101224  -0.12066  0  1.318289  0
F  F88  1  0.64236961  0.38659957  0.92162440  1  -0.596577  0  -0.087001  -0.124354  0  1.377466  0
F  F89  1  0.69023130  0.55154098  0.94475381  1  -0.594662  0  -0.083387  -0.128688  0  1.396406  0
F  F90  1  0.50574278  0.66274273  0.08149338  1  -0.602851  0  -0.102976  -0.11457  0  1.357691  0
F  F91  1  0.51413297  0.33499712  0.09210455  1  -0.600459  0  -0.103324  -0.112373  0  1.365109  0
