# generated using pymatgen
data_NiH15C23(N2O3)2
_symmetry_space_group_name_H-M   'P 1'
_cell_length_a   7.41607972
_cell_length_b   9.81628960
_cell_length_c   15.66346122
_cell_angle_alpha   78.26050264
_cell_angle_beta   80.94603565
_cell_angle_gamma   70.41074598
_symmetry_Int_Tables_number   1
_chemical_formula_structural   NiH15C23(N2O3)2
_chemical_formula_sum   'Ni2 H30 C46 N8 O12'
_cell_volume   1046.88130870
_cell_formula_units_Z   2
loop_
 _symmetry_equiv_pos_site_id
 _symmetry_equiv_pos_as_xyz
  1  'x, y, z'
loop_
 _atom_site_type_symbol
 _atom_site_label
 _atom_site_symmetry_multiplicity
 _atom_site_fract_x
 _atom_site_fract_y
 _atom_site_fract_z
 _atom_site_occupancy
 _atom_site_hle17_ddec_charge
 _atom_site_hle17_ddec_spin_density
 _atom_site_hle17_ddec_sum_bond_order
 _atom_site_hle17_magmom
 _atom_site_hse06_10hf_ddec_charge
 _atom_site_hse06_10hf_ddec_spin_density
 _atom_site_hse06_10hf_ddec_sum_bond_order
 _atom_site_hse06_10hf_magmom
 _atom_site_hse06_ddec_charge
 _atom_site_hse06_ddec_spin_density
 _atom_site_hse06_ddec_sum_bond_order
 _atom_site_hse06_magmom
 _atom_site_pbe_cm5_charge
 _atom_site_pbe_ddec_charge
 _atom_site_pbe_ddec_spin_density
 _atom_site_pbe_ddec_sum_bond_order
 _atom_site_pbe_magmom
Ni  Ni0  1  0.48321946  0.38807653  0.26105012  1  0.740475  1.878451  2.164481  1.476  0.730214  1.866955  2.569041  1.587  0.821921  1.93135  2.493574  1.682  0.669565  0.66789  1.809574  2.622305  1.504
Ni  Ni1  1  0.51680386  0.61191478  0.73894690  1  0.740289  -1.878458  2.164484  -1.476  0.729979  -1.866963  2.568908  -1.587  0.821574  -1.931348  2.493599  -1.682  0.669458  0.667652  -1.809589  2.622237  -1.504
H  H2  1  0.76426922  0.53246975  0.29741645  1  0.090379  0.001035  0.932677  0.002  0.100057  0.000828  0.991574  0.001  0.102732  0.00059  0.988718  0.001  0.124928  0.097646  0.001063  0.994344  0.002
H  H3  1  0.23574275  0.46751603  0.70258213  1  0.090357  -0.001035  0.932818  -0.002  0.100028  -0.000828  0.991702  -0.001  0.102715  -0.00059  0.988831  -0.001  0.124963  0.097622  -0.001063  0.994469  -0.002
H  H4  1  0.93603613  0.51708872  0.42667328  1  0.104602  0.000313  0.95438  0.0  0.117122  0.000384  1.01093  0.0  0.119801  0.000267  1.010781  0.0  0.10877  0.115009  0.0005  1.011521  0.0
H  H5  1  0.06393985  0.48294083  0.57332371  1  0.104629  -0.000313  0.954342  0.0  0.117142  -0.000384  1.0109  0.0  0.119826  -0.000267  1.010756  0.0  0.10875  0.11503  -0.000501  1.011492  0.0
H  H6  1  0.84674509  0.37166789  0.57219616  1  0.105368  0.000171  0.960902  0.001  0.116502  -0.000117  1.020977  0.0  0.12043  -4.8e-05  1.017113  0.0  0.107269  0.113328  -0.000198  1.024078  0.0
H  H7  1  0.15321956  0.62838247  0.42781371  1  0.10534  -0.000172  0.961065  -0.001  0.116463  0.000117  1.021155  0.0  0.120382  4.8e-05  1.017301  0.0  0.107264  0.113294  0.000198  1.024239  0.0
H  H8  1  0.60926846  0.24418292  0.57766589  1  0.106973  0.000405  0.943066  0.0  0.119059  0.000446  0.998968  0.001  0.122089  0.000311  0.99843  0.0  0.110988  0.116862  0.00059  0.999444  0.001
H  H9  1  0.39070356  0.75583344  0.42235096  1  0.107094  -0.000404  0.943378  0.0  0.119245  -0.000446  0.999154  -0.001  0.122273  -0.000311  0.998614  0.0  0.111062  0.117067  -0.00059  0.9996  -0.001
H  H10  1  0.37577425  0.16435061  0.57427971  1  0.111083  0.000428  0.935673  0.0  0.124277  0.00048  0.98809  0.001  0.127592  0.000331  0.987186  0.0  0.113061  0.121764  0.000649  0.989215  0.001
H  H11  1  0.62425644  0.83566266  0.42573884  1  0.111059  -0.000429  0.936016  0.0  0.12427  -0.00048  0.988398  -0.001  0.127568  -0.000331  0.987515  0.0  0.113076  0.121794  -0.000648  0.989478  -0.001
H  H12  1  0.15588554  0.03700590  0.55383090  1  0.113297  0.000231  0.98103  0.001  0.122844  -8.1e-05  1.042355  0.0  0.12693  -6.1e-05  1.038097  0.0  0.10812  0.119733  -0.000101  1.045504  0.0
H  H13  1  0.84410393  0.96299185  0.44621255  1  0.11302  -0.00023  0.981704  -0.001  0.122794  8.1e-05  1.042698  0.0  0.126866  6.1e-05  1.038468  0.0  0.108085  0.11969  0.000101  1.045831  0.0
H  H14  1  0.08155980  0.04647655  0.39761679  1  0.109725  0.000311  0.972969  0.0  0.117714  0.000378  1.035944  0.0  0.121222  0.000268  1.034831  0.0  0.105936  0.115052  0.000497  1.036994  0.001
H  H15  1  0.91845241  0.95349276  0.60241772  1  0.109764  -0.000312  0.97302  0.0  0.117667  -0.000378  1.036051  0.0  0.121173  -0.000268  1.034938  0.0  0.105884  0.115011  -0.000497  1.037097  -0.001
H  H16  1  0.24209114  0.18019667  0.27452141  1  0.083969  0.001203  0.94226  0.002  0.091477  0.000987  1.003879  0.001  0.093417  0.000696  1.002688  0.001  0.120893  0.089641  0.001281  1.005372  0.002
H  H17  1  0.75792922  0.81977925  0.72550972  1  0.08419  -0.001205  0.941939  -0.002  0.091631  -0.000988  1.0036  -0.001  0.093588  -0.000697  1.002429  -0.001  0.120877  0.089797  -0.001283  1.005096  -0.002
H  H18  1  0.54037957  0.34377254  0.07214256  1  0.090703  0.000773  0.938421  0.002  0.098167  0.000546  1.002945  0.001  0.101028  0.000376  1.00018  0.001  0.119034  0.095858  0.000723  1.005375  0.001
H  H19  1  0.45961424  0.65623074  0.92786538  1  0.090843  -0.000774  0.93821  -0.002  0.098248  -0.000547  1.002811  -0.001  0.101109  -0.000377  1.000048  -0.001  0.119078  0.095935  -0.000724  1.005235  -0.001
H  H20  1  0.33317905  0.41529458  0.94969926  1  0.121782  0.000115  0.987148  0.0  0.12874  0.000203  1.052508  0.0  0.133143  0.000179  1.05016  0.0  0.108793  0.125376  0.000215  1.054488  0.0
H  H21  1  0.66684466  0.58470881  0.05029044  1  0.121745  -0.000115  0.987372  0.0  0.128774  -0.000203  1.05263  0.0  0.13318  -0.000179  1.050272  0.0  0.108859  0.125407  -0.000215  1.054619  0.0
H  H22  1  0.84080644  0.52185617  0.14296800  1  0.124369  9.2e-05  0.968595  0.0  0.13242  0.000219  1.031404  0.0  0.136501  0.000123  1.028827  0.0  0.111701  0.12921  0.000321  1.03378  0.0
H  H23  1  0.15919139  0.47814383  0.85702601  1  0.124369  -9.1e-05  0.968558  0.0  0.132368  -0.00022  1.031421  0.0  0.136448  -0.000123  1.028846  0.0  0.111726  0.129162  -0.000322  1.033791  0.0
H  H24  1  0.07138539  0.45423623  0.25405108  1  0.069769  0.000716  0.97101  0.002  0.074842  0.000646  1.042848  0.001  0.076553  0.000457  1.041051  0.001  0.112494  0.073662  0.000823  1.044313  0.001
H  H25  1  0.92861068  0.54574840  0.74594885  1  0.069746  -0.000717  0.971039  -0.002  0.074815  -0.000647  1.042888  -0.001  0.076525  -0.000458  1.041095  -0.001  0.112444  0.073639  -0.000824  1.044351  -0.001
H  H26  1  0.42510581  0.80245406  0.05385967  1  0.11793  0.00017  0.95692  0.0  0.122239  0.000125  1.028287  0.0  0.126238  7.4e-05  1.024478  0.0  0.114699  0.119387  0.00018  1.030982  0.0
H  H27  1  0.57487556  0.19755247  0.94612006  1  0.117882  -0.000169  0.956842  0.0  0.122175  -0.000125  1.028233  0.0  0.126181  -7.4e-05  1.024438  0.0  0.114673  0.119324  -0.00018  1.030921  0.0
H  H28  1  0.95836021  0.20554912  0.06693514  1  0.123093  0.000324  0.949083  0.0  0.127268  0.000239  1.019731  0.0  0.131477  0.000148  1.016225  0.0  0.113176  0.124511  0.000331  1.021666  0.0
H  H29  1  0.04165126  0.79443777  0.93305568  1  0.123104  -0.000324  0.949075  0.0  0.127317  -0.000239  1.019704  0.0  0.131525  -0.000148  1.016201  0.0  0.113154  0.124557  -0.000331  1.021652  0.0
H  H30  1  0.04891021  0.86524272  0.29186726  1  0.106655  0.000244  0.94583  0.0  0.113411  0.000242  1.012549  0.0  0.117986  0.000151  1.008  0.0  0.107572  0.110414  0.000355  1.015404  0.0
H  H31  1  0.95106126  0.13476816  0.70813054  1  0.106659  -0.000245  0.945981  0.0  0.113427  -0.000243  1.012683  0.0  0.11799  -0.000151  1.008147  0.0  0.107587  0.110429  -0.000356  1.015538  0.0
C  C32  1  0.82357994  0.13702748  0.24145216  1  0.629778  -0.004682  3.924422  -0.009  0.589712  -0.000922  4.2245  -0.003  0.626981  -0.000885  4.218674  -0.003  0.201541  0.563697  -0.000847  4.226863  -0.004
C  C33  1  0.17645479  0.86293644  0.75854303  1  0.629109  0.004685  3.92495  0.009  0.588923  0.000923  4.225208  0.003  0.626195  0.000884  4.21939  0.003  0.201233  0.562908  0.000848  4.227564  0.004
C  C34  1  0.73884125  0.46715828  0.36052629  1  0.130086  -0.009538  3.689988  -0.012  0.101637  -0.002156  3.948096  -0.004  0.111435  -0.002347  3.963937  -0.004  0.052983  0.094114  -0.002136  3.939186  -0.004
C  C35  1  0.26115389  0.53282525  0.63947003  1  0.130236  0.009544  3.689807  0.012  0.101786  0.002154  3.947869  0.004  0.111569  0.002347  3.96371  0.004  0.053077  0.094269  0.002135  3.938955  0.004
C  C36  1  0.83067266  0.45971794  0.43311044  1  -0.125346  0.008167  3.738579  0.01  -0.139954  0.002708  3.994494  0.004  -0.147524  0.002552  4.015554  0.003  -0.084894  -0.135078  0.002896  3.981519  0.004
C  C37  1  0.16934831  0.54027886  0.56687457  1  -0.125344  -0.008177  3.738253  -0.01  -0.139925  -0.002707  3.994147  -0.004  -0.147503  -0.002553  4.015222  -0.003  -0.084935  -0.135051  -0.002895  3.981174  -0.004
C  C38  1  0.78391874  0.37849272  0.51247502  1  -0.003582  -0.010194  3.720961  -0.011  -0.025416  -0.003236  3.975832  -0.003  -0.020169  -0.002758  3.991892  -0.003  -0.068455  -0.029592  -0.004079  3.966205  -0.004
C  C39  1  0.21608130  0.62153802  0.48751680  1  -0.00358  0.010199  3.721224  0.011  -0.025469  0.003234  3.976221  0.003  -0.020221  0.002757  3.992269  0.003  -0.068473  -0.029642  0.004077  3.966593  0.004
C  C40  1  0.64871638  0.30702560  0.51614922  1  -0.129787  0.006494  3.688347  0.007  -0.148233  0.001921  3.936035  0.002  -0.155373  0.001874  3.9563  0.002  -0.074394  -0.143446  0.002054  3.923161  0.002
C  C41  1  0.35127553  0.69299194  0.48384810  1  -0.129962  -0.006501  3.689304  -0.007  -0.148472  -0.001918  3.936968  -0.002  -0.155575  -0.001873  3.957238  -0.002  -0.074423  -0.143697  -0.002053  3.92411  -0.002
C  C42  1  0.56514529  0.31674607  0.44021560  1  0.18178  -0.00622  3.749443  -0.007  0.178998  -0.000842  3.993468  -0.002  0.18748  -0.001198  4.012171  -0.002  0.126354  0.172665  -0.0007  3.981974  -0.001
C  C43  1  0.43485296  0.68327259  0.55977663  1  0.181867  0.006231  3.749479  0.007  0.179073  0.000842  3.993393  0.002  0.187467  0.001198  4.012214  0.002  0.126348  0.172717  0.000701  3.981936  0.001
C  C44  1  0.42496757  0.24243773  0.43565732  1  0.17202  -0.008007  3.746652  -0.01  0.168257  -0.001302  3.993264  -0.002  0.176818  -0.001573  4.011978  -0.003  0.120838  0.161739  -0.001343  3.982197  -0.002
C  C45  1  0.57505527  0.75755468  0.56433640  1  0.171752  0.007998  3.746556  0.01  0.168089  0.001304  3.992906  0.002  0.176653  0.001574  4.011609  0.003  0.120723  0.161599  0.001346  3.98185  0.002
C  C46  1  0.34214273  0.16814481  0.50844304  1  -0.133971  0.008297  3.701203  0.01  -0.1518  0.002384  3.948107  0.003  -0.158967  0.00225  3.967783  0.003  -0.075721  -0.147333  0.002706  3.937025  0.003
C  C47  1  0.65787193  0.83187719  0.49155837  1  -0.133564  -0.00828  3.70142  -0.01  -0.151511  -0.002384  3.948387  -0.003  -0.158659  -0.002249  3.96806  -0.003  -0.075453  -0.147077  -0.002706  3.937284  -0.003
C  C48  1  0.21693583  0.09627382  0.49647076  1  -0.010971  -0.01258  3.714106  -0.013  -0.031076  -0.003993  3.964432  -0.004  -0.025619  -0.003377  3.979854  -0.004  -0.07101  -0.035393  -0.005129  3.955511  -0.005
C  C49  1  0.78306626  0.90371631  0.50354845  1  -0.010859  0.012559  3.715031  0.013  -0.031146  0.00399  3.96539  0.004  -0.025693  0.003374  3.980801  0.004  -0.071151  -0.035459  0.005126  3.956474  0.005
C  C50  1  0.17962089  0.09886285  0.41155539  1  -0.119507  0.010252  3.725135  0.012  -0.131319  0.003217  3.97459  0.004  -0.139029  0.002972  3.994891  0.004  -0.083309  -0.126666  0.003585  3.962055  0.005
C  C51  1  0.82037711  0.90112726  0.58846413  1  -0.119453  -0.01024  3.725008  -0.012  -0.131145  -0.003217  3.974465  -0.004  -0.138849  -0.002972  3.994782  -0.004  -0.08308  -0.126494  -0.003585  3.961924  -0.005
C  C52  1  0.26603259  0.17581679  0.34200948  1  0.132558  -0.011771  3.686874  -0.014  0.104256  -0.002879  3.944439  -0.004  0.114452  -0.002972  3.96028  -0.005  0.052652  0.096794  -0.003006  3.935282  -0.004
C  C53  1  0.73399729  0.82415258  0.65801538  1  0.132235  0.01176  3.687039  0.014  0.103895  0.00288  3.94451  0.004  0.114016  0.002974  3.960386  0.005  0.052547  0.096451  0.003007  3.935362  0.004
C  C54  1  0.38434048  0.38541402  0.08373407  1  0.138675  -0.010455  3.675245  -0.012  0.111438  -0.002155  3.929597  -0.003  0.120811  -0.00271  3.946664  -0.004  0.049246  0.104473  -0.001855  3.919477  -0.003
C  C55  1  0.61564786  0.61456949  0.91626595  1  0.138611  0.010452  3.675216  0.012  0.111401  0.002154  3.929642  0.003  0.120741  0.00271  3.946691  0.004  0.049285  0.104452  0.001856  3.919504  0.003
C  C56  1  0.26631174  0.42484641  0.01628265  1  -0.164628  0.012101  3.675866  0.014  -0.183798  0.003538  3.923109  0.004  -0.191712  0.003524  3.942361  0.004  -0.083562  -0.178796  0.003807  3.911249  0.005
C  C57  1  0.73367878  0.57516454  0.98370987  1  -0.164424  -0.0121  3.67612  -0.014  -0.183675  -0.003533  3.923308  -0.004  -0.191585  -0.003522  3.942555  -0.004  -0.083662  -0.178674  -0.003807  3.911449  -0.005
C  C58  1  0.06549786  0.47707986  0.03482652  1  0.098938  -0.011559  3.738013  -0.014  0.110845  -0.003373  3.967495  -0.004  0.115675  -0.003326  3.986904  -0.004  0.013884  0.107004  -0.003713  3.955233  -0.004
C  C59  1  0.93448219  0.52293983  0.96516504  1  0.098614  0.011562  3.738216  0.014  0.110641  0.003369  3.967578  0.004  0.11547  0.003325  3.986985  0.004  0.013811  0.106801  0.003716  3.955318  0.004
C  C60  1  0.99413492  0.48404005  0.12286457  1  -0.131665  0.011941  3.676182  0.014  -0.15039  0.003629  3.921614  0.005  -0.156217  0.003558  3.938943  0.004  -0.075988  -0.146915  0.003969  3.910783  0.005
C  C61  1  0.00585424  0.51597090  0.87712614  1  -0.131518  -0.011945  3.675837  -0.014  -0.150193  -0.003627  3.921185  -0.005  -0.156023  -0.003559  3.938531  -0.004  -0.075948  -0.146723  -0.003971  3.910365  -0.005
C  C62  1  0.12191677  0.44488172  0.18580004  1  0.11132  -0.009477  3.723482  -0.011  0.084017  -0.001547  3.979863  -0.003  0.092122  -0.002193  3.998649  -0.003  0.038976  0.078339  -0.001216  3.967643  -0.002
C  C63  1  0.87806700  0.55509958  0.81419423  1  0.111319  0.009478  3.723588  0.011  0.084015  0.001549  3.979971  0.003  0.092087  0.002196  3.998736  0.003  0.039045  0.078331  0.00122  3.967765  0.002
C  C64  1  0.34950585  0.66326180  0.21870829  1  0.614656  -0.005609  3.899052  -0.01  0.572538  -0.000753  4.193249  -0.004  0.608337  -0.000855  4.191764  -0.003  0.19597  0.547721  -0.000483  4.191802  -0.004
C  C65  1  0.65048705  0.33673708  0.78129836  1  0.615017  0.005617  3.897987  0.01  0.572828  0.000755  4.192303  0.004  0.608651  0.00086  4.19079  0.003  0.196124  0.548008  0.000485  4.190863  0.004
C  C66  1  0.25001054  0.81695118  0.17808141  1  -0.047621  0.004708  3.745691  0.005  -0.018304  0.002283  3.975383  0.003  -0.027603  0.001612  3.99653  0.002  -0.01122  -0.01283  0.003005  3.961194  0.003
C  C67  1  0.74995897  0.18305751  0.82189384  1  -0.047679  -0.004706  3.746077  -0.005  -0.018417  -0.002281  3.975923  -0.003  -0.027748  -0.001612  3.997073  -0.002  -0.011248  -0.012933  -0.003  3.961733  -0.003
C  C68  1  0.30380240  0.86921696  0.09140020  1  -0.065383  -0.002613  3.665678  -0.003  -0.109035  -0.000316  3.922313  0.0  -0.103542  -0.000366  3.936999  0.0  -0.065724  -0.112103  -0.000355  3.911961  0.0
C  C69  1  0.69618391  0.13080056  0.90857137  1  -0.065368  0.002615  3.66547  0.003  -0.108949  0.000318  3.922054  0.0  -0.103458  0.000367  3.936751  0.0  -0.065727  -0.112016  0.000357  3.911708  0.0
C  C70  1  0.19617981  0.00793471  0.05305887  1  0.055064  0.00147  3.707484  0.002  0.05254  0.000229  3.968296  0.0  0.046761  0.000269  3.991876  0.0  0.07129  0.056136  0.000264  3.952338  0.0
C  C71  1  0.80380080  0.99207729  0.94694959  1  0.05501  -0.001473  3.706889  -0.002  0.052492  -0.000231  3.967687  0.0  0.046709  -0.000267  3.991268  0.0  0.071354  0.056076  -0.000264  3.951753  0.0
C  C72  1  0.04020664  0.09815749  0.09888189  1  -0.082055  -0.002637  3.671802  -0.003  -0.124685  -0.00038  3.930531  -0.001  -0.120258  -0.000431  3.947581  -0.001  -0.069907  -0.127062  -0.000262  3.918459  -0.001
C  C73  1  0.95980265  0.90183157  0.90112541  1  -0.082105  0.002639  3.67191  0.003  -0.124783  0.000383  3.930643  0.001  -0.120356  0.000432  3.947694  0.001  -0.069847  -0.127162  0.000264  3.918579  0.001
C  C74  1  0.98994728  0.04677878  0.18637655  1  -0.050819  0.009256  3.724449  0.011  -0.024052  0.00438  3.957751  0.006  -0.034253  0.003047  3.980055  0.004  -0.01233  -0.01758  0.00581  3.942844  0.007
C  C75  1  0.01010934  0.95317534  0.81362973  1  -0.050405  -0.009258  3.723583  -0.011  -0.023582  -0.004381  3.956902  -0.006  -0.033785  -0.003049  3.979203  -0.004  -0.012243  -0.017106  -0.005808  3.941992  -0.007
C  C76  1  0.09374008  0.90601595  0.22469875  1  -0.037184  -0.001657  3.661781  -0.002  -0.079392  0.000467  3.908561  0.001  -0.074933  0.000131  3.925025  0.0  -0.063785  -0.081662  0.000687  3.896868  0.001
C  C77  1  0.90626327  0.09396431  0.77530119  1  -0.037481  0.001666  3.660746  0.002  -0.0797  -0.000465  3.907622  -0.001  -0.075215  -0.000129  3.92408  0.0  -0.06385  -0.081975  -0.000685  3.895934  -0.001
N  N78  1  0.61183664  0.39595939  0.36370884  1  -0.291826  0.057981  3.330259  0.082  -0.252253  0.038103  3.611414  0.056  -0.278489  0.031366  3.629292  0.047  -0.321697  -0.235368  0.04372  3.600922  0.062
N  N79  1  0.38814067  0.60404383  0.63627609  1  -0.291914  -0.057998  3.3295  -0.082  -0.252317  -0.038106  3.610569  -0.056  -0.278527  -0.031366  3.628521  -0.047  -0.321699  -0.235423  -0.043728  3.600085  -0.062
N  N80  1  0.24836868  0.05908041  0.96030089  1  0.49731  1e-06  3.908097  0.0  0.526273  2.6e-05  4.206519  0.0  0.547211  8e-06  4.215583  0.0  0.055216  0.512063  7.7e-05  4.200767  0.0
N  N81  1  0.75161191  0.94093160  0.03970310  1  0.497624  3e-06  3.908674  0.0  0.526594  -2.5e-05  4.207045  0.0  0.547531  -6e-06  4.216102  0.0  0.055176  0.51239  -7.7e-05  4.201296  0.0
N  N82  1  0.38222509  0.24849906  0.35358260  1  -0.295495  0.065477  3.312102  0.093  -0.258479  0.042743  3.600734  0.062  -0.285236  0.034632  3.616428  0.052  -0.321102  -0.241212  0.049849  3.591503  0.071
N  N83  1  0.61781454  0.75150218  0.64640744  1  -0.295382  -0.065473  3.312377  -0.093  -0.258196  -0.042741  3.600718  -0.062  -0.284868  -0.034626  3.616363  -0.052  -0.321045  -0.240977  -0.049851  3.591529  -0.071
N  N84  1  0.31427844  0.39699456  0.16747908  1  -0.286986  0.061146  3.331717  0.086  -0.239003  0.038259  3.609458  0.056  -0.266547  0.031568  3.629909  0.047  -0.33488  -0.220865  0.04384  3.596732  0.062
N  N85  1  0.68572314  0.60297692  0.83252786  1  -0.287179  -0.061155  3.332294  -0.086  -0.239229  -0.038267  3.610061  -0.056  -0.266674  -0.031574  3.630426  -0.047  -0.335017  -0.221087  -0.043849  3.597337  -0.062
O  O86  1  0.71651720  0.25692751  0.19992593  1  -0.583343  0.077798  2.068887  0.116  -0.567996  0.046066  2.354823  0.074  -0.6122  0.033209  2.347867  0.055  -0.315991  -0.533909  0.058266  2.356632  0.09
O  O87  1  0.28350658  0.74302321  0.80006028  1  -0.582944  -0.077759  2.069076  -0.116  -0.56751  -0.046052  2.355039  -0.074  -0.611679  -0.033203  2.348059  -0.055  -0.315792  -0.533434  -0.058242  2.35687  -0.09
O  O88  1  0.15002249  0.18184622  0.92608673  1  -0.364547  0.000198  1.760334  0.0  -0.349682  3.4e-05  1.972876  0.0  -0.362571  3.3e-05  1.972011  0.0  -0.130441  -0.340903  3.4e-05  1.973407  0.0
O  O89  1  0.84995661  0.81818554  0.07390016  1  -0.364528  -0.000199  1.760532  0.0  -0.3497  -3.4e-05  1.973138  0.0  -0.362585  -3.6e-05  1.972273  0.0  -0.130364  -0.340918  -3.3e-05  1.973656  0.0
O  O90  1  0.38720379  0.97617030  0.92096220  1  -0.363621  0.000224  1.748466  0.0  -0.349075  3.3e-05  1.955806  0.0  -0.361597  4.7e-05  1.95362  0.0  -0.133216  -0.340796  6.8e-05  1.957595  0.0
O  O91  1  0.61279677  0.02383959  0.07903417  1  -0.363789  -0.000226  1.748961  0.0  -0.349247  -3.4e-05  1.956306  0.0  -0.361767  -5e-05  1.954119  0.0  -0.133211  -0.340971  -6.9e-05  1.958094  0.0
O  O92  1  0.51272516  0.59177932  0.18373191  1  -0.582696  0.05179  1.987701  0.076  -0.552658  0.034103  2.240437  0.052  -0.590192  0.025127  2.234658  0.04  -0.305173  -0.523621  0.042992  2.242138  0.064
O  O93  1  0.48724355  0.40822826  0.81626078  1  -0.582705  -0.051781  1.98754  -0.076  -0.552581  -0.034101  2.240226  -0.052  -0.590074  -0.025127  2.234374  -0.04  -0.30516  -0.523545  -0.042987  2.241937  -0.064
O  O94  1  0.26365245  0.60275025  0.28501096  1  -0.598094  0.050613  1.95959  0.074  -0.571438  0.036298  2.208138  0.056  -0.60996  0.026124  2.204305  0.041  -0.309327  -0.540441  0.04661  2.207698  0.07
O  O95  1  0.73631888  0.39727381  0.71496920  1  -0.598359  -0.050643  1.958547  -0.074  -0.571674  -0.036309  2.207134  -0.056  -0.610198  -0.026136  2.20328  -0.041  -0.309505  -0.54067  -0.046621  2.206715  -0.07
O  O96  1  0.80319276  0.08964336  0.32168913  1  -0.613193  -0.000867  1.963009  0.0  -0.578871  -0.000695  2.190887  0.0  -0.605193  -0.000914  2.18555  -0.001  -0.323856  -0.558574  -0.000282  2.19311  0.001
O  O97  1  0.19685786  0.91036780  0.67831605  1  -0.612977  0.000868  1.963214  0.0  -0.578614  0.000695  2.191177  0.0  -0.604926  0.000915  2.185822  0.001  -0.323801  -0.558322  0.000283  2.193412  -0.001
