# generated using pymatgen
data_CdH16C19N2(ClO2)2
_symmetry_space_group_name_H-M   'P 1'
_cell_length_a   7.88503649
_cell_length_b   10.67433641
_cell_length_c   13.03111306
_cell_angle_alpha   111.53046922
_cell_angle_beta   93.20256368
_cell_angle_gamma   97.85704363
_symmetry_Int_Tables_number   1
_chemical_formula_structural   CdH16C19N2(ClO2)2
_chemical_formula_sum   'Cd2 H32 C38 N4 Cl4 O8'
_cell_volume   1003.97340029
_cell_formula_units_Z   2
loop_
 _symmetry_equiv_pos_site_id
 _symmetry_equiv_pos_as_xyz
  1  'x, y, z'
loop_
 _atom_site_type_symbol
 _atom_site_label
 _atom_site_symmetry_multiplicity
 _atom_site_fract_x
 _atom_site_fract_y
 _atom_site_fract_z
 _atom_site_occupancy
 _atom_site_hle17_bader_spin_density
 _atom_site_hle17_ddec_charge
 _atom_site_hle17_ddec_spin_density
 _atom_site_hle17_ddec_sum_bond_order
 _atom_site_hle17_magmom
 _atom_site_hse06_10hf_bader_spin_density
 _atom_site_hse06_10hf_ddec_charge
 _atom_site_hse06_10hf_ddec_spin_density
 _atom_site_hse06_10hf_ddec_sum_bond_order
 _atom_site_hse06_10hf_magmom
 _atom_site_hse06_bader_spin_density
 _atom_site_hse06_ddec_charge
 _atom_site_hse06_ddec_spin_density
 _atom_site_hse06_ddec_sum_bond_order
 _atom_site_hse06_magmom
 _atom_site_pbe_bader_spin_density
 _atom_site_pbe_cm5_charge
 _atom_site_pbe_ddec_charge
 _atom_site_pbe_ddec_spin_density
 _atom_site_pbe_ddec_sum_bond_order
 _atom_site_pbe_magmom
Cd  Cd0  1  0.26410454  0.98934929  0.99993923  1  0  1.184661  0  1.626869  0  0  0.998925  0  2.07525  0  0  1.057786  0  2.020258  0  0  0.785214  0.956913  0  2.113033  0
Cd  Cd1  1  0.73589286  0.01064659  0.00006130  1  0  1.184674  0  1.626801  0  0  0.998938  0  2.075193  0  0  1.057799  0  2.020201  0  0  0.785198  0.956925  0  2.112979  0
H  H2  1  0.33800308  0.49790341  0.97161525  1  0  0.138869  0  0.971639  0  0  0.149659  0  1.030834  0  0  0.152645  0  1.030792  0  0  0.107038  0.147601  0  1.03093  0
H  H3  1  0.66200352  0.50209354  0.02838889  1  0  0.138849  0  0.971538  0  0  0.149611  0  1.030794  0  0  0.152583  0  1.030781  0  0  0.10702  0.147555  0  1.030888  0
H  H4  1  0.18425338  0.86020931  0.70545869  1  0  0.106109  0  0.943158  0  0  0.114913  0  1.003835  0  0  0.11813  0  1.001688  0  0  0.102901  0.112545  0  1.005527  0
H  H5  1  0.81574909  0.13979271  0.29454381  1  0  0.106151  0  0.943263  0  0  0.114964  0  1.003907  0  0  0.11818  0  1.001764  0  0  0.10294  0.112595  0  1.005599  0
H  H6  1  0.64883351  0.83727422  0.73288042  1  0  0.101429  0  0.962152  0  0  0.110342  0  1.025913  0  0  0.113287  0  1.02386  0  0  0.099694  0.108193  0  1.02751  0
H  H7  1  0.35115395  0.16272263  0.26712094  1  0  0.101425  0  0.962144  0  0  0.110296  0  1.025975  0  0  0.113238  0  1.023925  0  0  0.099671  0.108164  0  1.027548  0
H  H8  1  0.93230069  0.20619851  0.75364671  1  0  0.101021  0  0.954876  0  0  0.11205  0  1.014686  0  0  0.115168  0  1.012373  0  0  0.107471  0.109789  0  1.016384  0
H  H9  1  0.06770122  0.79380658  0.24635901  1  0  0.100985  0  0.954874  0  0  0.11201  0  1.014689  0  0  0.115128  0  1.012377  0  0  0.107455  0.10975  0  1.016387  0
H  H10  1  0.34238525  0.49883897  0.77547219  1  0  0.097854  0  0.948084  0  0  0.108914  0  1.008894  0  0  0.11202  0  1.006789  0  0  0.105977  0.106723  0  1.010387  0
H  H11  1  0.65760435  0.50115073  0.22452016  1  0  0.097885  0  0.948138  0  0  0.108924  0  1.008954  0  0  0.112032  0  1.006847  0  0  0.106011  0.106725  0  1.010464  0
H  H12  1  0.60531367  0.25854417  0.92169308  1  0  0.129112  0  0.94723  0  0  0.148515  0  1.00917  0  0  0.150858  0  1.007668  0  0  0.094872  0.146824  0  1.01028  0
H  H13  1  0.39469235  0.74146297  0.07830951  1  0  0.129084  0  0.947291  0  0  0.148521  0  1.009188  0  0  0.150862  0  1.007689  0  0  0.094867  0.146833  0  1.010288  0
H  H14  1  0.47572933  0.27863735  0.81478586  1  0  0.116319  0  0.944395  0  0  0.140287  0  0.999708  0  0  0.141227  0  1.000559  0  0  0.091868  0.139605  0  0.999114  0
H  H15  1  0.52427584  0.72137183  0.18521733  1  0  0.116369  0  0.944379  0  0  0.140345  0  0.999682  0  0  0.141286  0  1.000532  0  0  0.09188  0.139663  0  0.999092  0
H  H16  1  0.44699034  0.12088030  0.83458808  1  0  0.129386  0  0.95623  0  0  0.147735  0  1.018995  0  0  0.149618  0  1.018602  0  0  0.093049  0.146326  0  1.019408  0
H  H17  1  0.55302007  0.87912379  0.16541139  1  0  0.129437  0  0.956187  0  0  0.14776  0  1.01898  0  0  0.149642  0  1.018589  0  0  0.093071  0.146353  0  1.019385  0
H  H18  1  0.94350945  0.46539322  0.13771103  1  0  0.136703  0  0.951929  0  0  0.153335  0  1.016188  0  0  0.15644  0  1.013697  0  0  0.097585  0.151056  0  1.018038  0
H  H19  1  0.05649752  0.53460577  0.86229220  1  0  0.136758  0  0.951901  0  0  0.153342  0  1.016186  0  0  0.156443  0  1.013702  0  0  0.097596  0.151063  0  1.018043  0
H  H20  1  0.07425152  0.59301507  0.10493440  1  0  0.125839  0  0.948389  0  0  0.148327  0  1.002802  0  0  0.149735  0  1.002893  0  0  0.098879  0.147329  0  1.002731  0
H  H21  1  0.92575609  0.40698086  0.89506792  1  0  0.125844  0  0.948289  0  0  0.148306  0  1.002731  0  0  0.149716  0  1.00282  0  0  0.098877  0.147307  0  1.00266  0
H  H22  1  0.13753306  0.55817008  0.22362561  1  0  0.114232  0  0.955237  0  0  0.131472  0  1.020397  0  0  0.133042  0  1.020498  0  0  0.088711  0.130395  0  1.02028  0
H  H23  1  0.86247860  0.44182689  0.77637789  1  0  0.114257  0  0.955047  0  0  0.131481  0  1.020232  0  0  0.133048  0  1.020333  0  0  0.08869  0.130402  0  1.020114  0
H  H24  1  0.49988819  0.33686244  0.63886340  1  0  0.097382  0  0.98083  0  0  0.103609  0  1.049381  0  0  0.106973  0  1.047784  0  0  0.093744  0.101132  0  1.050771  0
H  H25  1  0.50010517  0.66313439  0.36112275  1  0  0.097441  0  0.980707  0  0  0.103658  0  1.049275  0  0  0.107024  0  1.047674  0  0  0.093718  0.101181  0  1.050671  0
H  H26  1  0.80779389  0.67692655  0.59696300  1  0  0.105006  0  0.953738  0  0  0.112228  0  1.018439  0  0  0.11575  0  1.016619  0  0  0.09743  0.109649  0  1.019957  0
H  H27  1  0.19219692  0.32308152  0.40303415  1  0  0.105079  0  0.953777  0  0  0.112267  0  1.018502  0  0  0.115788  0  1.016682  0  0  0.097474  0.10969  0  1.020013  0
H  H28  1  0.33198142  0.90291549  0.55351579  1  0  0.093749  0  0.997513  0  0  0.0953  0  1.074697  0  0  0.099068  0  1.072307  0  0  0.086577  0.092515  0  1.076679  0
H  H29  1  0.66802036  0.09708959  0.44648609  1  0  0.093732  0  0.997547  0  0  0.095297  0  1.074711  0  0  0.099067  0  1.072323  0  0  0.08657  0.092512  0  1.07669  0
H  H30  1  0.08404908  0.25376833  0.60481817  1  0  0.106346  0  0.945772  0  0  0.115358  0  1.007209  0  0  0.118756  0  1.005866  0  0  0.101325  0.11286  0  1.008375  0
H  H31  1  0.91595152  0.74623675  0.39518675  1  0  0.106351  0  0.945839  0  0  0.115364  0  1.007267  0  0  0.118761  0  1.005925  0  0  0.101341  0.112866  0  1.008437  0
H  H32  1  0.07821600  0.23524457  0.11070472  1  0  0.308637  0  0.909047  0  0  0.29007  0  0.970609  0  0  0.297445  0  0.964793  0  0  0.325454  0.284866  0  0.9748  0
H  H33  1  0.92178204  0.76474824  0.88929491  1  0  0.308796  0  0.908943  0  0  0.290096  0  0.970685  0  0  0.29747  0  0.964867  0  0  0.325485  0.2849  0  0.974873  0
C  C34  1  0.04997606  0.03125594  0.73893079  1  0  -0.080218  0  3.773065  0  0  -0.060439  0  4.012942  0  0  -0.069619  0  4.036459  0  0  -0.024634  -0.054481  0  3.997088  0
C  C35  1  0.95002646  0.96874609  0.26107325  1  0  -0.080181  0  3.773047  0  0  -0.060411  0  4.012937  0  0  -0.069593  0  4.036459  0  0  -0.024618  -0.054441  0  3.997067  0
C  C36  1  0.48707664  0.67814121  0.76317301  1  0  -0.072748  0  3.767374  0  0  -0.054091  0  4.008697  0  0  -0.06262  0  4.031451  0  0  -0.024728  -0.048686  0  3.993571  0
C  C37  1  0.51291394  0.32185258  0.23682521  1  0  -0.072637  0  3.767387  0  0  -0.053962  0  4.008696  0  0  -0.0625  0  4.031453  0  0  -0.024658  -0.048562  0  3.993576  0
C  C38  1  0.34565264  0.28268134  0.95524465  1  0  0.279456  0  3.773704  0  0  0.276355  0  4.041965  0  0  0.287417  0  4.061938  0  0  0.09564  0.269084  0  4.028191  0
C  C39  1  0.65435047  0.71731762  0.04475695  1  0  0.27937  0  3.773782  0  0  0.276269  0  4.042023  0  0  0.287334  0  4.061992  0  0  0.095583  0.268994  0  4.028253  0
C  C40  1  0.29409202  0.41186418  0.99432838  1  0  -0.353184  0  3.694938  0  0  -0.375824  0  3.948265  0  0  -0.38819  0  3.968454  0  0  -0.124069  -0.367774  0  3.934624  0
C  C41  1  0.70591151  0.58813683  0.00567385  1  0  -0.353096  0  3.694749  0  0  -0.375717  0  3.948123  0  0  -0.38808  0  3.968308  0  0  -0.124014  -0.367666  0  3.934476  0
C  C42  1  0.39831640  0.77503851  0.84793909  1  0  0.632976  0  3.921765  0  0  0.581155  0  4.214604  0  0  0.615745  0  4.209054  0  0  0.194355  0.557668  0  4.217514  0
C  C43  1  0.60167778  0.22495428  0.15205890  1  0  0.633007  0  3.921739  0  0  0.581147  0  4.214633  0  0  0.615744  0  4.209078  0  0  0.194353  0.557661  0  4.217542  0
C  C44  1  0.96127835  0.00455109  0.82865641  1  0  0.646566  0  3.915946  0  0  0.590058  0  4.216536  0  0  0.625555  0  4.209266  0  0  0.202141  0.565917  0  4.220734  0
C  C45  1  0.03872246  0.99544889  0.17134620  1  0  0.646619  0  3.915584  0  0  0.590116  0  4.216181  0  0  0.625612  0  4.208912  0  0  0.202159  0.565975  0  4.220374  0
C  C46  1  0.17351071  0.40731636  0.06792891  1  0  0.295883  0  3.733458  0  0  0.28697  0  3.996702  0  0  0.298412  0  4.01453  0  0  0.10656  0.279657  0  3.984277  0
C  C47  1  0.82649493  0.59268262  0.93207198  1  0  0.295929  0  3.733316  0  0  0.287046  0  3.9965  0  0  0.298489  0  4.014319  0  0  0.106628  0.279743  0  3.984077  0
C  C48  1  0.66351413  0.49861550  0.61195637  1  0  0.152787  0  3.794182  0  0  0.164565  0  4.055251  0  0  0.169061  0  4.077023  0  0  0.016786  0.16152  0  4.040416  0
C  C49  1  0.33647766  0.50138542  0.38803558  1  0  0.152663  0  3.794672  0  0  0.164516  0  4.055601  0  0  0.169012  0  4.077374  0  0  0.016776  0.16147  0  4.040769  0
C  C50  1  0.16244044  0.94563559  0.68260541  1  0  -0.043148  0  3.715385  0  0  -0.065219  0  3.963288  0  0  -0.063725  0  3.982517  0  0  -0.082011  -0.066021  0  3.95023  0
C  C51  1  0.83756243  0.05436848  0.31739695  1  0  -0.043259  0  3.715505  0  0  -0.065331  0  3.963413  0  0  -0.063837  0  3.982644  0  0  -0.082084  -0.066136  0  3.95035  0
C  C52  1  0.61717169  0.72749738  0.71191249  1  0  -0.050281  0  3.724348  0  0  -0.078651  0  3.983307  0  0  -0.076817  0  4.002468  0  0  -0.087511  -0.079598  0  3.970291  0
C  C53  1  0.38282135  0.27250254  0.28808533  1  0  -0.050345  0  3.724452  0  0  -0.0787  0  3.983423  0  0  -0.076861  0  4.002585  0  0  -0.087518  -0.079659  0  3.970388  0
C  C54  1  0.02176979  0.14167275  0.71025056  1  0  -0.03785  0  3.72259  0  0  -0.063239  0  3.972226  0  0  -0.061033  0  3.99112  0  0  -0.077924  -0.064403  0  3.959281  0
C  C55  1  0.97823167  0.85833029  0.28975376  1  0  -0.03782  0  3.722618  0  0  -0.063213  0  3.972275  0  0  -0.061  0  3.991156  0  0  -0.077885  -0.064381  0  3.959329  0
C  C56  1  0.44456909  0.53697693  0.73613819  1  0  -0.042358  0  3.719735  0  0  -0.066578  0  3.969339  0  0  -0.064879  0  3.988654  0  0  -0.07812  -0.067635  0  3.956315  0
C  C57  1  0.55542660  0.46301789  0.26385431  1  0  -0.042375  0  3.71962  0  0  -0.066581  0  3.96923  0  0  -0.064877  0  3.98854  0  0  -0.078205  -0.067635  0  3.956204  0
C  C58  1  0.47469641  0.23228399  0.87725671  1  0  -0.364137  0  3.70031  0  0  -0.442177  0  3.933672  0  0  -0.44568  0  3.940711  0  0  -0.241745  -0.439552  0  3.928793  0
C  C59  1  0.52531046  0.76772112  0.12274528  1  0  -0.364193  0  3.70035  0  0  -0.442262  0  3.933739  0  0  -0.445768  0  3.940781  0  0  -0.241745  -0.439632  0  3.928851  0
C  C60  1  0.07653517  0.51172065  0.13712004  1  0  -0.370034  0  3.706919  0  0  -0.443201  0  3.93719  0  0  -0.446972  0  3.943605  0  0  -0.235101  -0.440447  0  3.932648  0
C  C61  1  0.92347284  0.48827732  0.86288213  1  0  -0.370112  0  3.706575  0  0  -0.443211  0  3.936925  0  0  -0.446978  0  3.943342  0  0  -0.235103  -0.440457  0  3.932381  0
C  C62  1  0.53232041  0.44661594  0.66062950  1  0  -0.148813  0  3.767411  0  0  -0.168764  0  4.019027  0  0  -0.173888  0  4.040483  0  0  -0.100353  -0.165269  0  4.004561  0
C  C63  1  0.46766908  0.55337986  0.33936163  1  0  -0.148898  0  3.767474  0  0  -0.168869  0  4.019089  0  0  -0.173995  0  4.040544  0  0  -0.100348  -0.165378  0  4.004633  0
C  C64  1  0.70625710  0.63851884  0.63640795  1  0  -0.140209  0  3.758917  0  0  -0.16244  0  4.013434  0  0  -0.167025  0  4.034024  0  0  -0.101575  -0.159367  0  3.999495  0
C  C65  1  0.29372850  0.36148206  0.36358923  1  0  -0.140227  0  3.758841  0  0  -0.162435  0  4.013284  0  0  -0.167019  0  4.03387  0  0  -0.101585  -0.159363  0  3.999342  0
C  C66  1  0.21689667  0.08071474  0.57201248  1  0  0.146565  0  3.795596  0  0  0.157871  0  4.056832  0  0  0.162233  0  4.07911  0  0  0.016486  0.154828  0  4.04175  0
C  C67  1  0.78310499  0.91928933  0.42799216  1  0  0.146598  0  3.795595  0  0  0.157863  0  4.056886  0  0  0.162224  0  4.079166  0  0  0.016448  0.154819  0  4.041807  0
C  C68  1  0.24557702  0.96941641  0.59845212  1  0  -0.146445  0  3.7753  0  0  -0.166802  0  4.02728  0  0  -0.17179  0  4.048594  0  0  -0.102394  -0.163467  0  4.012987  0
C  C69  1  0.75442608  0.03058868  0.40155132  1  0  -0.146409  0  3.775311  0  0  -0.166758  0  4.027293  0  0  -0.171745  0  4.048603  0  0  -0.102355  -0.16342  0  4.012997  0
C  C70  1  0.10590474  0.16809783  0.62743463  1  0  -0.142839  0  3.753186  0  0  -0.161816  0  4.002801  0  0  -0.167012  0  4.024615  0  0  -0.097164  -0.158312  0  3.988088  0
C  C71  1  0.89409799  0.83190522  0.37256973  1  0  -0.142826  0  3.753207  0  0  -0.161795  0  4.002832  0  0  -0.16699  0  4.024645  0  0  -0.097163  -0.158293  0  3.988128  0
N  N72  1  0.15681558  0.28046971  0.06936229  1  0  -0.20995  0  3.476307  0  0  -0.156556  0  3.70831  0  0  -0.169318  0  3.728614  0  0  -0.290103  -0.14817  0  3.694555  0
N  N73  1  0.84318951  0.71952721  0.93063413  1  0  -0.210012  0  3.476424  0  0  -0.156582  0  3.708562  0  0  -0.169341  0  3.728862  0  0  -0.290175  -0.148227  0  3.694837  0
N  N74  1  0.25946491  0.20327826  0.00213722  1  0  -0.346992  0  3.158106  0  0  -0.291615  0  3.437874  0  0  -0.312497  0  3.458888  0  0  -0.267426  -0.277268  0  3.423337  0
N  N75  1  0.74054087  0.79671561  0.99785983  1  0  -0.347085  0  3.15833  0  0  -0.291669  0  3.438077  0  0  -0.312551  0  3.459087  0  0  -0.267427  -0.277306  0  3.423543  0
Cl  Cl76  1  0.32029274  0.10911508  0.46679428  1  0  -0.082172  0  1.402085  0  0  -0.057829  0  1.637368  0  0  -0.06294  0  1.633484  0  0  0.030701  -0.053963  0  1.640166  0
Cl  Cl77  1  0.67970361  0.89088793  0.53320915  1  0  -0.082194  0  1.402122  0  0  -0.057836  0  1.637418  0  0  -0.062945  0  1.633534  0  0  0.030724  -0.053965  0  1.640218  0
Cl  Cl78  1  0.77681619  0.38769025  0.51981986  1  0  -0.106234  0  1.32858  0  0  -0.084768  0  1.542046  0  0  -0.089223  0  1.537886  0  0  0.003402  -0.081309  0  1.545028  0
Cl  Cl79  1  0.22318056  0.61231681  0.48017021  1  0  -0.106193  0  1.328753  0  0  -0.084753  0  1.542196  0  0  -0.089207  0  1.538037  0  0  0.003394  -0.081294  0  1.545179  0
O  O80  1  0.45768583  0.90534434  0.87870760  1  0  -0.702914  0  2.058702  0  0  -0.619739  0  2.322427  0  0  -0.653354  0  2.311121  0  0  -0.343993  -0.59612  0  2.329384  0
O  O81  1  0.54231124  0.09464950  0.12129539  1  0  -0.702878  0  2.058738  0  0  -0.619712  0  2.322484  0  0  -0.653315  0  2.311146  0  0  -0.343959  -0.596095  0  2.329446  0
O  O82  1  0.01131580  0.91837665  0.86574899  1  0  -0.692718  0  2.073659  0  0  -0.628485  0  2.33572  0  0  -0.655624  0  2.322453  0  0  -0.335601  -0.609385  0  2.344121  0
O  O83  1  0.98868410  0.08161924  0.13425007  1  0  -0.692637  0  2.073487  0  0  -0.628479  0  2.335614  0  0  -0.655619  0  2.322344  0  0  -0.335594  -0.609384  0  2.344015  0
O  O84  1  0.27159451  0.73240018  0.88782342  1  0  -0.604664  0  1.920646  0  0  -0.549028  0  2.147099  0  0  -0.574244  0  2.138028  0  0  -0.31356  -0.531202  0  2.152536  0
O  O85  1  0.72839743  0.26759463  0.11217130  1  0  -0.604759  0  1.92068  0  0  -0.549097  0  2.147154  0  0  -0.574316  0  2.138079  0  0  -0.313587  -0.531266  0  2.152581  0
O  O86  1  0.83775870  0.06868423  0.86419829  1  0  -0.609021  0  1.9841  0  0  -0.540726  0  2.235189  0  0  -0.569903  0  2.223394  0  0  -0.315833  -0.520544  0  2.242666  0
O  O87  1  0.16224772  0.93131783  0.13580892  1  0  -0.609122  0  1.983977  0  0  -0.540789  0  2.235009  0  0  -0.569964  0  2.223212  0  0  -0.315919  -0.520612  0  2.24249  0
