# generated using pymatgen
data_AgH15C16N8O3
_symmetry_space_group_name_H-M   'P 1'
_cell_length_a   9.61207766
_cell_length_b   9.92975107
_cell_length_c   11.32677295
_cell_angle_alpha   103.79205865
_cell_angle_beta   98.60196256
_cell_angle_gamma   116.23411000
_symmetry_Int_Tables_number   1
_chemical_formula_structural   AgH15C16N8O3
_chemical_formula_sum   'Ag2 H30 C32 N16 O6'
_cell_volume   900.53687715
_cell_formula_units_Z   2
loop_
 _symmetry_equiv_pos_site_id
 _symmetry_equiv_pos_as_xyz
  1  'x, y, z'
loop_
 _atom_site_type_symbol
 _atom_site_label
 _atom_site_symmetry_multiplicity
 _atom_site_fract_x
 _atom_site_fract_y
 _atom_site_fract_z
 _atom_site_occupancy
 _atom_site_hle17_bader_spin_density
 _atom_site_hle17_ddec_charge
 _atom_site_hle17_ddec_spin_density
 _atom_site_hle17_ddec_sum_bond_order
 _atom_site_hle17_magmom
 _atom_site_hse06_10hf_bader_spin_density
 _atom_site_hse06_10hf_ddec_charge
 _atom_site_hse06_10hf_ddec_spin_density
 _atom_site_hse06_10hf_ddec_sum_bond_order
 _atom_site_hse06_10hf_magmom
 _atom_site_hse06_bader_spin_density
 _atom_site_hse06_ddec_charge
 _atom_site_hse06_ddec_spin_density
 _atom_site_hse06_ddec_sum_bond_order
 _atom_site_hse06_magmom
 _atom_site_pbe_bader_spin_density
 _atom_site_pbe_cm5_charge
 _atom_site_pbe_ddec_charge
 _atom_site_pbe_ddec_spin_density
 _atom_site_pbe_ddec_sum_bond_order
 _atom_site_pbe_magmom
Ag  Ag0  1  0.88018794  0.62441781  0.72703132  1  0  0.528463  0  1.450669  0  0  0.379529  0  1.908083  0  0  0.406548  0  1.861694  0  0  0.478403  0.36116  0  1.940444  0
Ag  Ag1  1  0.11981552  0.37558231  0.27296467  1  0  0.528445  0  1.45073  0  0  0.37942  0  1.908198  0  0  0.406542  0  1.861725  0  0  0.478403  0.361142  0  1.940489  0
H  H2  1  0.61314543  0.65421792  0.54019275  1  0  0.123252  0  0.937944  0  0  0.133209  0  0.998338  0  0  0.135969  0  0.996778  0  0  0.11353  0.131071  0  0.999746  0
H  H3  1  0.38685470  0.34577979  0.45980495  1  0  0.123234  0  0.937923  0  0  0.133182  0  0.998348  0  0  0.135949  0  0.996778  0  0  0.113547  0.131048  0  0.99975  0
H  H4  1  0.47802179  0.77515499  0.43197969  1  0  0.094138  0  0.957184  0  0  0.105637  0  1.018274  0  0  0.10781  0  1.018432  0  0  0.10188  0.103835  0  1.018575  0
H  H5  1  0.52198073  0.22484749  0.56802110  1  0  0.09409  0  0.957129  0  0  0.105603  0  1.018209  0  0  0.107765  0  1.018383  0  0  0.101872  0.103799  0  1.018515  0
H  H6  1  0.62830192  0.05712809  0.44702316  1  0  0.085217  0  0.968347  0  0  0.100344  0  1.025521  0  0  0.101797  0  1.026238  0  0  0.100521  0.098984  0  1.025542  0
H  H7  1  0.37169726  0.94287197  0.55298109  1  0  0.085228  0  0.968295  0  0  0.100349  0  1.025473  0  0  0.101803  0  1.02619  0  0  0.100518  0.09899  0  1.025493  0
H  H8  1  0.92096956  0.23340059  0.56915872  1  0  0.113397  0  0.943676  0  0  0.12402  0  1.004305  0  0  0.126237  0  1.004526  0  0  0.109598  0.122421  0  1.004222  0
H  H9  1  0.07902719  0.76660303  0.43084773  1  0  0.113413  0  0.943661  0  0  0.124036  0  1.00429  0  0  0.126251  0  1.004515  0  0  0.109583  0.122438  0  1.004206  0
H  H10  1  0.21983421  0.31421348  0.67674424  1  0  0.099086  0  0.916842  0  0  0.112704  0  0.981772  0  0  0.113538  0  0.981538  0  0  0.1215  0.112471  0  0.981963  0
H  H11  1  0.78016453  0.68578779  0.32325756  1  0  0.099076  0  0.916866  0  0  0.112705  0  0.981787  0  0  0.113539  0  0.981542  0  0  0.121514  0.112479  0  0.98197  0
H  H12  1  0.33235403  0.24603269  0.75799639  1  0  0.100927  0  0.91915  0  0  0.117927  0  0.979678  0  0  0.118432  0  0.979647  0  0  0.1255  0.119015  0  0.978063  0
H  H13  1  0.66764638  0.75396979  0.24200323  1  0  0.100934  0  0.919103  0  0  0.117935  0  0.979636  0  0  0.118444  0  0.979589  0  0  0.125499  0.11903  0  0.978014  0
H  H14  1  0.22077154  0.28596124  0.94225816  1  0  0.102982  0  0.967344  0  0  0.110837  0  1.038525  0  0  0.112596  0  1.037305  0  0  0.118998  0.109657  0  1.040203  0
H  H15  1  0.77923037  0.71404004  0.05774405  1  0  0.102984  0  0.967333  0  0  0.110845  0  1.038474  0  0  0.11258  0  1.037286  0  0  0.118999  0.109643  0  1.040183  0
H  H16  1  0.33051344  0.46784024  0.90971090  1  0  0.112596  0  0.947539  0  0  0.12383  0  1.012531  0  0  0.125782  0  1.01114  0  0  0.120734  0.121752  0  1.015913  0
H  H17  1  0.66949058  0.53216106  0.09029071  1  0  0.112589  0  0.94757  0  0  0.123786  0  1.012589  0  0  0.125764  0  1.011156  0  0  0.120743  0.121736  0  1.015928  0
H  H18  1  0.61324305  0.34846790  0.83598454  1  0  0.112342  0  0.959075  0  0  0.120987  0  1.022629  0  0  0.124185  0  1.020718  0  0  0.106281  0.119099  0  1.023119  0
H  H19  1  0.38675632  0.65153458  0.16401406  1  0  0.112336  0  0.95911  0  0  0.120983  0  1.02266  0  0  0.124194  0  1.020727  0  0  0.106299  0.119111  0  1.023128  0
H  H20  1  0.50503707  0.12144239  0.91886152  1  0  0.09545  0  0.958578  0  0  0.107712  0  1.016522  0  0  0.11043  0  1.015366  0  0  0.102422  0.105934  0  1.01708  0
H  H21  1  0.49496124  0.87856009  0.08113695  1  0  0.09544  0  0.958605  0  0  0.107711  0  1.016527  0  0  0.110419  0  1.015393  0  0  0.102424  0.105923  0  1.017107  0
H  H22  1  0.66915077  0.99561534  0.97165501  1  0  0.097977  0  0.964952  0  0  0.10585  0  1.029457  0  0  0.109126  0  1.027429  0  0  0.102535  0.103408  0  1.030983  0
H  H23  1  0.33084679  0.00438355  0.02834349  1  0  0.09796  0  0.965011  0  0  0.105808  0  1.029556  0  0  0.109099  0  1.027496  0  0  0.102514  0.103378  0  1.031052  0
H  H24  1  0.94908935  0.10002203  0.95636224  1  0  0.130312  0  0.939073  0  0  0.140484  0  0.997644  0  0  0.143929  0  0.995191  0  0  0.113097  0.137994  0  0.999453  0
H  H25  1  0.05090596  0.89997446  0.04363635  1  0  0.13031  0  0.939078  0  0  0.140481  0  0.997643  0  0  0.143922  0  0.995198  0  0  0.113093  0.137989  0  0.999456  0
H  H26  1  0.55524557  0.14576281  0.25822730  1  0  0.148754  0  0.933347  0  0  0.167685  0  0.98937  0  0  0.168814  0  0.990513  0  0  0.11113  0.167148  0  0.988016  0
H  H27  1  0.44475956  0.85423852  0.74176740  1  0  0.148723  0  0.933378  0  0  0.167653  0  0.989401  0  0  0.168777  0  0.990549  0  0  0.111117  0.167113  0  0.988055  0
H  H28  1  0.75832120  0.17995457  0.28186970  1  0  0.142511  0  0.956568  0  0  0.151223  0  1.035304  0  0  0.153519  0  1.033012  0  0  0.107351  0.149702  0  1.036546  0
H  H29  1  0.24167896  0.82004316  0.71812448  1  0  0.142534  0  0.956549  0  0  0.151226  0  1.035314  0  0  0.153522  0  1.033018  0  0  0.107342  0.149708  0  1.03655  0
H  H30  1  0.69512230  0.28940427  0.20367011  1  0  0.160779  0  0.959008  0  0  0.168782  0  1.033059  0  0  0.17113  0  1.031755  0  0  0.113507  0.166995  0  1.033896  0
H  H31  1  0.30488221  0.71059585  0.79632779  1  0  0.160771  0  0.959013  0  0  0.168809  0  1.033027  0  0  0.17113  0  1.031756  0  0  0.113498  0.167001  0  1.033899  0
C  C32  1  0.84390993  0.87698829  0.61398105  1  0  0.108753  0  3.824152  0  0  0.104716  0  4.074162  0  0  0.104622  0  4.097976  0  0  0.091439  0.105275  0  4.057852  0
C  C33  1  0.15609033  0.12301180  0.38601981  1  0  0.108709  0  3.824144  0  0  0.104694  0  4.07414  0  0  0.104602  0  4.097947  0  0  0.091462  0.105254  0  4.057822  0
C  C34  1  0.67884061  0.77852734  0.54621086  1  0  -0.103203  0  3.69623  0  0  -0.121617  0  3.941188  0  0  -0.12214  0  3.960961  0  0  -0.075938  -0.120885  0  3.926957  0
C  C35  1  0.32116117  0.22147157  0.45378907  1  0  -0.103147  0  3.696228  0  0  -0.121597  0  3.941227  0  0  -0.122118  0  3.960988  0  0  -0.075964  -0.120863  0  3.926998  0
C  C36  1  0.60543332  0.84779040  0.48736037  1  0  -0.081351  0  3.762746  0  0  -0.096774  0  4.013764  0  0  -0.100864  0  4.037285  0  0  -0.092939  -0.093301  0  3.997037  0
C  C37  1  0.39456710  0.15221209  0.51263837  1  0  -0.081242  0  3.7627  0  0  -0.096657  0  4.01371  0  0  -0.100741  0  4.037243  0  0  -0.092897  -0.093187  0  3.99699  0
C  C38  1  0.69238468  0.00978596  0.49590466  1  0  -0.057279  0  3.752888  0  0  -0.073821  0  4.005957  0  0  -0.074275  0  4.02824  0  0  -0.089602  -0.073544  0  3.990973  0
C  C39  1  0.30761677  0.99021651  0.50409774  1  0  -0.057351  0  3.752938  0  0  -0.073884  0  4.006018  0  0  -0.074337  0  4.028294  0  0  -0.089675  -0.073609  0  3.991035  0
C  C40  1  0.85539801  0.10903585  0.56337206  1  0  -0.135937  0  3.736896  0  0  -0.161907  0  4.002435  0  0  -0.165679  0  4.023566  0  0  -0.094578  -0.159022  0  3.988638  0
C  C41  1  0.14460284  0.89096543  0.43663001  1  0  -0.136011  0  3.736922  0  0  -0.16197  0  4.002491  0  0  -0.165742  0  4.023623  0  0  -0.094521  -0.159088  0  3.988692  0
C  C42  1  0.92978867  0.03868416  0.62243899  1  0  0.08993  0  3.792289  0  0  0.073294  0  4.046302  0  0  0.077969  0  4.06815  0  0  0.10232  0.067999  0  4.033159  0
C  C43  1  0.07020677  0.96131471  0.37756188  1  0  0.089982  0  3.792247  0  0  0.073304  0  4.04631  0  0  0.077979  0  4.068162  0  0  0.102313  0.068027  0  4.033151  0
C  C44  1  0.22180048  0.25450333  0.74630704  1  0  -0.026319  0  3.62795  0  0  -0.098742  0  3.897986  0  0  -0.094346  0  3.90705  0  0  -0.042875  -0.104563  0  3.894755  0
C  C45  1  0.77819767  0.74549675  0.25369443  1  0  -0.026301  0  3.62785  0  0  -0.098759  0  3.897858  0  0  -0.094337  0  3.906874  0  0  -0.042868  -0.104588  0  3.894637  0
C  C46  1  0.22193221  0.34858859  0.87440894  1  0  -0.054497  0  3.605986  0  0  -0.118995  0  3.864518  0  0  -0.116638  0  3.874363  0  0  -0.051879  -0.128684  0  3.856202  0
C  C47  1  0.77806804  0.65141149  0.12559281  1  0  -0.054493  0  3.605987  0  0  -0.118919  0  3.864406  0  0  -0.116568  0  3.874265  0  0  -0.051886  -0.128618  0  3.856108  0
C  C48  1  0.84212381  0.35061846  0.85095806  1  0  0.109049  0  3.839352  0  0  0.102737  0  4.094443  0  0  0.103217  0  4.118513  0  0  0.08814  0.101742  0  4.081007  0
C  C49  1  0.15787434  0.64938163  0.14904165  1  0  0.109143  0  3.839276  0  0  0.102764  0  4.094448  0  0  0.103246  0  4.118518  0  0  0.088162  0.10177  0  4.081015  0
C  C50  1  0.68414274  0.29368020  0.86174053  1  0  -0.121104  0  3.717828  0  0  -0.141573  0  3.971152  0  0  -0.142929  0  3.990852  0  0  -0.087029  -0.140191  0  3.956769  0
C  C51  1  0.31585588  0.70631870  0.13825811  1  0  -0.12115  0  3.717773  0  0  -0.14161  0  3.971134  0  0  -0.142964  0  3.990829  0  0  -0.087075  -0.14023  0  3.956748  0
C  C52  1  0.62595139  0.16703845  0.90678070  1  0  -0.068581  0  3.750781  0  0  -0.082852  0  3.999856  0  0  -0.086174  0  4.023244  0  0  -0.092403  -0.080899  0  3.983634  0
C  C53  1  0.37404889  0.83296165  0.09321753  1  0  -0.068541  0  3.750687  0  0  -0.082806  0  3.999737  0  0  -0.086137  0  4.023148  0  0  -0.092393  -0.080862  0  3.98354  0
C  C54  1  0.72048119  0.09758365  0.93951351  1  0  -0.056012  0  3.736977  0  0  -0.070988  0  3.989165  0  0  -0.0729  0  4.011567  0  0  -0.08616  -0.069565  0  3.973764  0
C  C55  1  0.27951369  0.90241405  0.06048086  1  0  -0.055998  0  3.73701  0  0  -0.070959  0  3.989187  0  0  -0.072863  0  4.011571  0  0  -0.086122  -0.069524  0  3.973763  0
C  C56  1  0.87734980  0.15364095  0.93048563  1  0  -0.131312  0  3.724891  0  0  -0.156234  0  3.9917  0  0  -0.158586  0  4.009766  0  0  -0.087847  -0.154931  0  3.981288  0
C  C57  1  0.12264927  0.84635676  0.06951281  1  0  -0.131303  0  3.724992  0  0  -0.156227  0  3.991797  0  0  -0.158579  0  4.009864  0  0  -0.087861  -0.154923  0  3.981389  0
C  C58  1  0.93644038  0.28245901  0.88593590  1  0  0.091414  0  3.794291  0  0  0.074344  0  4.047739  0  0  0.078305  0  4.070129  0  0  0.104367  0.063247  0  4.030267  0
C  C59  1  0.06355719  0.71753988  0.11406260  1  0  0.091303  0  3.794359  0  0  0.074262  0  4.047801  0  0  0.07822  0  4.070194  0  0  0.104329  0.063153  0  4.030335  0
C  C60  1  0.68274564  0.23664032  0.27900905  1  0  -0.383109  0  3.74745  0  0  -0.452252  0  3.978454  0  0  -0.454955  0  3.982087  0  0  -0.216776  -0.449887  0  3.975058  0
C  C61  1  0.31725957  0.76336336  0.72099410  1  0  -0.383057  0  3.747291  0  0  -0.452195  0  3.978267  0  0  -0.454887  0  3.98194  0  0  -0.216752  -0.449839  0  3.974902  0
C  C62  1  0.73181770  0.36068221  0.39902262  1  0  0.413599  0  3.704941  0  0  0.403454  0  3.988796  0  0  0.416347  0  4.003923  0  0  0.203114  0.394884  0  3.977934  0
C  C63  1  0.26818379  0.63931192  0.60097540  1  0  0.413549  0  3.704818  0  0  0.403428  0  3.988662  0  0  0.416315  0  4.003791  0  0  0.203165  0.394855  0  3.977804  0
N  N64  1  0.95119124  0.84612664  0.68147993  1  0  -0.222872  0  3.249684  0  0  -0.167364  0  3.563894  0  0  -0.17795  0  3.573589  0  0  -0.221899  -0.160111  0  3.557692  0
N  N65  1  0.04881021  0.15387584  0.31852248  1  0  -0.222782  0  3.249641  0  0  -0.167249  0  3.563828  0  0  -0.177827  0  3.573499  0  0  -0.221846  -0.15999  0  3.557599  0
N  N66  1  0.09355440  0.97580854  0.73048477  1  0  -0.071159  0  2.868434  0  0  -0.072965  0  3.142095  0  0  -0.066813  0  3.152941  0  0  -0.073639  -0.078705  0  3.135452  0
N  N67  1  0.90644752  0.02419275  0.26951568  1  0  -0.071279  0  2.86843  0  0  -0.073102  0  3.1421  0  0  -0.066955  0  3.152954  0  0  -0.073715  -0.078832  0  3.135452  0
N  N68  1  0.08377730  0.09315501  0.69548773  1  0  0.00108  0  3.523522  0  0  0.08304  0  3.754013  0  0  0.070279  0  3.779671  0  0  -0.127271  0.094252  0  3.737183  0
N  N69  1  0.91622250  0.90684627  0.30451333  1  0  0.0011  0  3.523503  0  0  0.083061  0  3.753999  0  0  0.070295  0  3.779659  0  0  -0.127279  0.094265  0  3.737175  0
N  N70  1  0.93474868  0.47097809  0.80919299  1  0  -0.240446  0  3.282885  0  0  -0.183421  0  3.608324  0  0  -0.194576  0  3.617688  0  0  -0.23189  -0.176532  0  3.605673  0
N  N71  1  0.06525219  0.52902320  0.19080733  1  0  -0.240469  0  3.282951  0  0  -0.183423  0  3.608403  0  0  -0.19458  0  3.61776  0  0  -0.231885  -0.176535  0  3.605742  0
N  N72  1  0.07653048  0.48025861  0.81640105  1  0  -0.069045  0  2.890625  0  0  -0.067036  0  3.166958  0  0  -0.061091  0  3.178656  0  0  -0.070781  -0.079716  0  3.154518  0
N  N73  1  0.92347097  0.51974386  0.18360136  1  0  -0.069051  0  2.890631  0  0  -0.067029  0  3.166933  0  0  -0.061082  0  3.178634  0  0  -0.070784  -0.079715  0  3.154486  0
N  N74  1  0.08023418  0.36872283  0.86297309  1  0  0.011564  0  3.526115  0  0  0.092897  0  3.755274  0  0  0.080951  0  3.780668  0  0  -0.12697  0.127014  0  3.704838  0
N  N75  1  0.91976938  0.63127966  0.13702960  1  0  0.011612  0  3.526071  0  0  0.092917  0  3.75521  0  0  0.08097  0  3.780606  0  0  -0.126946  0.127057  0  3.70475  0
N  N76  1  0.62129751  0.66318882  0.84710114  1  0  0.68765  0  4.154649  0  0  0.723727  0  4.439363  0  0  0.750147  0  4.446424  0  0  0.088732  0.70523  0  4.433656  0
N  N77  1  0.37870440  0.33681247  0.15290019  1  0  0.687662  0  4.154758  0  0  0.722252  0  4.439818  0  0  0.750059  0  4.446598  0  0  0.088722  0.705156  0  4.433825  0
N  N78  1  0.76816618  0.45991200  0.49562969  1  0  -0.473089  0  2.743378  0  0  -0.440247  0  3.016476  0  0  -0.454056  0  3.021629  0  0  -0.334019  -0.43071  0  3.012992  0
N  N79  1  0.23183559  0.54008691  0.50437112  1  0  -0.473072  0  2.743453  0  0  -0.440237  0  3.01656  0  0  -0.454048  0  3.021703  0  0  -0.334066  -0.430699  0  3.013065  0
O  O80  1  0.77173476  0.76725727  0.88248733  1  0  -0.492141  0  1.791835  0  0  -0.477896  0  2.030617  0  0  -0.49375  0  2.022402  0  0  -0.209478  -0.466016  0  2.035535  0
O  O81  1  0.22826716  0.23274402  0.11751312  1  0  -0.492187  0  1.791894  0  0  -0.477318  0  2.03072  0  0  -0.493744  0  2.022501  0  0  -0.209504  -0.466012  0  2.035632  0
O  O82  1  0.56538917  0.53825578  0.75010692  1  0  -0.496014  0  1.717493  0  0  -0.479642  0  1.93401  0  0  -0.494726  0  1.927298  0  0  -0.212381  -0.468687  0  1.938063  0
O  O83  1  0.43461170  0.46174550  0.24989340  1  0  -0.495993  0  1.717524  0  0  -0.47903  0  1.934105  0  0  -0.494695  0  1.927388  0  0  -0.21236  -0.468657  0  1.938147  0
O  O84  1  0.53021890  0.68440088  0.91032743  1  0  -0.477746  0  1.751589  0  0  -0.46476  0  1.961537  0  0  -0.479232  0  1.957013  0  0  -0.198738  -0.454339  0  1.965198  0
O  O85  1  0.46978301  0.31560041  0.08967391  1  0  -0.477707  0  1.751576  0  0  -0.46413  0  1.961561  0  0  -0.479181  0  1.957031  0  0  -0.198722  -0.454294  0  1.96521  0
