# generated using pymatgen
data_CdH12C22S2(N7O)2
_symmetry_space_group_name_H-M   'P 1'
_cell_length_a   5.63871308
_cell_length_b   8.56291292
_cell_length_c   13.38812087
_cell_angle_alpha   70.89037859
_cell_angle_beta   83.05289690
_cell_angle_gamma   86.71854589
_symmetry_Int_Tables_number   1
_chemical_formula_structural   CdH12C22S2(N7O)2
_chemical_formula_sum   'Cd1 H12 C22 S2 N14 O2'
_cell_volume   606.21561588
_cell_formula_units_Z   1
loop_
 _symmetry_equiv_pos_site_id
 _symmetry_equiv_pos_as_xyz
  1  'x, y, z'
loop_
 _atom_site_type_symbol
 _atom_site_label
 _atom_site_symmetry_multiplicity
 _atom_site_fract_x
 _atom_site_fract_y
 _atom_site_fract_z
 _atom_site_occupancy
 _atom_site_hle17_bader_spin_density
 _atom_site_hle17_ddec_charge
 _atom_site_hle17_ddec_spin_density
 _atom_site_hle17_ddec_sum_bond_order
 _atom_site_hle17_magmom
 _atom_site_hse06_10hf_bader_spin_density
 _atom_site_hse06_10hf_ddec_charge
 _atom_site_hse06_10hf_ddec_spin_density
 _atom_site_hse06_10hf_ddec_sum_bond_order
 _atom_site_hse06_10hf_magmom
 _atom_site_hse06_bader_spin_density
 _atom_site_hse06_ddec_charge
 _atom_site_hse06_ddec_spin_density
 _atom_site_hse06_ddec_sum_bond_order
 _atom_site_hse06_magmom
 _atom_site_pbe_bader_spin_density
 _atom_site_pbe_cm5_charge
 _atom_site_pbe_ddec_charge
 _atom_site_pbe_ddec_spin_density
 _atom_site_pbe_ddec_sum_bond_order
 _atom_site_pbe_magmom
Cd  Cd0  1  0.49999780  0.99999355  0.99999998  1  0  0.938837  0  1.9854  0  0  0.76382  0  2.445994  0  0  0.808037  0  2.411409  0  0  0.715394  0.73313  0  2.469018  0
H  H1  1  0.71804228  0.31196028  0.80740905  1  0  0.094897  0  0.957243  0  0  0.100922  0  1.024005  0  0  0.103796  0  1.021625  0  0  0.117545  0.098783  0  1.025871  0
H  H2  1  0.28196691  0.68803175  0.19259095  1  0  0.094917  0  0.957246  0  0  0.100947  0  1.024  0  0  0.103817  0  1.021622  0  0  0.117549  0.09881  0  1.025866  0
H  H3  1  0.68546955  0.48234397  0.61462988  1  0  0.098659  0  0.951847  0  0  0.090376  0  1.039467  0  0  0.09531  0  1.034572  0  0  0.114297  0.086819  0  1.043054  0
H  H4  1  0.31452724  0.51765813  0.38537244  1  0  0.098629  0  0.951866  0  0  0.090378  0  1.039461  0  0  0.09531  0  1.034567  0  0  0.114298  0.086821  0  1.043047  0
H  H5  1  0.14833907  0.02768544  0.80290305  1  0  0.096831  0  0.964022  0  0  0.100977  0  1.034824  0  0  0.103375  0  1.033852  0  0  0.11666  0.099152  0  1.035742  0
H  H6  1  0.85166118  0.97231163  0.19709715  1  0  0.096828  0  0.964028  0  0  0.100971  0  1.034839  0  0  0.103369  0  1.033865  0  0  0.116671  0.099146  0  1.035756  0
H  H7  1  0.50357020  0.12113218  0.38560716  1  0  0.09795  0  0.959599  0  0  0.092774  0  1.042218  0  0  0.097826  0  1.037546  0  0  0.112555  0.089105  0  1.045645  0
H  H8  1  0.49643737  0.87886734  0.61439582  1  0  0.097995  0  0.959523  0  0  0.092807  0  1.042157  0  0  0.097862  0  1.037478  0  0  0.112574  0.08913  0  1.045588  0
H  H9  1  0.62786837  0.45636205  0.08054321  1  0  0.079415  0  0.946275  0  0  0.083934  0  1.016109  0  0  0.086902  0  1.014431  0  0  0.107454  0.08176  0  1.017437  0
H  H10  1  0.37213380  0.54363256  0.91945965  1  0  0.079381  0  0.946172  0  0  0.083897  0  1.016051  0  0  0.086875  0  1.01435  0  0  0.10744  0.081723  0  1.017379  0
H  H11  1  0.97687331  0.56820104  0.13406581  1  0  0.080278  0  0.97162  0  0  0.087152  0  1.037114  0  0  0.089077  0  1.036659  0  0  0.108064  0.085725  0  1.037597  0
H  H12  1  0.02312512  0.43180100  0.86593344  1  0  0.080275  0  0.971659  0  0  0.087175  0  1.03712  0  0  0.0891  0  1.036668  0  0  0.108074  0.085754  0  1.037597  0
C  C13  1  0.58352396  0.28740001  0.76274655  1  0  0.087136  0  3.65568  0  0  0.05522  0  3.910781  0  0  0.059566  0  3.928577  0  0  0.056272  0.052414  0  3.898697  0
C  C14  1  0.41648165  0.71259702  0.23725334  1  0  0.087107  0  3.655701  0  0  0.055193  0  3.910852  0  0  0.059535  0  3.928662  0  0  0.056273  0.052382  0  3.898761  0
C  C15  1  0.56465957  0.38068880  0.65648696  1  0  0.074028  0  3.682218  0  0  0.050735  0  3.954443  0  0  0.050847  0  3.971133  0  0  0.052289  0.050491  0  3.943334  0
C  C16  1  0.43533711  0.61930955  0.34351318  1  0  0.074124  0  3.682091  0  0  0.050768  0  3.954394  0  0  0.050883  0  3.971076  0  0  0.052305  0.050531  0  3.943287  0
C  C17  1  0.25235703  0.22424934  0.65491617  1  0  0.091551  0  3.79162  0  0  0.098426  0  4.039926  0  0  0.098139  0  4.058199  0  0  0.126616  0.098261  0  4.027803  0
C  C18  1  0.74764158  0.77574902  0.34508685  1  0  0.091448  0  3.791607  0  0  0.09831  0  4.039899  0  0  0.098013  0  4.058165  0  0  0.12654  0.098138  0  4.027781  0
C  C19  1  0.26952249  0.12904869  0.76155538  1  0  0.090553  0  3.606322  0  0  0.056402  0  3.848176  0  0  0.060083  0  3.866742  0  0  0.067686  0.053965  0  3.835798  0
C  C20  1  0.73047961  0.87095085  0.23844567  1  0  0.090708  0  3.606256  0  0  0.056554  0  3.848099  0  0  0.060244  0  3.866667  0  0  0.06779  0.054119  0  3.835723  0
C  C21  1  0.07164993  0.18892702  0.59671941  1  0  0.314418  0  3.71312  0  0  0.281162  0  3.993443  0  0  0.296051  0  4.003397  0  0  0.226482  0.271343  0  3.98661  0
C  C22  1  0.92834682  0.81107630  0.40328191  1  0  0.314361  0  3.713215  0  0  0.281187  0  3.993442  0  0  0.296106  0  4.003385  0  0  0.226487  0.271367  0  3.986609  0
C  C23  1  0.87123421  0.21800351  0.46587477  1  0  0.343949  0  3.679492  0  0  0.306905  0  3.963219  0  0  0.323616  0  3.971038  0  0  0.232319  0.295811  0  3.957832  0
C  C24  1  0.12876257  0.78200476  0.53412697  1  0  0.343916  0  3.679742  0  0  0.306926  0  3.963448  0  0  0.323661  0  3.971266  0  0  0.232319  0.295832  0  3.95806  0
C  C25  1  0.80303922  0.28658517  0.35843529  1  0  0.088593  0  3.804649  0  0  0.092198  0  4.05666  0  0  0.092152  0  4.075545  0  0  0.121201  0.092004  0  4.044002  0
C  C26  1  0.19695566  0.71341938  0.64156438  1  0  0.088668  0  3.804719  0  0  0.092166  0  4.056847  0  0  0.092127  0  4.075727  0  0  0.121221  0.09197  0  4.044188  0
C  C27  1  0.60897485  0.22204684  0.32885524  1  0  0.065683  0  3.638768  0  0  0.036437  0  3.894604  0  0  0.038458  0  3.91048  0  0  0.05921  0.035114  0  3.884099  0
C  C28  1  0.39102740  0.77795151  0.67114905  1  0  0.065671  0  3.638746  0  0  0.036474  0  3.894591  0  0  0.038491  0  3.91047  0  0  0.059252  0.035168  0  3.884063  0
C  C29  1  0.67729847  0.40570167  0.16150016  1  0  0.068882  0  3.709263  0  0  0.045481  0  3.965833  0  0  0.046807  0  3.984416  0  0  0.048978  0.044669  0  3.95327  0
C  C30  1  0.32270691  0.59429654  0.83849501  1  0  0.069022  0  3.709203  0  0  0.045582  0  3.965845  0  0  0.046915  0  3.984432  0  0  0.049095  0.044769  0  3.953287  0
C  C31  1  0.87140719  0.46855777  0.19126278  1  0  0.064345  0  3.733283  0  0  0.043948  0  3.993082  0  0  0.044477  0  4.012461  0  0  0.044717  0.043442  0  3.980099  0
C  C32  1  0.12859474  0.53144421  0.80873478  1  0  0.064328  0  3.733451  0  0  0.043936  0  3.993255  0  0  0.044459  0  4.012642  0  0  0.044719  0.043426  0  3.980272  0
C  C33  1  0.97995545  0.18345649  0.02347847  1  0  0.278156  0  4.029886  0  0  0.259371  0  4.332933  0  0  0.28148  0  4.347661  0  0  0.139759  0.244414  0  4.322537  0
C  C34  1  0.02002266  0.81653690  0.97650889  1  0  0.277797  0  4.029179  0  0  0.259012  0  4.33227  0  0  0.281124  0  4.347011  0  0  0.139567  0.244052  0  4.321862  0
S  S35  1  0.20770703  0.20502077  0.08132447  1  0  -0.286676  0  2.218499  0  0  -0.267963  0  2.563442  0  0  -0.284067  0  2.558375  0  0  -0.11539  -0.256653  0  2.566456  0
S  S36  1  0.79229099  0.79498241  0.91866634  1  0  -0.286337  0  2.218947  0  0  -0.267608  0  2.563864  0  0  -0.283713  0  2.55883  0  0  -0.115251  -0.256303  0  2.566875  0
N  N37  1  0.43582996  0.16185913  0.81482318  1  0  -0.272866  0  3.225655  0  0  -0.202252  0  3.485793  0  0  -0.218647  0  3.506605  0  0  -0.300169  -0.19097  0  3.471406  0
N  N38  1  0.56417746  0.83813540  0.18517714  1  0  -0.272951  0  3.225817  0  0  -0.202341  0  3.485981  0  0  -0.218727  0  3.506757  0  0  -0.300256  -0.19105  0  3.471589  0
N  N39  1  0.39953479  0.34984524  0.60221152  1  0  -0.244977  0  3.0301  0  0  -0.229465  0  3.305484  0  0  -0.23362  0  3.319298  0  0  -0.288292  -0.22631  0  3.296164  0
N  N40  1  0.60046022  0.65015686  0.39779091  1  0  -0.24499  0  3.030056  0  0  -0.229474  0  3.305456  0  0  -0.233625  0  3.319267  0  0  -0.288278  -0.226317  0  3.296137  0
N  N41  1  0.91131561  0.07266656  0.62944153  1  0  -0.252496  0  2.909967  0  0  -0.238724  0  3.1964  0  0  -0.248003  0  3.212145  0  0  -0.213625  -0.232475  0  3.185758  0
N  N42  1  0.08868284  0.92733301  0.37055825  1  0  -0.252441  0  2.910112  0  0  -0.238699  0  3.19653  0  0  -0.247975  0  3.212266  0  0  -0.213597  -0.232448  0  3.185889  0
N  N43  1  0.78158130  0.09136304  0.54467956  1  0  -0.259311  0  2.909531  0  0  -0.239691  0  3.198058  0  0  -0.250208  0  3.211794  0  0  -0.211547  -0.23256  0  3.18876  0
N  N44  1  0.21841000  0.90864155  0.45532032  1  0  -0.259271  0  2.909782  0  0  -0.239634  0  3.198234  0  0  -0.250148  0  3.211966  0  0  -0.211551  -0.232504  0  3.188937  0
N  N45  1  0.93519673  0.41064165  0.28976158  1  0  -0.265407  0  3.030956  0  0  -0.246707  0  3.301219  0  0  -0.252218  0  3.315842  0  0  -0.298542  -0.242638  0  3.291275  0
N  N46  1  0.06480001  0.58936290  0.71023947  1  0  -0.265465  0  3.03106  0  0  -0.246745  0  3.301369  0  0  -0.252256  0  3.315988  0  0  -0.298583  -0.242678  0  3.291431  0
N  N47  1  0.54675136  0.28203676  0.22984995  1  0  -0.230276  0  3.042283  0  0  -0.193958  0  3.308722  0  0  -0.201695  0  3.324386  0  0  -0.298233  -0.188445  0  3.297911  0
N  N48  1  0.45325067  0.71795658  0.77015019  1  0  -0.230426  0  3.042579  0  0  -0.194102  0  3.309032  0  0  -0.201842  0  3.324698  0  0  -0.298399  -0.188591  0  3.298218  0
N  N49  1  0.80948191  0.17194615  0.98228665  1  0  -0.547929  0  2.892747  0  0  -0.491808  0  3.169238  0  0  -0.513015  0  3.175616  0  0  -0.404508  -0.477238  0  3.164617  0
N  N50  1  0.19053963  0.82806182  0.01770846  1  0  -0.547862  0  2.891631  0  0  -0.49172  0  3.16813  0  0  -0.512935  0  3.174519  0  0  -0.404449  -0.477143  0  3.163496  0
O  O51  1  0.05620204  0.28587000  0.49358559  1  0  -0.224829  0  2.318663  0  0  -0.153802  0  2.540755  0  0  -0.170549  0  2.541186  0  0  -0.079503  -0.142596  0  2.540296  0
O  O52  1  0.94379478  0.71413334  0.50641721  1  0  -0.224825  0  2.318635  0  0  -0.153828  0  2.540684  0  0  -0.170644  0  2.54116  0  0  -0.0795  -0.142622  0  2.540225  0
