# generated using pymatgen
data_ZnH20C26(NO2)2
_symmetry_space_group_name_H-M   'P 1'
_cell_length_a   9.86517299
_cell_length_b   14.93875359
_cell_length_c   18.02007963
_cell_angle_alpha   94.28429193
_cell_angle_beta   90.00006096
_cell_angle_gamma   89.99946791
_symmetry_Int_Tables_number   1
_chemical_formula_structural   ZnH20C26(NO2)2
_chemical_formula_sum   'Zn4 H80 C104 N8 O16'
_cell_volume   2648.25930117
_cell_formula_units_Z   4
loop_
 _symmetry_equiv_pos_site_id
 _symmetry_equiv_pos_as_xyz
  1  'x, y, z'
loop_
 _atom_site_type_symbol
 _atom_site_label
 _atom_site_symmetry_multiplicity
 _atom_site_fract_x
 _atom_site_fract_y
 _atom_site_fract_z
 _atom_site_occupancy
 _atom_site_pbe_bader_charge
 _atom_site_pbe_bader_spin_density
 _atom_site_pbe_cm5_charge
 _atom_site_pbe_ddec_charge
 _atom_site_pbe_ddec_spin_density
 _atom_site_pbe_ddec_sum_bond_order
 _atom_site_pbe_magmom
Zn  Zn0  1  0.38957120  0.36654570  0.28086948  1  1.251832  0  0.684638  0.747732  0  2.396503  0
Zn  Zn1  1  0.38957121  0.13345160  0.71913008  1  1.25177  0  0.68462  0.747707  0  2.396565  0
Zn  Zn2  1  0.61042649  0.63345300  0.71913427  1  1.251863  0  0.684608  0.747627  0  2.396542  0
Zn  Zn3  1  0.61043459  0.86654702  0.28086533  1  1.251872  0  0.684601  0.747691  0  2.396538  0
H  H4  1  0.09642885  0.24041486  0.41662655  1  0.102424  0  0.101346  0.105553  0  1.008741  0
H  H5  1  0.09642481  0.25958429  0.58337849  1  0.102544  0  0.101374  0.105582  0  1.008742  0
H  H6  1  0.90356986  0.75958516  0.58337505  1  0.102569  0  0.101322  0.105526  0  1.008766  0
H  H7  1  0.90357288  0.74041372  0.41662355  1  0.102553  0  0.101368  0.105547  0  1.008805  0
H  H8  1  0.93463087  0.13249368  0.46931090  1  0.066849  0  0.09707  0.095714  0  1.015503  0
H  H9  1  0.93462827  0.36750768  0.53069309  1  0.066837  0  0.097101  0.095714  0  1.015559  0
H  H10  1  0.06536683  0.86750633  0.53068959  1  0.066857  0  0.097081  0.095692  0  1.015555  0
H  H11  1  0.06536740  0.63249236  0.46931129  1  0.066815  0  0.097076  0.095709  0  1.015545  0
H  H12  1  0.94946405  0.96993831  0.42970609  1  0.035179  0  0.096092  0.089606  0  1.03149  0
H  H13  1  0.94946826  0.53006501  0.57029500  1  0.035307  0  0.096093  0.089603  0  1.031491  0
H  H14  1  0.05052959  0.03006170  0.57029496  1  0.035318  0  0.096052  0.089575  0  1.031535  0
H  H15  1  0.05053449  0.46993571  0.42970996  1  0.03519  0  0.096041  0.089561  0  1.031486  0
H  H16  1  0.12598867  0.91437553  0.33810722  1  0.080702  0  0.097999  0.099615  0  1.0306  0
H  H17  1  0.12599533  0.58562345  0.66189371  1  0.080944  0  0.098024  0.099655  0  1.030538  0
H  H18  1  0.87400801  0.08562246  0.66189316  1  0.080715  0  0.098005  0.099655  0  1.030628  0
H  H19  1  0.87401250  0.41437457  0.33810944  1  0.080692  0  0.097953  0.099624  0  1.030535  0
H  H20  1  0.27927852  0.02398488  0.28197719  1  0.092958  0  0.101268  0.104465  0  1.020613  0
H  H21  1  0.27928185  0.47601243  0.71802341  1  0.092903  0  0.101259  0.104431  0  1.02066  0
H  H22  1  0.72071816  0.97601380  0.71802489  1  0.092885  0  0.101238  0.104383  0  1.020638  0
H  H23  1  0.72072496  0.52398288  0.28197681  1  0.093051  0  0.101235  0.104423  0  1.020568  0
H  H24  1  0.70729792  0.35792814  0.10601763  1  0.087646  0  0.101802  0.105741  0  1.000254  0
H  H25  1  0.70729610  0.14207055  0.89398053  1  0.087487  0  0.101791  0.105703  0  1.000267  0
H  H26  1  0.29269167  0.64206922  0.89398715  1  0.087643  0  0.101834  0.105738  0  1.000229  0
H  H27  1  0.29270057  0.85793413  0.10601745  1  0.087574  0  0.101823  0.105758  0  1.00023  0
H  H28  1  0.91654438  0.31157493  0.03609428  1  0.067764  0  0.093777  0.088236  0  1.039478  0
H  H29  1  0.91654306  0.18842515  0.96390352  1  0.068389  0  0.093765  0.088232  0  1.039484  0
H  H30  1  0.08344520  0.68842778  0.96390803  1  0.067605  0  0.09379  0.088258  0  1.039529  0
H  H31  1  0.08345362  0.81158154  0.03609457  1  0.068423  0  0.093773  0.08824  0  1.03947  0
H  H32  1  0.09651786  0.22536073  0.09739933  1  0.032254  0  0.095348  0.087999  0  1.006094  0
H  H33  1  0.09651117  0.27463633  0.90259727  1  0.032367  0  0.095311  0.087926  0  1.006285  0
H  H34  1  0.90347679  0.77464261  0.90259912  1  0.032164  0  0.095342  0.08798  0  1.006112  0
H  H35  1  0.90348551  0.72536499  0.09739996  1  0.032286  0  0.095317  0.087969  0  1.006247  0
H  H36  1  0.06786795  0.18898707  0.22865431  1  0.078487  0  0.095959  0.093514  0  1.050064  0
H  H37  1  0.06785848  0.31101084  0.77134232  1  0.078551  0  0.095971  0.093554  0  1.050083  0
H  H38  1  0.93213684  0.81101694  0.77134363  1  0.078462  0  0.095959  0.093529  0  1.050066  0
H  H39  1  0.93214023  0.68899115  0.22865494  1  0.078609  0  0.095989  0.093567  0  1.050035  0
H  H40  1  0.85938040  0.23881314  0.29901963  1  0.109153  0  0.101114  0.102193  0  1.017907  0
H  H41  1  0.85937250  0.26118729  0.70097815  1  0.109089  0  0.101106  0.102195  0  1.017828  0
H  H42  1  0.14062845  0.76118955  0.70098101  1  0.109006  0  0.101125  0.102239  0  1.017895  0
H  H43  1  0.14062721  0.73881605  0.29901975  1  0.10917  0  0.101117  0.102214  0  1.017866  0
H  H44  1  0.32816417  0.40199935  0.44220324  1  0.1426  0  0.121366  0.100739  0  0.989115  0
H  H45  1  0.32816134  0.09799631  0.55779564  1  0.142702  0  0.121369  0.100701  0  0.989116  0
H  H46  1  0.67183757  0.59799998  0.55779666  1  0.142621  0  0.121342  0.100668  0  0.989134  0
H  H47  1  0.67184244  0.90200166  0.44220196  1  0.142676  0  0.121349  0.100678  0  0.98906  0
H  H48  1  0.31875853  0.53442073  0.53593105  1  0.10421  0  0.110063  0.124652  0  1.005406  0
H  H49  1  0.31875951  0.96557638  0.46406767  1  0.104165  0  0.110044  0.124655  0  1.005371  0
H  H50  1  0.68124017  0.46557860  0.46406884  1  0.104222  0  0.11007  0.124661  0  1.005409  0
H  H51  1  0.68124325  0.03442361  0.53593060  1  0.104189  0  0.110057  0.124657  0  1.005379  0
H  H52  1  0.44146971  0.69948976  0.35974081  1  0.175897  0  0.112095  0.133242  0  1.039286  0
H  H53  1  0.44147535  0.80050458  0.64025782  1  0.175604  0  0.112055  0.133218  0  1.039246  0
H  H54  1  0.55853001  0.30050890  0.64025905  1  0.175876  0  0.112073  0.133231  0  1.039305  0
H  H55  1  0.55852539  0.19949407  0.35974092  1  0.175821  0  0.112072  0.133288  0  1.039172  0
H  H56  1  0.45066455  0.56180441  0.27548026  1  0.121559  0  0.122231  0.099395  0  0.980605  0
H  H57  1  0.45066538  0.93819054  0.72451841  1  0.121602  0  0.122234  0.099421  0  0.980594  0
H  H58  1  0.54933719  0.43819358  0.72451956  1  0.121566  0  0.122217  0.099395  0  0.980591  0
H  H59  1  0.54933636  0.06180877  0.27547982  1  0.121548  0  0.122228  0.099411  0  0.980626  0
H  H60  1  0.36989797  0.69255041  0.56805385  1  0.146416  0  0.107371  0.126462  0  1.050616  0
H  H61  1  0.36990515  0.80744368  0.43194251  1  0.146472  0  0.107394  0.126468  0  1.050703  0
H  H62  1  0.63010276  0.30744958  0.43194498  1  0.146395  0  0.107386  0.126442  0  1.050679  0
H  H63  1  0.63009660  0.19255428  0.56805453  1  0.146412  0  0.107404  0.126469  0  1.050722  0
H  H64  1  0.12016521  0.46366692  0.27930067  1  0.106609  0  0.1168  0.084034  0  1.021022  0
H  H65  1  0.12016455  0.03633402  0.72069672  1  0.106554  0  0.116767  0.084  0  1.020969  0
H  H66  1  0.87983552  0.53633647  0.72070389  1  0.106446  0  0.11681  0.084068  0  1.021037  0
H  H67  1  0.87984429  0.96366256  0.27929637  1  0.10663  0  0.116821  0.084133  0  1.02089  0
H  H68  1  0.96424722  0.52252724  0.18650271  1  0.110233  0  0.112536  0.120085  0  1.00548  0
H  H69  1  0.96424361  0.97747597  0.81349616  1  0.110355  0  0.112538  0.120065  0  1.005474  0
H  H70  1  0.03575351  0.47747684  0.81350245  1  0.110273  0  0.112536  0.12  0  1.005547  0
H  H71  1  0.03575712  0.02252195  0.18649533  1  0.110236  0  0.112523  0.119973  0  1.005603  0
H  H72  1  0.23999391  0.41607677  0.01468730  1  0.053769  0  0.11206  0.118159  0  0.993696  0
H  H73  1  0.23999004  0.08392345  0.98531178  1  0.053782  0  0.112045  0.118147  0  0.993643  0
H  H74  1  0.76000885  0.58392732  0.98531952  1  0.053601  0  0.112027  0.118134  0  0.993761  0
H  H75  1  0.76000968  0.91607447  0.01468082  1  0.053604  0  0.112058  0.118187  0  0.993755  0
H  H76  1  0.38375264  0.36074746  0.11574752  1  0.146401  0  0.125104  0.105421  0  0.988698  0
H  H77  1  0.38374679  0.13925055  0.88425263  1  0.146378  0  0.125097  0.105432  0  0.988687  0
H  H78  1  0.61624809  0.63925260  0.88425852  1  0.146892  0  0.125127  0.105466  0  0.98866  0
H  H79  1  0.61625597  0.86074806  0.11574168  1  0.147043  0  0.125098  0.105411  0  0.988794  0
H  H80  1  0.90816583  0.54502125  0.06129645  1  0.047003  0  0.108646  0.105836  0  1.001199  0
H  H81  1  0.90816580  0.95498030  0.93870396  1  0.046918  0  0.10864  0.105845  0  1.00116  0
H  H82  1  0.09183592  0.45498149  0.93870974  1  0.046982  0  0.108651  0.105815  0  1.001169  0
H  H83  1  0.09183594  0.04502099  0.06129049  1  0.04654  0  0.108639  0.105819  0  1.001159  0
C  C84  1  0.28590972  0.20352716  0.30881816  1  1.556271  0  0.190488  0.550704  0  4.25845  0
C  C85  1  0.28590841  0.29646945  0.69118297  1  1.555638  0  0.190496  0.550685  0  4.258268  0
C  C86  1  0.71408798  0.79647220  0.69118507  1  1.555695  0  0.19051  0.550762  0  4.258476  0
C  C87  1  0.71409334  0.70352585  0.30881559  1  1.555848  0  0.190486  0.550738  0  4.258394  0
C  C88  1  0.19636793  0.13850648  0.34570962  1  -0.052875  0  -0.021567  -0.037201  0  3.976703  0
C  C89  1  0.19636463  0.36149070  0.65429426  1  -0.053157  0  -0.021583  -0.03721  0  3.97678  0
C  C90  1  0.80362875  0.86149488  0.65429261  1  -0.053113  0  -0.021607  -0.037312  0  3.977007  0
C  C91  1  0.80363509  0.63850394  0.34570704  1  -0.053065  0  -0.021626  -0.037383  0  3.97698  0
C  C92  1  0.10051948  0.16895075  0.39937024  1  -0.102078  0  -0.086427  -0.093015  0  3.964932  0
C  C93  1  0.10051954  0.33104906  0.60063596  1  -0.101774  0  -0.086476  -0.093159  0  3.965103  0
C  C94  1  0.89947720  0.83104458  0.60063221  1  -0.102019  0  -0.086445  -0.093102  0  3.964751  0
C  C95  1  0.89948018  0.66895165  0.39936790  1  -0.101827  0  -0.08644  -0.092993  0  3.964859  0
C  C96  1  0.01113984  0.10850439  0.42886080  1  -0.070291  0  -0.097529  -0.096431  0  4.028132  0
C  C97  1  0.01113698  0.39149592  0.57114037  1  -0.07039  0  -0.097503  -0.096271  0  4.027987  0
C  C98  1  0.98886089  0.89149695  0.57113921  1  -0.070401  0  -0.097484  -0.096249  0  4.028037  0
C  C99  1  0.98886172  0.60850075  0.42886215  1  -0.069919  0  -0.097506  -0.096363  0  4.028075  0
C  C100  1  0.01928831  0.01698290  0.40642245  1  0.037976  0  -0.093968  -0.088461  0  4.017829  0
C  C101  1  0.01929435  0.48301871  0.59357936  1  0.037872  0  -0.093971  -0.088539  0  4.017897  0
C  C102  1  0.98070735  0.98301376  0.59357841  1  0.037945  0  -0.093952  -0.088502  0  4.017893  0
C  C103  1  0.98071043  0.51698199  0.40642394  1  0.037628  0  -0.093957  -0.08847  0  4.018009  0
C  C104  1  0.11725038  0.98584202  0.35464112  1  -0.075871  0  -0.096079  -0.093714  0  4.014807  0
C  C105  1  0.11725192  0.51415700  0.64535815  1  -0.076111  0  -0.096076  -0.093738  0  4.014822  0
C  C106  1  0.88274529  0.01415865  0.64535941  1  -0.075799  0  -0.09603  -0.093762  0  4.014659  0
C  C107  1  0.88274983  0.48583968  0.35464493  1  -0.076107  0  -0.095994  -0.093709  0  4.014838  0
C  C108  1  0.20427212  0.04661358  0.32368447  1  -0.077573  0  -0.088587  -0.104472  0  3.972738  0
C  C109  1  0.20427467  0.45338557  0.67631952  1  -0.077336  0  -0.088598  -0.104384  0  3.97261  0
C  C110  1  0.79572355  0.95338309  0.67631805  1  -0.077462  0  -0.088575  -0.104287  0  3.972825  0
C  C111  1  0.79573012  0.54661312  0.32368367  1  -0.07746  0  -0.088562  -0.10436  0  3.972752  0
C  C112  1  0.64613359  0.32887520  0.24910392  1  1.535244  0  0.199136  0.562744  0  4.217986  0
C  C113  1  0.64612907  0.17112452  0.75089314  1  1.535243  0  0.199135  0.562808  0  4.21776  0
C  C114  1  0.35386410  0.67112415  0.75089875  1  1.535259  0  0.199078  0.562662  0  4.217999  0
C  C115  1  0.35387064  0.82887679  0.24910298  1  1.535255  0  0.199129  0.562823  0  4.217735  0
C  C116  1  0.77138446  0.30131173  0.20664015  1  -0.01431  0  -0.019604  -0.032068  0  3.978579  0
C  C117  1  0.77137660  0.19868925  0.79335872  1  -0.014298  0  -0.019711  -0.032346  0  3.97885  0
C  C118  1  0.22861323  0.69868832  0.79336478  1  -0.014277  0  -0.019607  -0.031994  0  3.978452  0
C  C119  1  0.22862109  0.80130939  0.20663891  1  -0.014278  0  -0.019645  -0.03212  0  3.978562  0
C  C120  1  0.78717718  0.32105632  0.13230739  1  -0.069022  0  -0.088581  -0.095016  0  3.970866  0
C  C121  1  0.78717379  0.17894389  0.86769089  1  -0.068909  0  -0.088537  -0.094836  0  3.970735  0
C  C122  1  0.21281443  0.67894437  0.86769480  1  -0.068816  0  -0.088658  -0.095087  0  3.971113  0
C  C123  1  0.21282491  0.82105741  0.13230467  1  -0.069257  0  -0.088589  -0.095041  0  3.970773  0
C  C124  1  0.90390413  0.29406237  0.09326011  1  -0.052903  0  -0.100828  -0.098562  0  4.049358  0
C  C125  1  0.90389840  0.20593376  0.90673746  1  -0.052836  0  -0.100817  -0.098631  0  4.049063  0
C  C126  1  0.09608951  0.70593698  0.90674145  1  -0.052976  0  -0.100914  -0.098684  0  4.049381  0
C  C127  1  0.09609726  0.79406756  0.09326033  1  -0.052665  0  -0.100787  -0.098543  0  4.04946  0
C  C128  1  0.00454774  0.24598551  0.12768244  1  -0.069441  0  -0.095578  -0.083683  0  4.01904  0
C  C129  1  0.00454533  0.25401414  0.87231537  1  -0.069336  0  -0.095558  -0.083548  0  4.019002  0
C  C130  1  0.99544691  0.75401785  0.87231768  1  -0.06943  0  -0.095553  -0.083621  0  4.018685  0
C  C131  1  0.99545236  0.74598919  0.12768142  1  -0.069491  0  -0.095628  -0.083749  0  4.01914  0
C  C132  1  0.98905881  0.22586732  0.20169104  1  -0.000916  0  -0.096472  -0.086237  0  4.011562  0
C  C133  1  0.98904889  0.27413029  0.79830555  1  -0.001109  0  -0.096421  -0.086233  0  4.011806  0
C  C134  1  0.01094496  0.77413469  0.79830845  1  -0.000982  0  -0.096449  -0.086189  0  4.011782  0
C  C135  1  0.01094778  0.72587104  0.20169279  1  -0.000891  0  -0.096429  -0.086191  0  4.011605  0
C  C136  1  0.87319449  0.25386571  0.24120237  1  -0.104481  0  -0.086237  -0.098317  0  3.96891  0
C  C137  1  0.87318692  0.24613532  0.75879601  1  -0.104337  0  -0.086219  -0.098287  0  3.969072  0
C  C138  1  0.12680725  0.74613700  0.75879993  1  -0.104296  0  -0.086188  -0.098399  0  3.969158  0
C  C139  1  0.12681179  0.75386801  0.24120023  1  -0.104492  0  -0.086251  -0.098342  0  3.969182  0
C  C140  1  0.35228592  0.46953229  0.42704870  1  0.444874  0  0.046358  0.089987  0  3.948064  0
C  C141  1  0.35228406  0.03046054  0.57295003  1  0.445461  0  0.04637  0.090059  0  3.94813  0
C  C142  1  0.64771481  0.53046638  0.57295171  1  0.444923  0  0.046413  0.090075  0  3.948005  0
C  C143  1  0.64771769  0.96953811  0.42704816  1  0.445535  0  0.046368  0.090087  0  3.948085  0
C  C144  1  0.34697688  0.54339414  0.47843706  1  -0.063374  0  -0.079246  -0.176722  0  3.928878  0
C  C145  1  0.34697808  0.95660147  0.52156381  1  -0.063311  0  -0.079245  -0.176771  0  3.929026  0
C  C146  1  0.65302183  0.45660520  0.52156339  1  -0.063408  0  -0.079239  -0.176696  0  3.928865  0
C  C147  1  0.65302569  0.04339718  0.47843549  1  -0.063379  0  -0.079252  -0.176704  0  3.928924  0
C  C148  1  0.37780795  0.62929599  0.45584380  1  -0.041691  0  0.01273  0.152127  0  4.009122  0
C  C149  1  0.37781141  0.87069739  0.54415363  1  -0.041634  0  0.012731  0.152094  0  4.009073  0
C  C150  1  0.62219075  0.37070267  0.54415550  1  -0.041705  0  0.012686  0.152024  0  4.009208  0
C  C151  1  0.62219135  0.12930124  0.45584289  1  -0.041629  0  0.01272  0.152055  0  4.009259  0
C  C152  1  0.41524256  0.63542680  0.38098683  1  -0.000974  0  -0.076221  -0.157906  0  3.886371  0
C  C153  1  0.41524523  0.86456971  0.61901191  1  -0.000937  0  -0.076187  -0.157854  0  3.886307  0
C  C154  1  0.58475615  0.36457186  0.61901303  1  -0.001004  0  -0.07621  -0.157903  0  3.886424  0
C  C155  1  0.58475753  0.13542894  0.38098683  1  -0.001539  0  -0.07624  -0.157957  0  3.886446  0
C  C156  1  0.41945382  0.55853610  0.33330101  1  0.419377  0  0.046233  0.087316  0  3.948785  0
C  C157  1  0.41945551  0.94145769  0.66669647  1  0.419411  0  0.046292  0.087332  0  3.948663  0
C  C158  1  0.58054589  0.44146256  0.66669884  1  0.419361  0  0.046277  0.087357  0  3.948775  0
C  C159  1  0.58054725  0.05854095  0.33330117  1  0.419862  0  0.046363  0.087443  0  3.948647  0
C  C160  1  0.37432247  0.70698690  0.50952842  1  -0.111672  0  -0.079496  -0.122805  0  3.916284  0
C  C161  1  0.37432591  0.79300650  0.49046901  1  0.00998  0  -0.079556  -0.122853  0  3.916338  0
C  C162  1  0.62567725  0.29301309  0.49047040  1  0.010101  0  -0.079523  -0.122784  0  3.916013  0
C  C163  1  0.62567584  0.20699014  0.50952963  1  -0.111638  0  -0.079552  -0.122838  0  3.916162  0
C  C164  1  0.14269802  0.45433170  0.22001050  1  0.498272  0  0.054451  0.103094  0  3.937651  0
C  C165  1  0.14269431  0.04566979  0.77998804  1  0.498127  0  0.054555  0.103236  0  3.937664  0
C  C166  1  0.85730372  0.54567035  0.77999399  1  0.497952  0  0.054498  0.103079  0  3.937616  0
C  C167  1  0.85730744  0.95432813  0.22000400  1  0.497704  0  0.054528  0.103028  0  3.937605  0
C  C168  1  0.05646408  0.48757160  0.16785561  1  -0.037418  0  -0.071168  -0.158328  0  3.907498  0
C  C169  1  0.05646295  0.01243309  0.83214196  1  -0.037481  0  -0.071259  -0.158388  0  3.907699  0
C  C170  1  0.94353564  0.51243382  0.83215018  1  -0.036652  0  -0.071306  -0.158396  0  3.907806  0
C  C171  1  0.94353879  0.98756684  0.16785020  1  -0.036634  0  -0.071316  -0.158343  0  3.907641  0
C  C172  1  0.08799320  0.47468732  0.09173844  1  0.01936  0  0.012573  0.149413  0  4.021349  0
C  C173  1  0.08798797  0.02531651  0.90825909  1  0.019354  0  0.012628  0.149585  0  4.021401  0
C  C174  1  0.91200956  0.52531541  0.90826664  1  0.019635  0  0.012668  0.149613  0  4.021241  0
C  C175  1  0.91200972  0.97468409  0.09173255  1  0.019592  0  0.012657  0.149578  0  4.021271  0
C  C176  1  0.20864623  0.42822206  0.07255131  1  -0.006124  0  -0.078587  -0.175043  0  3.932209  0
C  C177  1  0.20863938  0.07177903  0.92744724  1  -0.006157  0  -0.0786  -0.17512  0  3.932313  0
C  C178  1  0.79135653  0.57178135  0.92745491  1  -0.006265  0  -0.078492  -0.174983  0  3.932344  0
C  C179  1  0.79136034  0.92822157  0.07254440  1  -0.006083  0  -0.078544  -0.175043  0  3.932281  0
C  C180  1  0.28935466  0.39687506  0.12792976  1  0.445508  0  0.051802  0.096291  0  3.942664  0
C  C181  1  0.28935133  0.10312554  0.87206937  1  0.445697  0  0.051801  0.096315  0  3.942678  0
C  C182  1  0.71064607  0.60312702  0.87207695  1  0.445298  0  0.051639  0.096028  0  3.942699  0
C  C183  1  0.71065042  0.89687239  0.12792378  1  0.444844  0  0.051747  0.09622  0  3.942609  0
C  C184  1  0.99447677  0.50716861  0.03736268  1  0.044245  0  -0.072321  -0.114016  0  3.952522  0
C  C185  1  0.99447626  0.99283377  0.96263950  1  0.044311  0  -0.072305  -0.114074  0  3.952868  0
C  C186  1  0.00552498  0.49283414  0.96264407  1  -0.060221  0  -0.072278  -0.113898  0  3.952317  0
C  C187  1  0.00552548  0.00716685  0.03735381  1  -0.059815  0  -0.072268  -0.113881  0  3.952555  0
N  N188  1  0.38806115  0.47662716  0.35546213  1  -1.265326  0  -0.336306  -0.243512  0  3.595044  0
N  N189  1  0.38805952  0.02336880  0.64453735  1  -1.26569  0  -0.336376  -0.243573  0  3.594735  0
N  N190  1  0.61194059  0.52337217  0.64453832  1  -1.265292  0  -0.336358  -0.243549  0  3.595025  0
N  N191  1  0.61194527  0.97662918  0.35546191  1  -1.265849  0  -0.336405  -0.243703  0  3.594814  0
N  N192  1  0.25732074  0.40968086  0.20077055  1  -1.262632  0  -0.324444  -0.228144  0  3.54992  0
N  N193  1  0.25731947  0.09031993  0.79922802  1  -1.262626  0  -0.324465  -0.228282  0  3.549864  0
N  N194  1  0.74267695  0.59032188  0.79923509  1  -1.262836  0  -0.324361  -0.227953  0  3.549488  0
N  N195  1  0.74268633  0.90967868  0.20076573  1  -1.262574  0  -0.324425  -0.228137  0  3.54997  0
O  O196  1  0.29154112  0.28414081  0.34186830  1  -1.172733  0  -0.343994  -0.566096  0  2.320935  0
O  O197  1  0.29153885  0.21585779  0.65813405  1  -1.172741  0  -0.344013  -0.566063  0  2.32096  0
O  O198  1  0.70845658  0.71585923  0.65813608  1  -1.172619  0  -0.343999  -0.566073  0  2.320981  0
O  O199  1  0.70846493  0.78414084  0.34186247  1  -1.172805  0  -0.343914  -0.565976  0  2.321022  0
O  O200  1  0.34623923  0.17994441  0.24957435  1  -1.172161  0  -0.340342  -0.559628  0  2.071646  0
O  O201  1  0.34624885  0.32005251  0.75042850  1  -1.171615  0  -0.340336  -0.55962  0  2.071372  0
O  O202  1  0.65375644  0.82005762  0.75042736  1  -1.171739  0  -0.340343  -0.559639  0  2.071689  0
O  O203  1  0.65375695  0.67994079  0.24957217  1  -1.171711  0  -0.340373  -0.559658  0  2.071476  0
O  O204  1  0.54556137  0.35746097  0.21105760  1  -1.17161  0  -0.336775  -0.559324  0  2.312754  0
O  O205  1  0.54556037  0.14253335  0.78894188  1  -1.171654  0  -0.33679  -0.559334  0  2.312511  0
O  O206  1  0.45443429  0.64253503  0.78894544  1  -1.171733  0  -0.336709  -0.559284  0  2.312759  0
O  O207  1  0.45444239  0.85746730  0.21105531  1  -1.171765  0  -0.336762  -0.559348  0  2.312615  0
O  O208  1  0.64062036  0.32306445  0.31825836  1  -1.174881  0  -0.318106  -0.561413  0  2.20486  0
O  O209  1  0.64061158  0.17693600  0.68174096  1  -1.174988  0  -0.318048  -0.561358  0  2.204822  0
O  O210  1  0.35937531  0.67693829  0.68174783  1  -1.174709  0  -0.318057  -0.561281  0  2.204881  0
O  O211  1  0.35938307  0.82306531  0.31825460  1  -1.17482  0  -0.318059  -0.561368  0  2.204755  0
