# generated using pymatgen
data_NaZnH12C18(NO3)3
_symmetry_space_group_name_H-M   'P 1'
_cell_length_a   10.02339609
_cell_length_b   10.02339490
_cell_length_c   13.74453388
_cell_angle_alpha   68.61114803
_cell_angle_beta   68.61109617
_cell_angle_gamma   60.00599040
_symmetry_Int_Tables_number   1
_chemical_formula_structural   NaZnH12C18(NO3)3
_chemical_formula_sum   'Na2 Zn2 H24 C36 N6 O18'
_cell_volume   1084.73734039
_cell_formula_units_Z   2
loop_
 _symmetry_equiv_pos_site_id
 _symmetry_equiv_pos_as_xyz
  1  'x, y, z'
loop_
 _atom_site_type_symbol
 _atom_site_label
 _atom_site_symmetry_multiplicity
 _atom_site_fract_x
 _atom_site_fract_y
 _atom_site_fract_z
 _atom_site_occupancy
 _atom_site_hle17_bader_spin_density
 _atom_site_hle17_ddec_charge
 _atom_site_hle17_ddec_spin_density
 _atom_site_hle17_ddec_sum_bond_order
 _atom_site_hle17_magmom
 _atom_site_hse06_10hf_bader_spin_density
 _atom_site_hse06_10hf_ddec_charge
 _atom_site_hse06_10hf_ddec_spin_density
 _atom_site_hse06_10hf_ddec_sum_bond_order
 _atom_site_hse06_10hf_magmom
 _atom_site_hse06_bader_spin_density
 _atom_site_hse06_ddec_charge
 _atom_site_hse06_ddec_spin_density
 _atom_site_hse06_ddec_sum_bond_order
 _atom_site_hse06_magmom
 _atom_site_pbe_bader_spin_density
 _atom_site_pbe_cm5_charge
 _atom_site_pbe_ddec_charge
 _atom_site_pbe_ddec_spin_density
 _atom_site_pbe_ddec_sum_bond_order
 _atom_site_pbe_magmom
Na  Na0  1  0.46403114  0.46407093  0.60784714  1  0  0.925014  0  0.370743  0  0  0.886353  0  0.519283  0  0  0.8966  0  0.497453  0  0  0.697513  0.877932  0  0.535834  0
Na  Na1  1  0.96406650  0.96403536  0.10784669  1  0  0.925008  0  0.370757  0  0  0.886354  0  0.519285  0  0  0.896599  0  0.497448  0  0  0.697502  0.877928  0  0.535836  0
Zn  Zn2  1  0.05193563  0.05199392  0.84400806  1  0  1.175894  0  1.852981  0  0  1.023649  0  2.325985  0  0  1.070498  0  2.26184  0  0  0.67615  0.990407  0  2.369283  0
Zn  Zn3  1  0.55199341  0.55193589  0.34400778  1  0  1.1759  0  1.852955  0  0  1.023651  0  2.325947  0  0  1.070497  0  2.261804  0  0  0.676141  0.990405  0  2.369248  0
H  H4  1  0.32016947  0.84914949  0.10112832  1  0  0.309547  0  0.909364  0  0  0.283264  0  0.983365  0  0  0.294043  0  0.973879  0  0  0.310958  0.275414  0  0.990525  0
H  H5  1  0.84906988  0.72965686  0.10117437  1  0  0.311578  0  0.908184  0  0  0.285071  0  0.982287  0  0  0.295881  0  0.972806  0  0  0.311284  0.277206  0  0.989438  0
H  H6  1  0.72954494  0.32020243  0.10118806  1  0  0.310718  0  0.909018  0  0  0.284443  0  0.98302  0  0  0.295239  0  0.973502  0  0  0.31157  0.276747  0  0.989941  0
H  H7  1  0.22965678  0.34907060  0.60117404  1  0  0.311593  0  0.908197  0  0  0.285086  0  0.982291  0  0  0.2959  0  0.972802  0  0  0.31129  0.277221  0  0.989435  0
H  H8  1  0.82019911  0.22954819  0.60118665  1  0  0.310737  0  0.908993  0  0  0.28445  0  0.982997  0  0  0.295243  0  0.97348  0  0  0.311573  0.276753  0  0.989915  0
H  H9  1  0.34914841  0.82017071  0.60112852  1  0  0.309564  0  0.909352  0  0  0.283273  0  0.983358  0  0  0.294052  0  0.973872  0  0  0.310955  0.275427  0  0.990517  0
H  H10  1  0.54024198  0.85729460  0.11818799  1  0  0.101878  0  0.953297  0  0  0.107916  0  1.018534  0  0  0.111259  0  1.014766  0  0  0.12672  0.105464  0  1.02123  0
H  H11  1  0.85707505  0.48434088  0.11831267  1  0  0.102268  0  0.953258  0  0  0.108494  0  1.018376  0  0  0.111877  0  1.01452  0  0  0.126621  0.106009  0  1.021105  0
H  H12  1  0.48428188  0.54026950  0.11825460  1  0  0.102198  0  0.952974  0  0  0.108442  0  1.018002  0  0  0.111803  0  1.01421  0  0  0.126782  0.105973  0  1.02073  0
H  H13  1  0.98434187  0.35707131  0.61831271  1  0  0.102272  0  0.953226  0  0  0.108468  0  1.018385  0  0  0.111849  0  1.01453  0  0  0.126612  0.105985  0  1.021113  0
H  H14  1  0.04026810  0.98428445  0.61825260  1  0  0.102137  0  0.953014  0  0  0.108372  0  1.018046  0  0  0.111733  0  1.014256  0  0  0.126756  0.105905  0  1.020771  0
H  H15  1  0.35729315  0.04024362  0.61818715  1  0  0.101927  0  0.953252  0  0  0.107967  0  1.018486  0  0  0.111311  0  1.014715  0  0  0.126726  0.105514  0  1.021184  0
H  H16  1  0.54110336  0.18197967  0.80609347  1  0  0.102789  0  0.96493  0  0  0.109937  0  1.030258  0  0  0.113586  0  1.026049  0  0  0.111963  0.107331  0  1.03314  0
H  H17  1  0.18184081  0.47084510  0.80624531  1  0  0.103945  0  0.963541  0  0  0.110919  0  1.028948  0  0  0.114527  0  1.024765  0  0  0.112474  0.108355  0  1.031785  0
H  H18  1  0.47094044  0.54104915  0.80617096  1  0  0.103598  0  0.965135  0  0  0.110533  0  1.030382  0  0  0.114148  0  1.026187  0  0  0.112727  0.107983  0  1.03318  0
H  H19  1  0.97084370  0.68183951  0.30624688  1  0  0.103929  0  0.963537  0  0  0.110878  0  1.028971  0  0  0.114485  0  1.02479  0  0  0.112457  0.108319  0  1.031796  0
H  H20  1  0.04104520  0.97094263  0.30617044  1  0  0.103577  0  0.965142  0  0  0.110489  0  1.030418  0  0  0.114101  0  1.026225  0  0  0.112703  0.107935  0  1.033214  0
H  H21  1  0.68197845  0.04110414  0.30609290  1  0  0.102772  0  0.964956  0  0  0.109923  0  1.03028  0  0  0.113571  0  1.026073  0  0  0.111961  0.107319  0  1.033156  0
H  H22  1  0.66494444  0.02894395  0.96696869  1  0  0.126662  0  0.956965  0  0  0.132159  0  1.020679  0  0  0.136125  0  1.020515  0  0  0.109473  0.129495  0  1.020715  0
H  H23  1  0.02876374  0.33918442  0.96707913  1  0  0.128894  0  0.954821  0  0  0.133725  0  1.01907  0  0  0.13768  0  1.018926  0  0  0.110072  0.131055  0  1.0191  0
H  H24  1  0.33922386  0.66490840  0.96701243  1  0  0.127554  0  0.956131  0  0  0.132364  0  1.020393  0  0  0.136413  0  1.020117  0  0  0.10947  0.129697  0  1.020433  0
H  H25  1  0.83918360  0.52876275  0.46707997  1  0  0.128889  0  0.954859  0  0  0.133716  0  1.019116  0  0  0.137673  0  1.018969  0  0  0.110073  0.131048  0  1.019141  0
H  H26  1  0.16490481  0.83922527  0.46701236  1  0  0.127556  0  0.956135  0  0  0.132352  0  1.020413  0  0  0.136401  0  1.020136  0  0  0.109492  0.129687  0  1.020457  0
H  H27  1  0.52894421  0.16494407  0.46696837  1  0  0.126643  0  0.956997  0  0  0.132153  0  1.020697  0  0  0.136119  0  1.020531  0  0  0.109463  0.129481  0  1.020738  0
C  C28  1  0.30057821  0.18669559  0.76594242  1  0  0.678609  0  3.915797  0  0  0.632618  0  4.207392  0  0  0.66703  0  4.200533  0  0  0.209541  0.609486  0  4.211532  0
C  C29  1  0.18672209  0.74665362  0.76600992  1  0  0.681929  0  3.9107  0  0  0.635757  0  4.202689  0  0  0.67014  0  4.195828  0  0  0.209994  0.612622  0  4.206875  0
C  C30  1  0.74662182  0.30060469  0.76603252  1  0  0.679324  0  3.913796  0  0  0.633126  0  4.205633  0  0  0.667505  0  4.198845  0  0  0.209754  0.610024  0  4.209757  0
C  C31  1  0.24665234  0.68672247  0.26600991  1  0  0.681942  0  3.910732  0  0  0.635764  0  4.202722  0  0  0.670148  0  4.195861  0  0  0.209995  0.612642  0  4.206887  0
C  C32  1  0.80060404  0.24662436  0.26603115  1  0  0.679446  0  3.913632  0  0  0.633244  0  4.205494  0  0  0.667624  0  4.198705  0  0  0.209806  0.610147  0  4.209613  0
C  C33  1  0.68669371  0.80058043  0.26594081  1  0  0.678515  0  3.915776  0  0  0.632514  0  4.207388  0  0  0.666924  0  4.200531  0  0  0.209475  0.609389  0  4.211513  0
C  C34  1  0.30475096  0.98928681  0.94978223  1  0  0.545228  0  3.817765  0  0  0.501273  0  4.090356  0  0  0.528831  0  4.095826  0  0  0.231048  0.483352  0  4.085496  0
C  C35  1  0.98921795  0.75618423  0.94983518  1  0  0.547651  0  3.814692  0  0  0.504183  0  4.086635  0  0  0.531802  0  4.09207  0  0  0.23189  0.486223  0  4.081834  0
C  C36  1  0.75622814  0.30477427  0.94983485  1  0  0.547534  0  3.81447  0  0  0.502801  0  4.088077  0  0  0.530376  0  4.093515  0  0  0.23149  0.484901  0  4.083214  0
C  C37  1  0.25618337  0.48921752  0.44983564  1  0  0.547648  0  3.814704  0  0  0.504179  0  4.086648  0  0  0.531798  0  4.092084  0  0  0.231869  0.486216  0  4.081853  0
C  C38  1  0.80477210  0.25623043  0.44983402  1  0  0.547595  0  3.814422  0  0  0.502831  0  4.088067  0  0  0.530407  0  4.093503  0  0  0.231479  0.484923  0  4.083209  0
C  C39  1  0.48928415  0.80475381  0.44978078  1  0  0.545376  0  3.817589  0  0  0.501367  0  4.090238  0  0  0.528926  0  4.095705  0  0  0.231066  0.483433  0  4.0854  0
C  C40  1  0.36770205  0.09171838  0.86377292  1  0  -0.25928  0  3.699745  0  0  -0.235947  0  3.937516  0  0  -0.256441  0  3.960571  0  0  -0.030876  -0.223112  0  3.922156  0
C  C41  1  0.09166008  0.67678091  0.86387112  1  0  -0.260947  0  3.700152  0  0  -0.238435  0  3.938758  0  0  -0.258926  0  3.961765  0  0  -0.030969  -0.225601  0  3.92345  0
C  C42  1  0.67685349  0.36768243  0.86385081  1  0  -0.258483  0  3.699532  0  0  -0.235036  0  3.937381  0  0  -0.255523  0  3.960458  0  0  -0.030377  -0.222234  0  3.922091  0
C  C43  1  0.17678013  0.59165957  0.36387042  1  0  -0.260958  0  3.700158  0  0  -0.238447  0  3.93876  0  0  -0.258939  0  3.961765  0  0  -0.030975  -0.225608  0  3.923447  0
C  C44  1  0.86768108  0.17685691  0.36384907  1  0  -0.258538  0  3.699497  0  0  -0.235138  0  3.937431  0  0  -0.255626  0  3.960507  0  0  -0.030397  -0.222329  0  3.922126  0
C  C45  1  0.59171644  0.86770480  0.36377232  1  0  -0.259334  0  3.699698  0  0  -0.235987  0  3.937492  0  0  -0.256481  0  3.960547  0  0  -0.030872  -0.223148  0  3.922131  0
C  C46  1  0.49794730  0.92709828  0.04474993  1  0  0.171012  0  3.653695  0  0  0.129151  0  3.910358  0  0  0.142511  0  3.923857  0  0  0.061356  0.120534  0  3.90121  0
C  C47  1  0.92688097  0.53027443  0.04485374  1  0  0.170742  0  3.65568  0  0  0.128608  0  3.911793  0  0  0.142005  0  3.925322  0  0  0.060977  0.119963  0  3.902666  0
C  C48  1  0.53025887  0.49796714  0.04481380  1  0  0.17072  0  3.656568  0  0  0.128771  0  3.912725  0  0  0.142114  0  3.926262  0  0  0.061623  0.120158  0  3.90358  0
C  C49  1  0.03027536  0.42687952  0.54485397  1  0  0.170766  0  3.6557  0  0  0.128644  0  3.911825  0  0  0.142044  0  3.925351  0  0  0.060985  0.119999  0  3.902706  0
C  C50  1  0.99796452  0.03026060  0.54481267  1  0  0.170717  0  3.656607  0  0  0.128772  0  3.91272  0  0  0.142115  0  3.926257  0  0  0.061617  0.120158  0  3.903578  0
C  C51  1  0.42709620  0.99794971  0.54474986  1  0  0.171026  0  3.653717  0  0  0.129153  0  3.910358  0  0  0.142511  0  3.923859  0  0  0.061383  0.12054  0  3.901215  0
C  C52  1  0.49504187  0.10402307  0.87245116  1  0  0.036865  0  3.703743  0  0  0.007211  0  3.951768  0  0  0.019416  0  3.96623  0  0  -0.054679  -0.000149  0  3.941485  0
C  C53  1  0.10387937  0.52849269  0.87258085  1  0  0.036056  0  3.703748  0  0  0.006857  0  3.95191  0  0  0.019103  0  3.966328  0  0  -0.055544  -0.000525  0  3.941648  0
C  C54  1  0.52855878  0.49502970  0.87253619  1  0  0.034866  0  3.705776  0  0  0.005556  0  3.953502  0  0  0.017783  0  3.96797  0  0  -0.05582  -0.001824  0  3.943241  0
C  C55  1  0.02849275  0.60387793  0.37258169  1  0  0.03607  0  3.703746  0  0  0.006894  0  3.9519  0  0  0.019139  0  3.966319  0  0  -0.055541  -0.000498  0  3.941637  0
C  C56  1  0.99502651  0.02856054  0.37253569  1  0  0.034893  0  3.705705  0  0  0.005619  0  3.953433  0  0  0.017848  0  3.967901  0  0  -0.055793  -0.001761  0  3.943163  0
C  C57  1  0.60402104  0.99504368  0.37245059  1  0  0.03692  0  3.703741  0  0  0.007261  0  3.951768  0  0  0.019468  0  3.966231  0  0  -0.054664  -9.8e-05  0  3.941476  0
C  C58  1  0.56328175  0.02106837  0.96198854  1  0  -0.177176  0  3.753018  0  0  -0.194512  0  4.020933  0  0  -0.208062  0  4.042823  0  0  -0.106616  -0.186276  0  4.006357  0
C  C59  1  0.02084705  0.45371779  0.96210423  1  0  -0.180369  0  3.752641  0  0  -0.197175  0  4.020805  0  0  -0.210718  0  4.042634  0  0  -0.107527  -0.188913  0  4.006285  0
C  C60  1  0.45374871  0.56329003  0.96204673  1  0  -0.17753  0  3.754548  0  0  -0.194257  0  4.022282  0  0  -0.207847  0  4.044085  0  0  -0.106718  -0.185996  0  4.007726  0
C  C61  1  0.95371739  0.52084616  0.46210456  1  0  -0.180373  0  3.752687  0  0  -0.197171  0  4.020836  0  0  -0.210713  0  4.042662  0  0  -0.107524  -0.188906  0  4.006316  0
C  C62  1  0.06328821  0.95374825  0.46204694  1  0  -0.177465  0  3.754454  0  0  -0.194197  0  4.022189  0  0  -0.207787  0  4.043992  0  0  -0.10672  -0.18594  0  4.007646  0
C  C63  1  0.52106716  0.06328250  0.46198898  1  0  -0.177197  0  3.753105  0  0  -0.194547  0  4.021022  0  0  -0.208098  0  4.042916  0  0  -0.106628  -0.186306  0  4.00645  0
N  N64  1  0.37381770  0.91556254  0.03723099  1  0  -0.343451  0  3.382983  0  0  -0.270497  0  3.606719  0  0  -0.291725  0  3.616581  0  0  -0.361181  -0.256479  0  3.599964  0
N  N65  1  0.91540924  0.67345586  0.03728782  1  0  -0.347325  0  3.385129  0  0  -0.274079  0  3.608812  0  0  -0.29547  0  3.618766  0  0  -0.362024  -0.259965  0  3.601999  0
N  N66  1  0.67342918  0.37385952  0.03729025  1  0  -0.346054  0  3.385772  0  0  -0.27316  0  3.610162  0  0  -0.294412  0  3.619988  0  0  -0.362196  -0.259169  0  3.603299  0
N  N67  1  0.17345527  0.41540941  0.53728804  1  0  -0.347369  0  3.385228  0  0  -0.274116  0  3.608904  0  0  -0.295508  0  3.61885  0  0  -0.362014  -0.260003  0  3.602102  0
N  N68  1  0.87385754  0.17343260  0.53728899  1  0  -0.346084  0  3.385787  0  0  -0.273118  0  3.610089  0  0  -0.294367  0  3.619915  0  0  -0.362174  -0.259127  0  3.603227  0
N  N69  1  0.41556152  0.87381899  0.53722986  1  0  -0.343521  0  3.382985  0  0  -0.270516  0  3.606679  0  0  -0.291745  0  3.616545  0  0  -0.361171  -0.256499  0  3.599936  0
O  O70  1  0.18454051  0.17748801  0.75398529  1  0  -0.6597  0  2.044606  0  0  -0.596555  0  2.306701  0  0  -0.623515  0  2.291292  0  0  -0.326545  -0.577631  0  2.316374  0
O  O71  1  0.17758261  0.88385259  0.75397237  1  0  -0.660733  0  2.044343  0  0  -0.597093  0  2.306023  0  0  -0.624043  0  2.290617  0  0  -0.325862  -0.578185  0  2.315727  0
O  O72  1  0.88383444  0.18461476  0.75395127  1  0  -0.660014  0  2.044564  0  0  -0.596444  0  2.306194  0  0  -0.623417  0  2.290785  0  0  -0.326095  -0.577537  0  2.315759  0
O  O73  1  0.38384963  0.67758544  0.25397371  1  0  -0.660736  0  2.044343  0  0  -0.597084  0  2.306012  0  0  -0.624035  0  2.290608  0  0  -0.325841  -0.578185  0  2.315713  0
O  O74  1  0.68461370  0.38383686  0.25394901  1  0  -0.660083  0  2.04449  0  0  -0.596515  0  2.30614  0  0  -0.623493  0  2.290737  0  0  -0.326131  -0.577601  0  2.31568  0
O  O75  1  0.67748605  0.68454188  0.25398501  1  0  -0.659639  0  2.044609  0  0  -0.596493  0  2.306707  0  0  -0.62345  0  2.291301  0  0  -0.326515  -0.577573  0  2.316377  0
O  O76  1  0.36136930  0.27679131  0.69545340  1  0  -0.683586  0  1.939099  0  0  -0.644419  0  2.176401  0  0  -0.66656  0  2.163547  0  0  -0.389784  -0.628868  0  2.184875  0
O  O77  1  0.27679147  0.66615751  0.69559976  1  0  -0.684104  0  1.934071  0  0  -0.644937  0  2.171394  0  0  -0.667139  0  2.15875  0  0  -0.389873  -0.629403  0  2.179866  0
O  O78  1  0.66602333  0.36136886  0.69568717  1  0  -0.683656  0  1.936429  0  0  -0.644532  0  2.173837  0  0  -0.666677  0  2.161064  0  0  -0.389986  -0.629051  0  2.182208  0
O  O79  1  0.16615654  0.77679127  0.19559974  1  0  -0.684097  0  1.934076  0  0  -0.644926  0  2.17139  0  0  -0.66713  0  2.158746  0  0  -0.389865  -0.629396  0  2.179852  0
O  O80  1  0.86136989  0.16602436  0.19568560  1  0  -0.683688  0  1.936402  0  0  -0.644558  0  2.17382  0  0  -0.666699  0  2.16104  0  0  -0.389995  -0.62908  0  2.182189  0
O  O81  1  0.77678781  0.86137372  0.19545127  1  0  -0.683544  0  1.939036  0  0  -0.644369  0  2.176333  0  0  -0.666507  0  2.163479  0  0  -0.389754  -0.628822  0  2.184798  0
O  O82  1  0.19381643  0.95783919  0.95565991  1  0  -0.650021  0  2.12633  0  0  -0.598646  0  2.397477  0  0  -0.622578  0  2.385437  0  0  -0.349549  -0.58177  0  2.404296  0
O  O83  1  0.95782147  0.89269239  0.95567850  1  0  -0.649649  0  2.122393  0  0  -0.598591  0  2.394051  0  0  -0.622444  0  2.381721  0  0  -0.349504  -0.581629  0  2.400763  0
O  O84  1  0.89272836  0.19386775  0.95568502  1  0  -0.651015  0  2.122965  0  0  -0.598883  0  2.394004  0  0  -0.622818  0  2.381921  0  0  -0.349738  -0.58203  0  2.400794  0
O  O85  1  0.39269107  0.45782225  0.45567844  1  0  -0.649619  0  2.122367  0  0  -0.598566  0  2.394034  0  0  -0.622413  0  2.381684  0  0  -0.34949  -0.581603  0  2.400747  0
O  O86  1  0.69386544  0.39273042  0.45568524  1  0  -0.651047  0  2.122979  0  0  -0.598897  0  2.394012  0  0  -0.622834  0  2.381927  0  0  -0.349726  -0.582042  0  2.400801  0
O  O87  1  0.45783808  0.69381729  0.45565970  1  0  -0.650107  0  2.126227  0  0  -0.598711  0  2.397389  0  0  -0.622646  0  2.385347  0  0  -0.349576  -0.581831  0  2.404217  0
