# generated using pymatgen
data_ZnH4(CN2)4
_symmetry_space_group_name_H-M   'P 1'
_cell_length_a   8.50616381
_cell_length_b   11.02571470
_cell_length_c   15.08223176
_cell_angle_alpha   89.99999300
_cell_angle_beta   90.00001276
_cell_angle_gamma   89.99999476
_symmetry_Int_Tables_number   1
_chemical_formula_structural   ZnH4(CN2)4
_chemical_formula_sum   'Zn8 H32 C32 N64'
_cell_volume   1414.51026181
_cell_formula_units_Z   8
loop_
 _symmetry_equiv_pos_site_id
 _symmetry_equiv_pos_as_xyz
  1  'x, y, z'
loop_
 _atom_site_type_symbol
 _atom_site_label
 _atom_site_symmetry_multiplicity
 _atom_site_fract_x
 _atom_site_fract_y
 _atom_site_fract_z
 _atom_site_occupancy
 _atom_site_hle17_bader_spin_density
 _atom_site_hle17_ddec_charge
 _atom_site_hle17_ddec_spin_density
 _atom_site_hle17_ddec_sum_bond_order
 _atom_site_hle17_magmom
 _atom_site_hse06_10hf_bader_spin_density
 _atom_site_hse06_10hf_ddec_charge
 _atom_site_hse06_10hf_ddec_spin_density
 _atom_site_hse06_10hf_ddec_sum_bond_order
 _atom_site_hse06_10hf_magmom
 _atom_site_hse06_bader_spin_density
 _atom_site_hse06_ddec_charge
 _atom_site_hse06_ddec_spin_density
 _atom_site_hse06_ddec_sum_bond_order
 _atom_site_hse06_magmom
 _atom_site_pbe_bader_spin_density
 _atom_site_pbe_cm5_charge
 _atom_site_pbe_ddec_charge
 _atom_site_pbe_ddec_spin_density
 _atom_site_pbe_ddec_sum_bond_order
 _atom_site_pbe_magmom
Zn  Zn0  1  0.89311013  0.88605493  0.90554902  1  0  0.878239  0  1.981813  0  0  0.664911  0  2.459384  0  0  0.705487  0  2.41734  0  0  0.752032  0.636908  0  2.488251  0
Zn  Zn1  1  0.60689057  0.11394539  0.40554877  1  0  0.878255  0  1.981761  0  0  0.664944  0  2.459336  0  0  0.705505  0  2.417284  0  0  0.752045  0.636928  0  2.488198  0
Zn  Zn2  1  0.10688964  0.38605474  0.59445114  1  0  0.87822  0  1.98181  0  0  0.664897  0  2.459388  0  0  0.705463  0  2.417335  0  0  0.752023  0.636883  0  2.48825  0
Zn  Zn3  1  0.39310904  0.61394567  0.09445154  1  0  0.878222  0  1.981822  0  0  0.66489  0  2.459387  0  0  0.705464  0  2.417341  0  0  0.751989  0.636846  0  2.488238  0
Zn  Zn4  1  0.10688956  0.11394634  0.09445088  1  0  0.878213  0  1.981829  0  0  0.664884  0  2.459413  0  0  0.705448  0  2.417364  0  0  0.752007  0.636861  0  2.488283  0
Zn  Zn5  1  0.39310912  0.88605497  0.59445113  1  0  0.878247  0  1.981805  0  0  0.664917  0  2.459393  0  0  0.705488  0  2.417343  0  0  0.752034  0.63691  0  2.48826  0
Zn  Zn6  1  0.89311005  0.61394562  0.40554943  1  0  0.878247  0  1.98182  0  0  0.664909  0  2.459397  0  0  0.705476  0  2.417348  0  0  0.752023  0.636889  0  2.48827  0
Zn  Zn7  1  0.60689066  0.38605470  0.90554837  1  0  0.878232  0  1.981815  0  0  0.664893  0  2.459391  0  0  0.705477  0  2.417344  0  0  0.752012  0.636878  0  2.488236  0
H  H8  1  0.92380198  0.63180294  0.75913437  1  0  0.106334  0  0.97118  0  0  0.106528  0  1.05438  0  0  0.109626  0  1.05215  0  0  0.100945  0.104353  0  1.055966  0
H  H9  1  0.57619867  0.36819740  0.25913408  1  0  0.106345  0  0.971159  0  0  0.106535  0  1.054364  0  0  0.109635  0  1.052133  0  0  0.10095  0.104358  0  1.05594  0
H  H10  1  0.07619900  0.13180273  0.74086516  1  0  0.106349  0  0.971162  0  0  0.106537  0  1.05437  0  0  0.109638  0  1.052138  0  0  0.100952  0.104364  0  1.055955  0
H  H11  1  0.42380209  0.86819674  0.24086553  1  0  0.106327  0  0.971183  0  0  0.106517  0  1.054386  0  0  0.109616  0  1.052156  0  0  0.100938  0.104341  0  1.05597  0
H  H12  1  0.07619771  0.36819742  0.24086554  1  0  0.106339  0  0.97118  0  0  0.106535  0  1.054377  0  0  0.109633  0  1.052148  0  0  0.100938  0.104346  0  1.055974  0
H  H13  1  0.42380102  0.63180296  0.74086582  1  0  0.106348  0  0.971156  0  0  0.106536  0  1.054365  0  0  0.109637  0  1.052133  0  0  0.100951  0.104361  0  1.055942  0
H  H14  1  0.92380187  0.86819763  0.25913408  1  0  0.106306  0  0.971219  0  0  0.106518  0  1.054407  0  0  0.109618  0  1.052178  0  0  0.100943  0.104343  0  1.055977  0
H  H15  1  0.57619878  0.13180271  0.75913437  1  0  0.106326  0  0.97118  0  0  0.106514  0  1.054389  0  0  0.109615  0  1.052156  0  0  0.100947  0.104341  0  1.055975  0
H  H16  1  0.09256829  0.54098799  0.77095286  1  0  0.104251  0  0.946849  0  0  0.11799  0  1.00468  0  0  0.119407  0  1.005485  0  0  0.104086  0.116995  0  1.004183  0
H  H17  1  0.40743163  0.45901148  0.27095327  1  0  0.104256  0  0.94684  0  0  0.117994  0  1.004675  0  0  0.119411  0  1.00548  0  0  0.104088  0.116998  0  1.004173  0
H  H18  1  0.90743153  0.04098773  0.72904733  1  0  0.104248  0  0.946842  0  0  0.117987  0  1.004675  0  0  0.119404  0  1.005479  0  0  0.104089  0.116992  0  1.004189  0
H  H19  1  0.59256911  0.95901171  0.22904700  1  0  0.104248  0  0.946829  0  0  0.117986  0  1.004666  0  0  0.119403  0  1.00547  0  0  0.104087  0.116985  0  1.004182  0
H  H20  1  0.90743140  0.45901237  0.22904704  1  0  0.104252  0  0.946827  0  0  0.117992  0  1.004663  0  0  0.119408  0  1.005468  0  0  0.104081  0.116983  0  1.004184  0
H  H21  1  0.59256923  0.54098798  0.72904729  1  0  0.104246  0  0.946835  0  0  0.117984  0  1.004674  0  0  0.119401  0  1.005479  0  0  0.104085  0.116984  0  1.004185  0
H  H22  1  0.09256816  0.95901173  0.27095323  1  0  0.104252  0  0.94683  0  0  0.117993  0  1.004672  0  0  0.119411  0  1.005477  0  0  0.104086  0.116996  0  1.004172  0
H  H23  1  0.40743176  0.04098774  0.77095290  1  0  0.104248  0  0.946842  0  0  0.117987  0  1.004678  0  0  0.119404  0  1.005481  0  0  0.104087  0.116995  0  1.004184  0
H  H24  1  0.97134872  0.46595154  0.92074242  1  0  0.10515  0  0.936269  0  0  0.115437  0  1.003299  0  0  0.117186  0  1.002604  0  0  0.103459  0.114138  0  1.003849  0
H  H25  1  0.52865199  0.53404877  0.42074146  1  0  0.105158  0  0.936245  0  0  0.115466  0  1.003246  0  0  0.117215  0  1.002549  0  0  0.103482  0.114169  0  1.003802  0
H  H26  1  0.02865105  0.96595094  0.57925773  1  0  0.105119  0  0.936327  0  0  0.115434  0  1.003318  0  0  0.117184  0  1.00262  0  0  0.103471  0.114141  0  1.00387  0
H  H27  1  0.47134763  0.03404856  0.07925819  1  0  0.105155  0  0.936275  0  0  0.115465  0  1.003276  0  0  0.117214  0  1.00258  0  0  0.103479  0.114158  0  1.003843  0
H  H28  1  0.02865215  0.53404882  0.07925814  1  0  0.105137  0  0.936302  0  0  0.115442  0  1.003301  0  0  0.117192  0  1.002607  0  0  0.103455  0.114133  0  1.003856  0
H  H29  1  0.47134887  0.46595159  0.57925845  1  0  0.105174  0  0.936257  0  0  0.115457  0  1.003282  0  0  0.117206  0  1.002586  0  0  0.10348  0.114159  0  1.003843  0
H  H30  1  0.97134864  0.03404852  0.42074151  1  0  0.105154  0  0.936285  0  0  0.115474  0  1.003268  0  0  0.117224  0  1.002571  0  0  0.103487  0.114171  0  1.00383  0
H  H31  1  0.52865206  0.96595180  0.92074171  1  0  0.105179  0  0.936253  0  0  0.115445  0  1.003304  0  0  0.117194  0  1.002608  0  0  0.103476  0.114154  0  1.003852  0
H  H32  1  0.05448181  0.61378236  0.91469683  1  0  0.105094  0  0.96836  0  0  0.107831  0  1.049192  0  0  0.110646  0  1.046702  0  0  0.103806  0.105771  0  1.051002  0
H  H33  1  0.44551817  0.38621800  0.41469726  1  0  0.105087  0  0.968369  0  0  0.107819  0  1.04921  0  0  0.110632  0  1.046722  0  0  0.103816  0.10576  0  1.051033  0
H  H34  1  0.94551799  0.11378211  0.58530269  1  0  0.105109  0  0.968356  0  0  0.10784  0  1.049197  0  0  0.110653  0  1.046708  0  0  0.103822  0.105783  0  1.051023  0
H  H35  1  0.55448259  0.88621735  0.08530302  1  0  0.105068  0  0.968371  0  0  0.107803  0  1.049213  0  0  0.110616  0  1.046725  0  0  0.103807  0.105738  0  1.051042  0
H  H36  1  0.94551788  0.38621801  0.08530307  1  0  0.10511  0  0.968356  0  0  0.107842  0  1.049191  0  0  0.110656  0  1.046702  0  0  0.10381  0.105768  0  1.051027  0
H  H37  1  0.55448270  0.61378327  0.58530331  1  0  0.105073  0  0.968378  0  0  0.107806  0  1.049213  0  0  0.110619  0  1.046726  0  0  0.103813  0.105745  0  1.051042  0
H  H38  1  0.05448170  0.88621825  0.41469721  1  0  0.105079  0  0.968367  0  0  0.10781  0  1.049214  0  0  0.110624  0  1.046724  0  0  0.10381  0.105749  0  1.051035  0
H  H39  1  0.44551828  0.11378301  0.91469688  1  0  0.105078  0  0.968376  0  0  0.107812  0  1.049209  0  0  0.110624  0  1.046721  0  0  0.103815  0.105758  0  1.051024  0
C  C40  1  0.96831912  0.54747099  0.78946344  1  0  -0.189192  0  3.673208  0  0  -0.226771  0  3.920921  0  0  -0.229911  0  3.930225  0  0  -0.155031  -0.224563  0  3.914552  0
C  C41  1  0.53168154  0.45252935  0.28946381  1  0  -0.189172  0  3.673226  0  0  -0.226748  0  3.920932  0  0  -0.229893  0  3.930238  0  0  -0.155014  -0.224528  0  3.914534  0
C  C42  1  0.03168069  0.04746988  0.71053675  1  0  -0.189203  0  3.673195  0  0  -0.226762  0  3.920905  0  0  -0.229906  0  3.930207  0  0  -0.155015  -0.224542  0  3.91453  0
C  C43  1  0.46831921  0.95252869  0.21053647  1  0  -0.189192  0  3.673213  0  0  -0.226745  0  3.920905  0  0  -0.229886  0  3.930208  0  0  -0.155023  -0.224534  0  3.914531  0
C  C44  1  0.03168057  0.45252847  0.21053646  1  0  -0.189215  0  3.673234  0  0  -0.226786  0  3.920937  0  0  -0.229925  0  3.930242  0  0  -0.155037  -0.224569  0  3.914574  0
C  C45  1  0.46831933  0.54747010  0.71053610  1  0  -0.189196  0  3.673206  0  0  -0.226757  0  3.920904  0  0  -0.229901  0  3.930209  0  0  -0.155014  -0.22454  0  3.914525  0
C  C46  1  0.96831900  0.95252867  0.28946381  1  0  -0.189139  0  3.673232  0  0  -0.226749  0  3.920953  0  0  -0.229893  0  3.930263  0  0  -0.155026  -0.224529  0  3.914549  0
C  C47  1  0.53168166  0.04747076  0.78946277  1  0  -0.189172  0  3.673204  0  0  -0.226737  0  3.920897  0  0  -0.229879  0  3.930199  0  0  -0.15501  -0.224527  0  3.914532  0
C  C48  1  0.80863259  0.61122286  0.92527423  1  0  0.374155  0  3.660305  0  0  0.344571  0  3.928931  0  0  0.358243  0  3.944693  0  0  0.239236  0.335418  0  3.918219  0
C  C49  1  0.69136812  0.38877746  0.42527462  1  0  0.37417  0  3.660325  0  0  0.344564  0  3.928945  0  0  0.358235  0  3.944702  0  0  0.239245  0.335417  0  3.918239  0
C  C50  1  0.19136722  0.11122267  0.57472530  1  0  0.374152  0  3.660343  0  0  0.344559  0  3.92898  0  0  0.358231  0  3.944739  0  0  0.239238  0.335415  0  3.918263  0
C  C51  1  0.30863263  0.88877683  0.07472566  1  0  0.374156  0  3.660307  0  0  0.344579  0  3.928933  0  0  0.35825  0  3.944699  0  0  0.239252  0.335425  0  3.918211  0
C  C52  1  0.19136710  0.38877660  0.07472567  1  0  0.374146  0  3.660304  0  0  0.344562  0  3.928926  0  0  0.358234  0  3.944693  0  0  0.239225  0.33541  0  3.918202  0
C  C53  1  0.30863274  0.61122290  0.57472594  1  0  0.374152  0  3.660329  0  0  0.344565  0  3.928953  0  0  0.358234  0  3.94472  0  0  0.23924  0.335419  0  3.918233  0
C  C54  1  0.80863247  0.88877769  0.42527394  1  0  0.374102  0  3.660409  0  0  0.344522  0  3.929038  0  0  0.358196  0  3.944795  0  0  0.239223  0.335374  0  3.918324  0
C  C55  1  0.69136706  0.11122262  0.92527424  1  0  0.374166  0  3.660299  0  0  0.34459  0  3.928911  0  0  0.358259  0  3.944677  0  0  0.239263  0.33544  0  3.918208  0
C  C56  1  0.95734474  0.55649987  0.89134027  1  0  -0.196509  0  3.667579  0  0  -0.23236  0  3.909543  0  0  -0.23492  0  3.919128  0  0  -0.151192  -0.230354  0  3.902811  0
C  C57  1  0.54265595  0.44350136  0.39133998  1  0  -0.196515  0  3.667538  0  0  -0.232399  0  3.909553  0  0  -0.234958  0  3.919141  0  0  -0.151242  -0.230398  0  3.902838  0
C  C58  1  0.04265624  0.05649969  0.60865926  1  0  -0.196496  0  3.667577  0  0  -0.232364  0  3.909551  0  0  -0.234932  0  3.919157  0  0  -0.151221  -0.23036  0  3.902829  0
C  C59  1  0.45734479  0.94350072  0.10865964  1  0  -0.1965  0  3.667594  0  0  -0.232368  0  3.909555  0  0  -0.234931  0  3.919149  0  0  -0.151229  -0.230359  0  3.902845  0
C  C60  1  0.04265612  0.44350049  0.10866029  1  0  -0.196495  0  3.667578  0  0  -0.232379  0  3.909598  0  0  -0.234937  0  3.919174  0  0  -0.151198  -0.230372  0  3.902884  0
C  C61  1  0.45734374  0.55649901  0.60865926  1  0  -0.196508  0  3.66759  0  0  -0.232349  0  3.909564  0  0  -0.234909  0  3.919152  0  0  -0.151226  -0.230347  0  3.902855  0
C  C62  1  0.95734462  0.94350068  0.39133998  1  0  -0.196512  0  3.667603  0  0  -0.232379  0  3.90958  0  0  -0.23494  0  3.919171  0  0  -0.151239  -0.230375  0  3.902862  0
C  C63  1  0.54265608  0.05649874  0.89134027  1  0  -0.19651  0  3.667565  0  0  -0.23236  0  3.909561  0  0  -0.234922  0  3.919155  0  0  -0.151219  -0.230354  0  3.902828  0
C  C64  1  0.88338541  0.44172093  0.75128142  1  0  0.359708  0  3.705315  0  0  0.334185  0  3.972956  0  0  0.348149  0  3.988048  0  0  0.226016  0.324902  0  3.962599  0
C  C65  1  0.61661523  0.55827941  0.25128179  1  0  0.359623  0  3.705389  0  0  0.334114  0  3.97301  0  0  0.348079  0  3.988105  0  0  0.225962  0.324821  0  3.962653  0
C  C66  1  0.11661435  0.94172120  0.74871807  1  0  0.359712  0  3.705311  0  0  0.334153  0  3.972994  0  0  0.348119  0  3.988086  0  0  0.225978  0.324864  0  3.96264  0
C  C67  1  0.38338556  0.05827827  0.24871785  1  0  0.359695  0  3.705313  0  0  0.334153  0  3.972981  0  0  0.348119  0  3.988073  0  0  0.225972  0.324869  0  3.962615  0
C  C68  1  0.11661428  0.55827852  0.24871848  1  0  0.359713  0  3.705297  0  0  0.33417  0  3.972957  0  0  0.348135  0  3.98805  0  0  0.225964  0.324876  0  3.962591  0
C  C69  1  0.38338564  0.44172095  0.74871811  1  0  0.359663  0  3.705382  0  0  0.334107  0  3.973053  0  0  0.348073  0  3.988147  0  0  0.225965  0.324817  0  3.962691  0
C  C70  1  0.88338534  0.05827916  0.25128183  1  0  0.359625  0  3.705395  0  0  0.334122  0  3.973035  0  0  0.348087  0  3.988128  0  0  0.225963  0.324835  0  3.962678  0
C  C71  1  0.61661530  0.94172027  0.75128138  1  0  0.359683  0  3.705392  0  0  0.334145  0  3.973044  0  0  0.34811  0  3.988136  0  0  0.225975  0.324857  0  3.962696  0
N  N72  1  0.78308170  0.73013397  0.93980589  1  0  -0.31882  0  3.202198  0  0  -0.249504  0  3.510742  0  0  -0.267858  0  3.521057  0  0  -0.230286  -0.237306  0  3.503811  0
N  N73  1  0.71691902  0.26986634  0.43980563  1  0  -0.318789  0  3.202152  0  0  -0.249472  0  3.510702  0  0  -0.267821  0  3.521008  0  0  -0.230269  -0.237266  0  3.50376  0
N  N74  1  0.21691927  0.23013378  0.56019362  1  0  -0.318794  0  3.202165  0  0  -0.24947  0  3.510707  0  0  -0.26782  0  3.521011  0  0  -0.230264  -0.237265  0  3.503762  0
N  N75  1  0.28308175  0.76986663  0.06019399  1  0  -0.318789  0  3.202158  0  0  -0.249481  0  3.510727  0  0  -0.267826  0  3.521015  0  0  -0.230279  -0.237275  0  3.503767  0
N  N76  1  0.21691799  0.26986639  0.06019467  1  0  -0.318809  0  3.20217  0  0  -0.249493  0  3.51072  0  0  -0.26784  0  3.521018  0  0  -0.2303  -0.237302  0  3.503801  0
N  N77  1  0.28308185  0.73013402  0.56019427  1  0  -0.318813  0  3.202182  0  0  -0.249493  0  3.510728  0  0  -0.267846  0  3.521039  0  0  -0.230274  -0.237294  0  3.503789  0
N  N78  1  0.78308160  0.76986658  0.43980562  1  0  -0.31878  0  3.202162  0  0  -0.24947  0  3.51072  0  0  -0.267816  0  3.521014  0  0  -0.230277  -0.237258  0  3.503768  0
N  N79  1  0.71691912  0.23013373  0.93980591  1  0  -0.318796  0  3.202082  0  0  -0.249485  0  3.510642  0  0  -0.26784  0  3.520953  0  0  -0.230275  -0.237273  0  3.503689  0
N  N80  1  0.67690106  0.55089480  0.94703891  1  0  -0.328606  0  3.181396  0  0  -0.260602  0  3.482175  0  0  -0.278194  0  3.492805  0  0  -0.244017  -0.248923  0  3.475076  0
N  N81  1  0.82310083  0.44910551  0.44703865  1  0  -0.328615  0  3.181495  0  0  -0.260545  0  3.482194  0  0  -0.278129  0  3.492815  0  0  -0.243988  -0.248857  0  3.475102  0
N  N82  1  0.32309993  0.05089460  0.55296129  1  0  -0.328583  0  3.181472  0  0  -0.260583  0  3.482262  0  0  -0.278171  0  3.492885  0  0  -0.243983  -0.248898  0  3.475167  0
N  N83  1  0.17689991  0.94910490  0.05296163  1  0  -0.328573  0  3.181366  0  0  -0.260576  0  3.482154  0  0  -0.278163  0  3.492777  0  0  -0.243996  -0.248903  0  3.475083  0
N  N84  1  0.32309863  0.44910466  0.05296166  1  0  -0.328544  0  3.181398  0  0  -0.260532  0  3.482167  0  0  -0.278122  0  3.492797  0  0  -0.243974  -0.248849  0  3.475066  0
N  N85  1  0.17690121  0.55089485  0.55296125  1  0  -0.328592  0  3.181363  0  0  -0.260599  0  3.482166  0  0  -0.278186  0  3.492789  0  0  -0.243998  -0.248918  0  3.475076  0
N  N86  1  0.67690094  0.94910485  0.44703862  1  0  -0.328531  0  3.181473  0  0  -0.260536  0  3.482252  0  0  -0.278122  0  3.492875  0  0  -0.243968  -0.248855  0  3.475164  0
N  N87  1  0.82309978  0.05089455  0.94703894  1  0  -0.328598  0  3.181402  0  0  -0.2606  0  3.482191  0  0  -0.27819  0  3.492816  0  0  -0.244004  -0.248915  0  3.475105  0
N  N88  1  0.57090146  0.63510975  0.97429149  1  0  -0.09321  0  3.078234  0  0  -0.064038  0  3.383955  0  0  -0.066941  0  3.393639  0  0  -0.091663  -0.061968  0  3.377513  0
N  N89  1  0.92909927  0.36489056  0.47429126  1  0  -0.093234  0  3.078257  0  0  -0.064081  0  3.383967  0  0  -0.066982  0  3.393646  0  0  -0.091649  -0.062013  0  3.377537  0
N  N90  1  0.42909952  0.13510955  0.52570803  1  0  -0.09324  0  3.078234  0  0  -0.064082  0  3.383974  0  0  -0.06698  0  3.393651  0  0  -0.091716  -0.062016  0  3.377544  0
N  N91  1  0.07090031  0.86488996  0.02570770  1  0  -0.09327  0  3.078265  0  0  -0.064107  0  3.384001  0  0  -0.067008  0  3.393684  0  0  -0.091744  -0.062067  0  3.377601  0
N  N92  1  0.42909941  0.36489061  0.02570841  1  0  -0.093285  0  3.078277  0  0  -0.064129  0  3.384022  0  0  -0.067032  0  3.393705  0  0  -0.091714  -0.062085  0  3.377616  0
N  N93  1  0.07090042  0.63510980  0.52570798  1  0  -0.093228  0  3.078214  0  0  -0.064062  0  3.383951  0  0  -0.066962  0  3.393631  0  0  -0.091709  -0.061999  0  3.377527  0
N  N94  1  0.57090135  0.86488991  0.47429187  1  0  -0.093243  0  3.078288  0  0  -0.064081  0  3.384025  0  0  -0.066982  0  3.393705  0  0  -0.091704  -0.06202  0  3.3776  0
N  N95  1  0.92909939  0.13510949  0.97429220  1  0  -0.093235  0  3.078245  0  0  -0.064068  0  3.38398  0  0  -0.066966  0  3.393659  0  0  -0.091684  -0.061994  0  3.37754  0
N  N96  1  0.63460467  0.74229917  0.96940893  1  0  -0.042096  0  2.970212  0  0  -0.046029  0  3.271337  0  0  -0.042121  0  3.280785  0  0  -0.074918  -0.048438  0  3.26506  0
N  N97  1  0.86539606  0.25770114  0.46940935  1  0  -0.042119  0  2.970206  0  0  -0.046063  0  3.271348  0  0  -0.042156  0  3.280795  0  0  -0.074951  -0.048467  0  3.265071  0
N  N98  1  0.36539630  0.24229897  0.53059125  1  0  -0.0421  0  2.970195  0  0  -0.046027  0  3.271317  0  0  -0.04212  0  3.280764  0  0  -0.074903  -0.048424  0  3.265033  0
N  N99  1  0.13460353  0.75770144  0.03059028  1  0  -0.042075  0  2.970176  0  0  -0.046009  0  3.271301  0  0  -0.042101  0  3.280751  0  0  -0.074905  -0.048417  0  3.265017  0
N  N100  1  0.36539620  0.25770119  0.03059097  1  0  -0.042076  0  2.970134  0  0  -0.046006  0  3.27126  0  0  -0.042097  0  3.280706  0  0  -0.07493  -0.048431  0  3.265015  0
N  N101  1  0.13460363  0.74229922  0.53059055  1  0  -0.042088  0  2.970175  0  0  -0.046018  0  3.271302  0  0  -0.04211  0  3.280749  0  0  -0.074904  -0.04842  0  3.265021  0
N  N102  1  0.63460339  0.75770139  0.46940932  1  0  -0.042105  0  2.970225  0  0  -0.046036  0  3.271351  0  0  -0.042128  0  3.280799  0  0  -0.074901  -0.048438  0  3.265069  0
N  N103  1  0.86539734  0.24229892  0.96940963  1  0  -0.042106  0  2.970093  0  0  -0.046035  0  3.271221  0  0  -0.042128  0  3.280669  0  0  -0.074903  -0.048426  0  3.264922  0
N  N104  1  0.91599235  0.38681656  0.67336590  1  0  -0.353604  0  3.21074  0  0  -0.281483  0  3.513434  0  0  -0.301125  0  3.525837  0  0  -0.252034  -0.268255  0  3.504857  0
N  N105  1  0.58400827  0.61318470  0.17336626  1  0  -0.353589  0  3.210795  0  0  -0.281465  0  3.51348  0  0  -0.301104  0  3.525874  0  0  -0.252  -0.268234  0  3.504887  0
N  N106  1  0.08400743  0.88681591  0.82663492  1  0  -0.353625  0  3.210765  0  0  -0.281485  0  3.513457  0  0  -0.30113  0  3.525863  0  0  -0.25203  -0.268264  0  3.504876  0
N  N107  1  0.41599252  0.11318446  0.32663470  1  0  -0.353597  0  3.210744  0  0  -0.281478  0  3.513452  0  0  -0.301118  0  3.525852  0  0  -0.252024  -0.268263  0  3.50489  0
N  N108  1  0.08400735  0.61318380  0.32663466  1  0  -0.353606  0  3.210723  0  0  -0.281481  0  3.513421  0  0  -0.301124  0  3.525826  0  0  -0.252037  -0.268276  0  3.504877  0
N  N109  1  0.41599142  0.38681566  0.82663364  1  0  -0.353616  0  3.210777  0  0  -0.281454  0  3.513433  0  0  -0.301103  0  3.525849  0  0  -0.252014  -0.268227  0  3.504835  0
N  N110  1  0.91599226  0.11318355  0.17336631  1  0  -0.353626  0  3.210768  0  0  -0.281502  0  3.513435  0  0  -0.301145  0  3.525843  0  0  -0.252023  -0.268274  0  3.504854  0
N  N111  1  0.58400835  0.88681590  0.67336586  1  0  -0.353641  0  3.210857  0  0  -0.2815  0  3.513528  0  0  -0.301146  0  3.525941  0  0  -0.252015  -0.268279  0  3.50496  0
N  N112  1  0.75940944  0.38594949  0.78791923  1  0  -0.367139  0  3.161443  0  0  -0.303688  0  3.447934  0  0  -0.321972  0  3.462796  0  0  -0.241939  -0.291327  0  3.43777  0
N  N113  1  0.74059121  0.61405085  0.28791961  1  0  -0.367092  0  3.161477  0  0  -0.303653  0  3.447981  0  0  -0.321935  0  3.462842  0  0  -0.241941  -0.29131  0  3.437837  0
N  N114  1  0.24059033  0.88594976  0.71207960  1  0  -0.367156  0  3.161457  0  0  -0.303699  0  3.447979  0  0  -0.32198  0  3.462838  0  0  -0.241963  -0.291354  0  3.437835  0
N  N115  1  0.25940839  0.11405063  0.21208069  1  0  -0.367135  0  3.161453  0  0  -0.303679  0  3.447957  0  0  -0.32196  0  3.462817  0  0  -0.241941  -0.291319  0  3.43778  0
N  N116  1  0.24059142  0.61405087  0.21208067  1  0  -0.367153  0  3.161476  0  0  -0.303679  0  3.447965  0  0  -0.321963  0  3.462829  0  0  -0.241941  -0.291324  0  3.43779  0
N  N117  1  0.25940965  0.38594952  0.71208029  1  0  -0.367113  0  3.16147  0  0  -0.303657  0  3.447986  0  0  -0.321937  0  3.462844  0  0  -0.241961  -0.291312  0  3.437845  0
N  N118  1  0.75940936  0.11405061  0.28791963  1  0  -0.367106  0  3.161517  0  0  -0.303679  0  3.44803  0  0  -0.321959  0  3.462889  0  0  -0.24194  -0.29133  0  3.437877  0
N  N119  1  0.74059012  0.88594883  0.78791921  1  0  -0.367148  0  3.161492  0  0  -0.303687  0  3.44798  0  0  -0.321968  0  3.462841  0  0  -0.24195  -0.291334  0  3.437826  0
N  N120  1  0.80990105  0.29600703  0.66324803  1  0  -0.067398  0  2.965138  0  0  -0.062281  0  3.25916  0  0  -0.06123  0  3.271648  0  0  -0.094763  -0.062711  0  3.250649  0
N  N121  1  0.69009956  0.70399333  0.16324906  1  0  -0.067346  0  2.965137  0  0  -0.06223  0  3.25916  0  0  -0.06118  0  3.271651  0  0  -0.094779  -0.062668  0  3.250634  0
N  N122  1  0.19009874  0.79600637  0.83675214  1  0  -0.067372  0  2.965134  0  0  -0.062252  0  3.259156  0  0  -0.061202  0  3.271646  0  0  -0.094755  -0.062671  0  3.250611  0
N  N123  1  0.30990004  0.20399399  0.33675190  1  0  -0.067401  0  2.965131  0  0  -0.062276  0  3.259155  0  0  -0.061226  0  3.271644  0  0  -0.09477  -0.062722  0  3.250657  0
N  N124  1  0.19009982  0.70399424  0.33675187  1  0  -0.067377  0  2.965086  0  0  -0.062254  0  3.259111  0  0  -0.061205  0  3.271601  0  0  -0.094773  -0.062716  0  3.250639  0
N  N125  1  0.30990013  0.29600703  0.83675084  1  0  -0.067296  0  2.965167  0  0  -0.062178  0  3.259183  0  0  -0.061128  0  3.271673  0  0  -0.094739  -0.062607  0  3.250659  0
N  N126  1  0.80989978  0.20399399  0.16324843  1  0  -0.06732  0  2.965062  0  0  -0.0622  0  3.259078  0  0  -0.061151  0  3.271567  0  0  -0.09474  -0.062627  0  3.250552  0
N  N127  1  0.69009966  0.79600637  0.66324867  1  0  -0.067336  0  2.965167  0  0  -0.062224  0  3.259198  0  0  -0.061175  0  3.271687  0  0  -0.094751  -0.062654  0  3.250679  0
N  N128  1  0.71683443  0.29569866  0.73151379  1  0  -0.076343  0  2.997083  0  0  -0.064672  0  3.291236  0  0  -0.064448  0  3.303314  0  0  -0.093683  -0.064575  0  3.283015  0
N  N129  1  0.78316503  0.70430078  0.23151483  1  0  -0.07642  0  2.997152  0  0  -0.064758  0  3.291325  0  0  -0.064536  0  3.303404  0  0  -0.093714  -0.064664  0  3.283095  0
N  N130  1  0.28316418  0.79569891  0.76848572  1  0  -0.076352  0  2.997118  0  0  -0.064691  0  3.291285  0  0  -0.064468  0  3.303364  0  0  -0.093684  -0.064598  0  3.28305  0
N  N131  1  0.21683574  0.20430056  0.26848613  1  0  -0.076339  0  2.99714  0  0  -0.06468  0  3.291308  0  0  -0.064456  0  3.303387  0  0  -0.093686  -0.064585  0  3.283085  0
N  N132  1  0.28316526  0.70429989  0.26848611  1  0  -0.07636  0  2.997154  0  0  -0.064708  0  3.291325  0  0  -0.064485  0  3.303404  0  0  -0.093727  -0.064633  0  3.283126  0
N  N133  1  0.21683584  0.29569958  0.76848574  1  0  -0.07644  0  2.997209  0  0  -0.064785  0  3.291385  0  0  -0.064561  0  3.303463  0  0  -0.093719  -0.064705  0  3.283179  0
N  N134  1  0.71683551  0.20429964  0.23151484  1  0  -0.076399  0  2.997172  0  0  -0.064726  0  3.291332  0  0  -0.064502  0  3.30341  0  0  -0.093696  -0.064628  0  3.2831  0
N  N135  1  0.78316512  0.79569890  0.73151443  1  0  -0.076378  0  2.997134  0  0  -0.064714  0  3.291298  0  0  -0.06449  0  3.303376  0  0  -0.093703  -0.064615  0  3.283068  0
