# generated using pymatgen
data_Zn4H64(C5O)13
_symmetry_space_group_name_H-M   'P 1'
_cell_length_a   19.46362309
_cell_length_b   19.50858361
_cell_length_c   19.55007243
_cell_angle_alpha   90.01585859
_cell_angle_beta   84.80229992
_cell_angle_gamma   84.74660488
_symmetry_Int_Tables_number   1
_chemical_formula_structural   Zn4H64(C5O)13
_chemical_formula_sum   'Zn4 H64 C65 O13'
_cell_volume   7361.46063015
_cell_formula_units_Z   1
loop_
 _symmetry_equiv_pos_site_id
 _symmetry_equiv_pos_as_xyz
  1  'x, y, z'
loop_
 _atom_site_type_symbol
 _atom_site_label
 _atom_site_symmetry_multiplicity
 _atom_site_fract_x
 _atom_site_fract_y
 _atom_site_fract_z
 _atom_site_occupancy
 _atom_site_pbe_bader_charge
 _atom_site_pbe_bader_spin_density
 _atom_site_pbe_cm5_charge
 _atom_site_pbe_ddec_charge
 _atom_site_pbe_ddec_spin_density
 _atom_site_pbe_ddec_sum_bond_order
 _atom_site_pbe_magmom
Zn  Zn0  1  0.55809989  0.55612533  0.44103400  1  1.312263  0  0.670783  0.961208  0  2.382745  0
Zn  Zn1  1  0.56009804  0.43517746  0.55087375  1  1.318671  0  0.670258  0.964008  0  2.387555  0
Zn  Zn2  1  0.44778998  0.44615460  0.44472708  1  1.310161  0  0.671041  0.95353  0  2.412779  0
Zn  Zn3  1  0.43652808  0.55883012  0.56481461  1  1.314631  0  0.671261  0.972705  0  2.353761  0
H  H4  1  0.53924394  0.76501366  0.40540703  1  0.097574  0  0.107602  0.112774  0  0.995593  0
H  H5  1  0.77005157  0.58718739  0.44404516  1  0.062752  0  0.106411  0.112992  0  0.993912  0
H  H6  1  0.77109935  0.38009610  0.51819467  1  0.081963  0  0.104347  0.110961  0  1.006259  0
H  H7  1  0.01014776  0.42198199  0.48118163  1  0.080152  0  0.100022  0.094112  0  1.0309  0
H  H8  1  0.89835959  0.58016564  0.44454057  1  0.052462  0  0.099944  0.099511  0  1.003251  0
H  H9  1  0.23139857  0.61830674  0.50589128  1  0.082301  0  0.103366  0.111333  0  1.000546  0
H  H10  1  0.99145792  0.57839887  0.50354746  1  0.058261  0  0.099983  0.095404  0  1.028781  0
H  H11  1  0.10165050  0.41282582  0.51646284  1  0.059452  0  0.096528  0.094956  0  1.052907  0
H  H12  1  0.49333006  0.24142561  0.37626275  1  0.083611  0  0.104702  0.112155  0  1.006419  0
H  H13  1  0.52618564  0.99756434  0.41297579  1  0.052619  0  0.100906  0.094241  0  1.027503  0
H  H14  1  0.45124854  0.89767799  0.61720529  1  0.067132  0  0.101468  0.100521  0  0.998126  0
H  H15  1  0.61512700  0.45542973  0.74988966  1  0.10113  0  0.106714  0.111851  0  0.995208  0
H  H16  1  0.54623266  0.09282789  0.57381380  1  0.066405  0  0.100974  0.100517  0  1.004259  0
H  H17  1  0.44375053  0.77080962  0.61233859  1  0.084091  0  0.108392  0.113666  0  0.990787  0
H  H18  1  0.48720146  0.00105436  0.56878987  1  0.068719  0  0.100646  0.097869  0  1.005366  0
H  H19  1  0.54616950  0.89097305  0.40868325  1  0.051686  0  0.101545  0.101201  0  1.006169  0
H  H20  1  0.41018815  0.04308122  0.38318161  1  0.026242  0  0.084485  0.112318  0  1.018436  0
H  H21  1  0.37856399  0.12617616  0.35697325  1  -0.001832  0  0.087566  0.11589  0  0.998557  0
H  H22  1  0.40977756  0.06196025  0.29417304  1  0.034578  0  0.086938  0.113377  0  1.000752  0
H  H23  1  0.49755811  0.14692154  0.30428023  1  0.035379  0  0.094795  0.089848  0  0.974466  0
H  H24  1  0.52998494  0.06408209  0.32815427  1  0.010775  0  0.091701  0.083052  0  0.985085  0
H  H25  1  0.64440904  0.33093022  0.33127576  1  0.020021  0  0.083811  0.113237  0  1.005079  0
H  H26  1  0.41020245  0.55901695  0.78048559  1  0.091814  0  0.106514  0.111339  0  0.994342  0
H  H27  1  0.66643740  0.28616985  0.25210259  1  0.005834  0  0.079766  0.10124  0  1.011707  0
H  H28  1  0.72567158  0.33938533  0.28440738  1  0.016188  0  0.085463  0.111402  0  1.003786  0
H  H29  1  0.66531990  0.40006674  0.18959579  1  0.009726  0  0.084432  0.070676  0  0.985075  0
H  H30  1  0.64461075  0.44444512  0.26824321  1  0.036786  0  0.08819  0.08487  0  0.985081  0
H  H31  1  0.53400696  0.38640373  0.28631411  1  0.045995  0  0.092019  0.095727  0  1.003203  0
H  H32  1  0.55340250  0.34433034  0.20690195  1  0.019508  0  0.091271  0.088075  0  1.004308  0
H  H33  1  0.36956354  0.58484824  0.32590279  1  0.050974  0  0.083826  0.119342  0  1.019963  0
H  H34  1  0.35533668  0.67620349  0.32453132  1  0.011926  0  0.083621  0.109144  0  1.004443  0
H  H35  1  0.33288745  0.62607882  0.25514463  1  0.029556  0  0.08329  0.109296  0  1.005159  0
H  H36  1  0.48047036  0.64214251  0.29485215  1  0.050158  0  0.092037  0.092385  0  0.988341  0
H  H37  1  0.58564107  0.49829941  0.98621959  1  0.062786  0  0.101869  0.102042  0  0.998004  0
H  H38  1  0.44364024  0.68039509  0.22337569  1  0.023756  0  0.090377  0.08314  0  0.976572  0
H  H39  1  0.53360155  0.29895216  0.97979498  1  0.026451  0  0.083956  0.109609  0  1.00332  0
H  H40  1  0.55840327  0.25209567  0.05277804  1  0.010489  0  0.081191  0.103712  0  1.008304  0
H  H41  1  0.47359103  0.24933634  0.02666116  1  0.029023  0  0.084368  0.108807  0  1.006953  0
H  H42  1  0.46961569  0.32916279  0.12844749  1  0.003401  0  0.085733  0.07263  0  0.985413  0
H  H43  1  0.44680851  0.37562156  0.05541643  1  0.021822  0  0.087193  0.077696  0  0.979402  0
H  H44  1  0.56828498  0.40731815  0.03343260  1  0.035984  0  0.087465  0.083017  0  1.032326  0
H  H45  1  0.59144278  0.36375589  0.10730822  1  0.004626  0  0.09088  0.086692  0  1.006381  0
H  H46  1  0.15677876  0.33583431  0.59396353  1  0.034338  0  0.084853  0.109921  0  1.004672  0
H  H47  1  0.15549563  0.31102352  0.50663430  1  0.019285  0  0.083318  0.105946  0  1.010554  0
H  H48  1  0.44060547  0.61826045  0.11855865  1  0.053354  0  0.096275  0.099258  0  1.008237  0
H  H49  1  0.22067671  0.27308201  0.55574557  1  0.021839  0  0.088397  0.11538  0  0.999939  0
H  H50  1  0.26885873  0.36139135  0.47670971  1  0.079273  0  0.097766  0.103423  0  0.965895  0
H  H51  1  0.27555716  0.38019096  0.56276197  1  0.044735  0  0.095117  0.094957  0  0.967916  0
H  H52  1  0.06215228  0.79203321  0.53731920  1  0.013068  0  0.083854  0.107922  0  1.004529  0
H  H53  1  0.98327861  0.75472634  0.53021245  1  0.012635  0  0.082509  0.105259  0  1.007756  0
H  H54  1  0.00745338  0.77643863  0.61234358  1  0.025056  0  0.08605  0.111294  0  1.003314  0
H  H55  1  0.02963002  0.64857650  0.59136882  1  0.006447  0  0.086977  0.074528  0  0.983747  0
H  H56  1  0.10753599  0.68533296  0.60020649  1  0.021861  0  0.089516  0.079098  0  0.973216  0
H  H57  1  0.13372177  0.68771225  0.47359079  1  0.029125  0  0.093632  0.0917  0  0.976413  0
H  H58  1  0.05444451  0.65499638  0.46118371  1  0.002185  0  0.090075  0.084862  0  0.993571  0
H  H59  1  0.62711135  0.46424540  0.87531757  1  0.067532  0  0.100331  0.098393  0  0.999279  0
H  H60  1  0.95849720  0.30717892  0.61332976  1  0.034054  0  0.085984  0.111924  0  1.002084  0
H  H61  1  0.88801085  0.37002022  0.63654845  1  0.023351  0  0.087164  0.115773  0  0.998613  0
H  H62  1  0.96862192  0.39627527  0.60164432  1  0.037677  0  0.084538  0.112837  0  1.020754  0
H  H63  1  0.87285352  0.31136617  0.52493813  1  0.026687  0  0.094612  0.089788  0  0.972272  0
H  H64  1  0.95330270  0.33545158  0.48946785  1  0.038155  0  0.09088  0.081641  0  0.985731  0
H  H65  1  0.42947221  0.53991250  0.01334606  1  0.052415  0  0.100483  0.094511  0  0.999727  0
H  H66  1  0.54477341  0.22013092  0.58455431  1  0.099748  0  0.106625  0.112695  0  0.993938  0
H  H67  1  0.42033482  0.56638324  0.90578092  1  0.061053  0  0.101229  0.100748  0  1.004592  0
C  C68  1  0.50461754  0.49971676  0.68280991  1  1.552642  0  0.22456  0.604208  0  4.167249  0
C  C69  1  0.50133540  0.97821980  0.51775160  1  -0.002678  0  -0.089126  -0.135055  0  3.995796  0
C  C70  1  0.51675958  0.02014961  0.46446561  1  -0.12389  0  -0.087268  -0.121622  0  4.000752  0
C  C71  1  0.50295797  0.50823778  0.31692963  1  1.546213  0  0.237976  0.638372  0  4.141462  0
C  C72  1  0.51725982  0.23843207  0.48135048  1  0.029363  0  -0.02287  -0.040852  0  4.011464  0
C  C73  1  0.50091770  0.51192057  0.24054421  1  -0.103152  0  -0.016951  -0.139485  0  3.930379  0
C  C74  1  0.52683000  0.45407252  0.20003718  1  0.083732  0  -0.005717  0.053261  0  3.923743  0
C  C75  1  0.52345234  0.45634850  0.12822079  1  -0.004222  0  -0.008105  0.017702  0  3.882278  0
C  C76  1  0.49145201  0.51636031  0.09918531  1  -0.066809  0  -0.01625  0.054727  0  4.033371  0
C  C77  1  0.46499145  0.57235996  0.14180935  1  -0.071558  0  -0.099948  -0.205718  0  4.000411  0
C  C78  1  0.47067804  0.57235726  0.21233732  1  0.067647  0  -0.009901  0.103517  0  3.981095  0
C  C79  1  0.49850147  0.90406248  0.51325416  1  -0.002746  0  -0.007731  0.119484  0  4.0445  0
C  C80  1  0.57921883  0.48464609  0.85455771  1  -0.100964  0  -0.091517  -0.141407  0  3.984816  0
C  C81  1  0.57288568  0.47957501  0.78462695  1  0.006956  0  -0.083146  -0.083277  0  3.997291  0
C  C82  1  0.45717943  0.53774385  0.80212300  1  -0.067383  0  -0.082914  -0.085741  0  3.993621  0
C  C83  1  0.68610527  0.48838523  0.48440839  1  1.558505  0  0.224774  0.605654  0  4.16149  0
C  C84  1  0.46325301  0.54159447  0.87215702  1  -0.002128  0  -0.09169  -0.137493  0  3.971812  0
C  C85  1  0.52418665  0.51424005  0.90011502  1  -0.036539  0  -0.00677  0.123171  0  4.041419  0
C  C86  1  0.48228845  0.52328869  0.02539875  1  -0.060117  0  -0.08137  -0.099438  0  3.976581  0
C  C87  1  0.53265725  0.51243371  0.97347090  1  -0.032952  0  -0.095247  -0.149878  0  4.019687  0
C  C88  1  0.51153655  0.50573345  0.75767463  1  -0.031405  0  -0.024506  -0.052978  0  3.993298  0
C  C89  1  0.23820346  0.50828985  0.51223152  1  -0.032968  0  -0.019555  -0.090681  0  3.959768  0
C  C90  1  0.47014583  0.86866270  0.57044083  1  -0.042972  0  -0.090309  -0.139487  0  3.976785  0
C  C91  1  0.20195653  0.44840988  0.51529301  1  -0.030795  0  -0.00271  0.106313  0  3.930612  0
C  C92  1  0.13074775  0.45788134  0.51157395  1  -0.064134  0  -0.096367  -0.19043  0  3.95296  0
C  C93  1  0.09395412  0.52254317  0.50306753  1  -0.002183  0  -0.011159  0.067656  0  4.016714  0
C  C94  1  0.13069878  0.58205412  0.50146901  1  0.020602  0  -0.009787  0.065875  0  3.938219  0
C  C95  1  0.31498162  0.50501082  0.51273760  1  1.541248  0  0.22864  0.614715  0  4.150758  0
C  C96  1  0.20202176  0.57320586  0.50692809  1  -0.057102  0  -0.088069  -0.152738  0  3.982618  0
C  C97  1  0.87024894  0.53663902  0.46214382  1  -0.011696  0  -0.092089  -0.133031  0  3.993711  0
C  C98  1  0.79885359  0.54080729  0.46120929  1  -0.016443  0  -0.086529  -0.095467  0  4.005913  0
C  C99  1  0.79986820  0.42374933  0.50246569  1  -0.022235  0  -0.084837  -0.149706  0  3.961193  0
C  C100  1  0.87179292  0.41822098  0.50262994  1  -0.054985  0  -0.006629  0.07098  0  3.908208  0
C  C101  1  0.46579935  0.79796493  0.56809973  1  -0.068819  0  -0.081447  -0.083587  0  3.986853  0
C  C102  1  0.90792007  0.47643052  0.48354954  1  -0.000635  0  -0.006546  0.069138  0  3.992336  0
C  C103  1  0.01941774  0.52733071  0.49721551  1  -0.013972  0  -0.089591  -0.128688  0  3.991987  0
C  C104  1  0.98262141  0.47331332  0.48641695  1  -0.113674  0  -0.090315  -0.126057  0  4.0032  0
C  C105  1  0.76286440  0.48428405  0.48244148  1  -0.032618  0  -0.025124  -0.044805  0  4.013867  0
C  C106  1  0.51354713  0.31464799  0.48779625  1  1.533339  0  0.224543  0.602157  0  4.165319  0
C  C107  1  0.48980305  0.68418834  0.50604476  1  1.532009  0  0.224809  0.603225  0  4.170477  0
C  C108  1  0.49088246  0.76034733  0.50851627  1  0.002826  0  -0.021952  -0.046987  0  3.984342  0
C  C109  1  0.51949456  0.79489865  0.45123195  1  -0.051694  0  -0.082642  -0.086642  0  3.995762  0
C  C110  1  0.52299941  0.86545049  0.45348969  1  -0.00374  0  -0.090896  -0.135055  0  3.972721  0
C  C111  1  0.49117031  0.10726147  0.34374834  1  -0.004679  0  -0.15923  -0.143881  0  3.998436  0
C  C112  1  0.53315997  0.12558792  0.53080531  1  -0.042704  0  -0.091664  -0.133036  0  3.995283  0
C  C113  1  0.41821514  0.08312884  0.34452185  1  -0.039061  0  -0.241806  -0.349518  0  3.964421  0
C  C114  1  0.56037260  0.39186766  0.23465709  1  -0.040334  0  -0.165123  -0.203958  0  3.961221  0
C  C115  1  0.63809398  0.39627996  0.24122046  1  0.002744  0  -0.166522  -0.091018  0  3.95691  0
C  C116  1  0.67050424  0.33486753  0.27926932  1  -0.046021  0  -0.245983  -0.352614  0  3.990373  0
C  C117  1  0.44399986  0.63458914  0.25624254  1  -0.023997  0  -0.161393  -0.143006  0  3.97521  0
C  C118  1  0.37119517  0.63007835  0.29259915  1  -0.069501  0  -0.245723  -0.350514  0  3.961159  0
C  C119  1  0.54801846  0.39298408  0.08499190  1  -0.010382  0  -0.167165  -0.199993  0  3.985377  0
C  C120  1  0.49019741  0.34561484  0.07729337  1  0.013179  0  -0.164696  -0.088923  0  3.964719  0
C  C121  1  0.51516107  0.28301790  0.03173026  1  -0.081426  0  -0.24512  -0.350966  0  3.992622  0
C  C122  1  0.23749148  0.37710479  0.52478792  1  -0.019584  0  -0.161044  -0.141869  0  3.978058  0
C  C123  1  0.53297465  0.19639697  0.53706909  1  -0.040181  0  -0.085779  -0.093896  0  4.005746  0
C  C124  1  0.18967734  0.32154208  0.54644517  1  -0.089399  0  -0.244078  -0.351091  0  3.997223  0
C  C125  1  0.09563747  0.65388705  0.49637823  1  0.003036  0  -0.160549  -0.195263  0  3.97419  0
C  C126  1  0.06516804  0.68391440  0.56663347  1  -0.011915  0  -0.164216  -0.089863  0  3.964541  0
C  C127  1  0.02748942  0.75566514  0.56141738  1  -0.038951  0  -0.24413  -0.35218  0  3.993893  0
C  C128  1  0.90843608  0.35193983  0.52613695  1  -0.031407  0  -0.158669  -0.141902  0  3.993119  0
C  C129  1  0.93237663  0.35661102  0.59857639  1  -0.062947  0  -0.242893  -0.351418  0  3.965137  0
C  C130  1  0.50450135  0.20803311  0.41938353  1  -0.08528  0  -0.08416  -0.150482  0  3.959268  0
C  C131  1  0.50605105  0.13680445  0.41167545  1  0.001582  0  -0.005248  0.072688  0  3.90926  0
C  C132  1  0.51870869  0.09444998  0.46918533  1  -0.009733  0  -0.006451  0.066892  0  3.989624  0
O  O133  1  0.50038601  0.50041451  0.50152119  1  -1.234505  0  -0.577704  -1.032715  0  2.561161  0
O  O134  1  0.53701013  0.33971010  0.54055149  1  -1.170195  0  -0.317916  -0.548979  0  2.316183  0
O  O135  1  0.45702158  0.65581834  0.55644085  1  -1.176922  0  -0.317496  -0.549557  0  2.318662  0
O  O136  1  0.48643227  0.34958146  0.43998431  1  -1.176042  0  -0.320276  -0.554712  0  2.340119  0
O  O137  1  0.52239937  0.65319272  0.45344512  1  -1.181951  0  -0.319729  -0.555188  0  2.341211  0
O  O138  1  0.65552677  0.54258094  0.45972929  1  -1.170779  0  -0.319267  -0.549503  0  2.320777  0
O  O139  1  0.33989420  0.55343462  0.54393731  1  -1.170412  0  -0.317801  -0.552167  0  2.308571  0
O  O140  1  0.55333048  0.46328296  0.64742913  1  -1.181802  0  -0.319671  -0.551725  0  2.337794  0
O  O141  1  0.45439636  0.47841402  0.34946125  1  -1.175105  0  -0.311589  -0.548893  0  2.328654  0
O  O142  1  0.45085129  0.53092871  0.65972348  1  -1.179002  0  -0.320973  -0.555566  0  2.320201  0
O  O143  1  0.55188980  0.53523565  0.34304054  1  -1.169882  0  -0.308676  -0.546012  0  2.308358  0
O  O144  1  0.65631360  0.43761975  0.51094087  1  -1.181216  0  -0.321849  -0.557086  0  2.334847  0
O  O145  1  0.35021817  0.45436833  0.48064941  1  -1.174982  0  -0.312972  -0.551874  0  2.361253  0
