# generated using pymatgen
data_CdH42C46S2(N4O3)2
_symmetry_space_group_name_H-M   'P 1'
_cell_length_a   9.15556104
_cell_length_b   10.49196491
_cell_length_c   11.42552655
_cell_angle_alpha   95.36471654
_cell_angle_beta   90.95142486
_cell_angle_gamma   96.08769500
_symmetry_Int_Tables_number   1
_chemical_formula_structural   CdH42C46S2(N4O3)2
_chemical_formula_sum   'Cd1 H42 C46 S2 N8 O6'
_cell_volume   1086.17450193
_cell_formula_units_Z   1
loop_
 _symmetry_equiv_pos_site_id
 _symmetry_equiv_pos_as_xyz
  1  'x, y, z'
loop_
 _atom_site_type_symbol
 _atom_site_label
 _atom_site_symmetry_multiplicity
 _atom_site_fract_x
 _atom_site_fract_y
 _atom_site_fract_z
 _atom_site_occupancy
 _atom_site_hle17_bader_spin_density
 _atom_site_hle17_ddec_charge
 _atom_site_hle17_ddec_spin_density
 _atom_site_hle17_ddec_sum_bond_order
 _atom_site_hle17_magmom
 _atom_site_hse06_10hf_bader_spin_density
 _atom_site_hse06_10hf_ddec_charge
 _atom_site_hse06_10hf_ddec_spin_density
 _atom_site_hse06_10hf_ddec_sum_bond_order
 _atom_site_hse06_10hf_magmom
 _atom_site_hse06_bader_spin_density
 _atom_site_hse06_ddec_charge
 _atom_site_hse06_ddec_spin_density
 _atom_site_hse06_ddec_sum_bond_order
 _atom_site_hse06_magmom
 _atom_site_pbe_bader_spin_density
 _atom_site_pbe_cm5_charge
 _atom_site_pbe_ddec_charge
 _atom_site_pbe_ddec_spin_density
 _atom_site_pbe_ddec_sum_bond_order
 _atom_site_pbe_magmom
Cd  Cd0  1  0.99999860  0.00000119  0.50000038  1  0  1.081923  0  1.749202  0  0  0.875005  0  2.194914  0  0  0.926459  0  2.152594  0  0  0.801632  0.838841  0  2.224125  0
H  H1  1  0.69659943  0.17963519  0.08296612  1  0  0.107133  0  0.95851  0  0  0.113866  0  1.023265  0  0  0.117782  0  1.020799  0  0  0.107496  0.110829  0  1.025775  0
H  H2  1  0.30340262  0.82036695  0.91703213  1  0  0.107145  0  0.958479  0  0  0.113877  0  1.023225  0  0  0.117792  0  1.02076  0  0  0.107519  0.110841  0  1.025737  0
H  H3  1  0.64167164  0.05089135  0.88886994  1  0  0.094752  0  0.953134  0  0  0.106725  0  1.008185  0  0  0.109481  0  1.007805  0  0  0.102048  0.103591  0  1.011254  0
H  H4  1  0.35833091  0.94910596  0.11112964  1  0  0.094734  0  0.953061  0  0  0.106723  0  1.008103  0  0  0.109476  0  1.007725  0  0  0.102058  0.103587  0  1.011172  0
H  H5  1  0.82116254  0.91392685  0.80221272  1  0  0.098326  0  1.004886  0  0  0.105606  0  1.072628  0  0  0.108552  0  1.071369  0  0  0.101939  0.103486  0  1.073562  0
H  H6  1  0.17883869  0.08606852  0.19778929  1  0  0.098315  0  1.004885  0  0  0.105615  0  1.072599  0  0  0.10854  0  1.071364  0  0  0.101932  0.103493  0  1.073543  0
H  H7  1  0.76137284  0.19805493  0.54486554  1  0  0.071851  0  0.963998  0  0  0.078297  0  1.035661  0  0  0.080729  0  1.033798  0  0  0.106944  0.076647  0  1.036813  0
H  H8  1  0.23862219  0.80194335  0.45513580  1  0  0.071902  0  0.964071  0  0  0.078366  0  1.0357  0  0  0.080801  0  1.033836  0  0  0.106959  0.076718  0  1.036857  0
H  H9  1  0.51048708  0.21238954  0.62767731  1  0  0.102928  0  0.947271  0  0  0.115038  0  1.002314  0  0  0.117983  0  1.001946  0  0  0.106246  0.113467  0  1.001749  0
H  H10  1  0.48950784  0.78760777  0.37232394  1  0  0.102907  0  0.947339  0  0  0.115046  0  1.002347  0  0  0.117992  0  1.001977  0  0  0.106251  0.113474  0  1.001781  0
H  H11  1  0.37900765  0.01801478  0.70635277  1  0  0.106421  0  0.935346  0  0  0.118664  0  0.99329  0  0  0.121908  0  0.991398  0  0  0.105426  0.116346  0  0.994646  0
H  H12  1  0.62098836  0.98198254  0.29364761  1  0  0.106403  0  0.935348  0  0  0.118674  0  0.993261  0  0  0.121922  0  0.991369  0  0  0.105435  0.116355  0  0.994615  0
H  H13  1  0.74913875  0.81274467  0.60195515  1  0  0.08747  0  0.969794  0  0  0.093244  0  1.041515  0  0  0.095965  0  1.03988  0  0  0.113011  0.091451  0  1.042351  0
H  H14  1  0.25085955  0.18725361  0.39804534  1  0  0.087508  0  0.969763  0  0  0.093274  0  1.041488  0  0  0.095993  0  1.039855  0  0  0.113015  0.09148  0  1.04233  0
H  H15  1  0.49989956  0.62337232  0.78848848  1  0  0.076188  0  0.922762  0  0  0.094436  0  0.982467  0  0  0.094073  0  0.984309  0  0  0.107382  0.094099  0  0.982065  0
H  H16  1  0.50009633  0.37662403  0.21151269  1  0  0.076172  0  0.922815  0  0  0.09447  0  0.982485  0  0  0.094111  0  0.984327  0  0  0.107393  0.094131  0  0.982087  0
H  H17  1  0.66983173  0.68934542  0.73865530  1  0  0.080555  0  0.948697  0  0  0.09645  0  1.013409  0  0  0.097016  0  1.012775  0  0  0.106948  0.096938  0  1.012537  0
H  H18  1  0.33016550  0.31065285  0.26134868  1  0  0.080543  0  0.948723  0  0  0.096445  0  1.013445  0  0  0.097012  0  1.012817  0  0  0.10695  0.096936  0  1.01258  0
H  H19  1  0.72285555  0.49299225  0.62551437  1  0  0.092088  0  0.94822  0  0  0.10605  0  1.003412  0  0  0.108634  0  1.003051  0  0  0.098195  0.104024  0  1.003889  0
H  H20  1  0.27714821  0.50700602  0.37448530  1  0  0.092083  0  0.948141  0  0  0.106065  0  1.003319  0  0  0.108648  0  1.002958  0  0  0.098215  0.104041  0  1.003799  0
H  H21  1  0.32352965  0.65699683  0.55625397  1  0  0.088595  0  0.983199  0  0  0.097544  0  1.050823  0  0  0.100238  0  1.049467  0  0  0.09655  0.095674  0  1.051477  0
H  H22  1  0.67647545  0.34300336  0.44374589  1  0  0.088593  0  0.983147  0  0  0.097582  0  1.050732  0  0  0.100276  0  1.049372  0  0  0.096559  0.095713  0  1.051383  0
H  H23  1  0.08263340  0.10563126  0.76064681  1  0  0.081729  0  0.991908  0  0  0.087302  0  1.064275  0  0  0.089938  0  1.062785  0  0  0.104407  0.085168  0  1.065742  0
H  H24  1  0.91736527  0.89436991  0.23935307  1  0  0.081765  0  0.991888  0  0  0.087348  0  1.064234  0  0  0.089987  0  1.062744  0  0  0.104425  0.085217  0  1.065701  0
H  H25  1  0.14064920  0.52352937  0.80745330  1  0  0.115085  0  0.965661  0  0  0.121869  0  1.030886  0  0  0.125918  0  1.027821  0  0  0.105259  0.118551  0  1.033843  0
H  H26  1  0.85935274  0.47647179  0.19254748  1  0  0.115115  0  0.965576  0  0  0.121886  0  1.030819  0  0  0.125935  0  1.027754  0  0  0.105268  0.118577  0  1.033772  0
H  H27  1  0.09384561  0.52121920  0.59569028  1  0  0.101483  0  0.961157  0  0  0.111551  0  1.022489  0  0  0.113937  0  1.021885  0  0  0.105738  0.109927  0  1.022844  0
H  H28  1  0.90615428  0.47878293  0.40431145  1  0  0.101421  0  0.961214  0  0  0.111525  0  1.022501  0  0  0.113909  0  1.0219  0  0  0.105726  0.109898  0  1.022855  0
H  H29  1  0.04654093  0.30987770  0.46982727  1  0  0.071757  0  0.984748  0  0  0.075243  0  1.062736  0  0  0.078485  0  1.059543  0  0  0.103827  0.072764  0  1.065197  0
H  H30  1  0.95346114  0.69012442  0.53017273  1  0  0.071764  0  0.984746  0  0  0.075251  0  1.06274  0  0  0.078493  0  1.059548  0  0  0.103827  0.072775  0  1.0652  0
H  H31  1  0.16036542  0.38600276  0.09482204  1  0  0.093774  0  0.941471  0  0  0.111056  0  1.001585  0  0  0.112242  0  1.000512  0  0  0.112249  0.110085  0  1.002704  0
H  H32  1  0.83963968  0.61399743  0.90517869  1  0  0.093764  0  0.941486  0  0  0.111012  0  1.001618  0  0  0.112199  0  1.000545  0  0  0.112235  0.110042  0  1.002731  0
H  H33  1  0.12255302  0.49697289  0.99519500  1  0  0.065566  0  0.927871  0  0  0.083089  0  0.990921  0  0  0.083208  0  0.990699  0  0  0.106103  0.083757  0  0.989575  0
H  H34  1  0.87744444  0.50302732  0.00480566  1  0  0.065561  0  0.927931  0  0  0.083067  0  0.990979  0  0  0.083184  0  0.990754  0  0  0.106103  0.083731  0  0.989635  0
H  H35  1  0.40314419  0.28840355  0.89669807  1  0  0.086864  0  0.960676  0  0  0.097373  0  1.020702  0  0  0.100175  0  1.01982  0  0  0.096103  0.095403  0  1.02126  0
H  H36  1  0.59685569  0.71159858  0.10330191  1  0  0.086847  0  0.960631  0  0  0.097353  0  1.020666  0  0  0.100155  0  1.019783  0  0  0.096099  0.095384  0  1.021226  0
H  H37  1  0.33034717  0.63917332  0.10373737  1  0  0.089816  0  0.945113  0  0  0.104698  0  0.998664  0  0  0.107156  0  0.99834  0  0  0.099584  0.102503  0  0.999286  0
H  H38  1  0.66965161  0.36082882  0.89626085  1  0  0.089741  0  0.945179  0  0  0.104603  0  0.99876  0  0  0.107059  0  0.998434  0  0  0.099549  0.102407  0  0.999378  0
H  H39  1  0.38106657  0.79222439  0.73062108  1  0  0.274994  0  0.967624  0  0  0.260001  0  1.030616  0  0  0.266366  0  1.026303  0  0  0.295207  0.256416  0  1.032616  0
H  H40  1  0.61893149  0.20777196  0.26937924  1  0  0.275011  0  0.967579  0  0  0.260007  0  1.030576  0  0  0.266378  0  1.026261  0  0  0.295213  0.256426  0  1.032563  0
H  H41  1  0.12788116  0.21758437  0.95172933  1  0  0.257605  0  0.936555  0  0  0.248122  0  0.993283  0  0  0.251756  0  0.99333  0  0  0.301537  0.245631  0  0.993086  0
H  H42  1  0.87211957  0.78241584  0.04827049  1  0  0.257585  0  0.936584  0  0  0.248101  0  0.993311  0  0  0.251736  0  0.993357  0  0  0.301536  0.24561  0  0.993115  0
C  C43  1  0.01636128  0.03683976  0.05606366  1  0  0.034642  0  3.76827  0  0  0.044023  0  4.000302  0  0  0.045137  0  4.022026  0  0  -0.008568  0.044034  0  3.985118  0
C  C44  1  0.98364310  0.96316332  0.94393732  1  0  0.034524  0  3.768132  0  0  0.043971  0  4.00015  0  0  0.045084  0  4.021876  0  0  -0.008576  0.043992  0  3.984956  0
C  C45  1  0.90792027  0.11399527  0.10424399  1  0  -0.164153  0  3.70996  0  0  -0.144355  0  3.962865  0  0  -0.151463  0  3.983332  0  0  -0.02128  -0.140629  0  3.949734  0
C  C46  1  0.09208372  0.88600494  0.89575323  1  0  -0.164031  0  3.709736  0  0  -0.144333  0  3.962749  0  0  -0.151444  0  3.983213  0  0  -0.021334  -0.140604  0  3.949607  0
C  C47  1  0.77643946  0.11912641  0.04476190  1  0  -0.065415  0  3.762874  0  0  -0.093043  0  4.015537  0  0  -0.090904  0  4.032931  0  0  -0.086786  -0.094349  0  4.004876  0
C  C48  1  0.22356477  0.88087573  0.95523462  1  0  -0.065471  0  3.762965  0  0  -0.093066  0  4.015655  0  0  -0.090925  0  4.033051  0  0  -0.086826  -0.09438  0  4.005  0
C  C49  1  0.74573442  0.04642781  0.93532678  1  0  -0.053409  0  3.755814  0  0  -0.063443  0  4.00353  0  0  -0.065737  0  4.022798  0  0  -0.08858  -0.061929  0  3.992426  0
C  C50  1  0.25426739  0.95357241  0.06467130  1  0  -0.053446  0  3.755827  0  0  -0.063502  0  4.003566  0  0  -0.065792  0  4.022831  0  0  -0.088618  -0.061983  0  3.99246  0
C  C51  1  0.84633284  0.96995086  0.88629539  1  0  -0.096016  0  3.715172  0  0  -0.12293  0  3.969051  0  0  -0.122918  0  3.986843  0  0  -0.088411  -0.123018  0  3.956514  0
C  C52  1  0.15366789  0.03004934  0.11370443  1  0  -0.096009  0  3.71519  0  0  -0.122918  0  3.969065  0  0  -0.122893  0  3.986876  0  0  -0.088394  -0.123006  0  3.956536  0
C  C53  1  0.69964226  0.11543277  0.57856121  1  0  0.075766  0  3.75312  0  0  0.036619  0  4.021866  0  0  0.04176  0  4.040341  0  0  0.015046  0.03312  0  4.009211  0
C  C54  1  0.30035386  0.88456551  0.42144014  1  0  0.075625  0  3.753409  0  0  0.036459  0  4.022155  0  0  0.041601  0  4.04063  0  0  0.014993  0.032961  0  4.009505  0
C  C55  1  0.56061612  0.12251219  0.62600760  1  0  -0.103261  0  3.801374  0  0  -0.116114  0  4.055079  0  0  -0.118747  0  4.075075  0  0  -0.09096  -0.114495  0  4.040914  0
C  C56  1  0.43938001  0.87748609  0.37399375  1  0  -0.103266  0  3.801504  0  0  -0.116154  0  4.055236  0  0  -0.118788  0  4.075236  0  0  -0.090966  -0.114534  0  4.041067  0
C  C57  1  0.48816302  0.01498060  0.66971090  1  0  -0.134206  0  3.703063  0  0  -0.154845  0  3.954841  0  0  -0.156631  0  3.972044  0  0  -0.085516  -0.153072  0  3.942964  0
C  C58  1  0.51183408  0.98501672  0.33029037  1  0  -0.134107  0  3.703038  0  0  -0.15476  0  3.954827  0  0  -0.156551  0  3.972036  0  0  -0.08551  -0.152979  0  3.942938  0
C  C59  1  0.55599151  0.89939935  0.66666377  1  0  0.215026  0  3.850096  0  0  0.209798  0  4.102478  0  0  0.217746  0  4.123923  0  0  0.106676  0.204316  0  4.087677  0
C  C60  1  0.44400559  0.10059797  0.33333750  1  0  0.214943  0  3.850129  0  0  0.209674  0  4.102529  0  0  0.217632  0  4.123974  0  0  0.106642  0.20419  0  4.087725  0
C  C61  1  0.69320811  0.89954465  0.61174249  1  0  -0.008062  0  3.682092  0  0  -0.043038  0  3.940579  0  0  -0.041351  0  3.958754  0  0  0.021119  -0.044288  0  3.928287  0
C  C62  1  0.30678910  0.10045363  0.38825800  1  0  -0.007994  0  3.682007  0  0  -0.042969  0  3.940516  0  0  -0.041279  0  3.958685  0  0  0.021203  -0.04422  0  3.928233  0
C  C63  1  0.55159147  0.67327189  0.71652435  1  0  0.001521  0  3.693876  0  0  -0.062177  0  3.951894  0  0  -0.057091  0  3.963446  0  0  -0.058643  -0.065704  0  3.943797  0
C  C64  1  0.44840684  0.32672639  0.28347702  1  0  0.001564  0  3.693912  0  0  -0.062255  0  3.952003  0  0  -0.057177  0  3.963587  0  0  -0.058636  -0.065783  0  3.943911  0
C  C65  1  0.52619471  0.58586211  0.60284117  1  0  0.06054  0  3.747413  0  0  0.081985  0  3.983793  0  0  0.081004  0  4.009081  0  0  -0.018081  0.082223  0  3.9669  0
C  C66  1  0.47380906  0.41413616  0.39715938  1  0  0.060518  0  3.747581  0  0  0.082044  0  3.983895  0  0  0.081068  0  4.009185  0  0  -0.018077  0.08228  0  3.967007  0
C  C67  1  0.62418362  0.49566648  0.57099387  1  0  -0.129321  0  3.77931  0  0  -0.146048  0  4.022813  0  0  -0.149652  0  4.046083  0  0  -0.098496  -0.143373  0  4.006868  0
C  C68  1  0.37582027  0.50433275  0.42900677  1  0  -0.129267  0  3.779244  0  0  -0.146029  0  4.022714  0  0  -0.14963  0  4.045982  0  0  -0.098476  -0.143356  0  4.006776  0
C  C69  1  0.40196061  0.58899715  0.53057599  1  0  -0.116837  0  3.772193  0  0  -0.1366  0  4.019735  0  0  -0.139546  0  4.042895  0  0  -0.099069  -0.134527  0  4.003662  0
C  C70  1  0.59804327  0.41100208  0.46942376  1  0  -0.116876  0  3.772276  0  0  -0.136685  0  4.019777  0  0  -0.139628  0  4.042935  0  0  -0.099118  -0.134612  0  4.003702  0
C  C71  1  0.08553658  0.20014683  0.72775627  1  0  -0.003455  0  3.692161  0  0  -0.03692  0  3.941777  0  0  -0.034635  0  3.959873  0  0  0.020671  -0.038461  0  3.929995  0
C  C72  1  0.91446318  0.79985434  0.27224450  1  0  -0.003484  0  3.692221  0  0  -0.03698  0  3.941818  0  0  -0.034696  0  3.959912  0  0  0.02068  -0.03852  0  3.930045  0
C  C73  1  0.11228964  0.31375442  0.80509527  1  0  0.203635  0  3.87168  0  0  0.201943  0  4.118569  0  0  0.209047  0  4.139743  0  0  0.101038  0.196774  0  4.104501  0
C  C74  1  0.88771110  0.68624578  0.19490630  1  0  0.203578  0  3.871783  0  0  0.201932  0  4.11861  0  0  0.209043  0  4.139779  0  0  0.101005  0.196755  0  4.104569  0
C  C75  1  0.11680024  0.43157445  0.75484106  1  0  -0.130038  0  3.687565  0  0  -0.154522  0  3.936917  0  0  -0.156046  0  3.953932  0  0  -0.088367  -0.153137  0  3.925612  0
C  C76  1  0.88320062  0.56842671  0.24515972  1  0  -0.130038  0  3.687557  0  0  -0.154538  0  3.936913  0  0  -0.156062  0  3.953926  0  0  -0.088364  -0.153151  0  3.925607  0
C  C77  1  0.09093730  0.43032382  0.63461306  1  0  -0.082147  0  3.779685  0  0  -0.093129  0  4.02899  0  0  -0.095524  0  4.050022  0  0  -0.086245  -0.091803  0  4.014909  0
C  C78  1  0.90906380  0.56967927  0.36538790  1  0  -0.082107  0  3.779832  0  0  -0.093101  0  4.029113  0  0  -0.095494  0  4.050145  0  0  -0.08624  -0.091763  0  4.015026  0
C  C79  1  0.06413552  0.31394000  0.56465909  1  0  0.055488  0  3.758325  0  0  0.020178  0  4.020237  0  0  0.023913  0  4.039316  0  0  0.01024  0.017536  0  4.00774  0
C  C80  1  0.93586655  0.68606212  0.43534178  1  0  0.055409  0  3.75848  0  0  0.020081  0  4.020407  0  0  0.023818  0  4.039485  0  0  0.010207  0.017439  0  4.007903  0
C  C81  1  0.18501786  0.41443782  0.00631093  1  0  -0.00045  0  3.706618  0  0  -0.06672  0  3.970396  0  0  -0.061695  0  3.98125  0  0  -0.056918  -0.070047  0  3.961901  0
C  C82  1  0.81498286  0.58556239  0.99368714  1  0  -0.000454  0  3.706612  0  0  -0.066633  0  3.97036  0  0  -0.061589  0  3.9812  0  0  -0.056897  -0.069958  0  3.961859  0
C  C83  1  0.34794791  0.45852061  0.00016737  1  0  0.057574  0  3.751922  0  0  0.077165  0  3.994482  0  0  0.076298  0  4.019502  0  0  -0.016038  0.07783  0  3.977518  0
C  C84  1  0.65205206  0.54148251  0.99982833  1  0  0.0576  0  3.751872  0  0  0.077084  0  3.994534  0  0  0.076211  0  4.019549  0  0  -0.016096  0.077751  0  3.977566  0
C  C85  1  0.44530227  0.38142356  0.94226732  1  0  -0.116621  0  3.778888  0  0  -0.135814  0  4.025808  0  0  -0.138215  0  4.047673  0  0  -0.098298  -0.134223  0  4.01078  0
C  C86  1  0.55469772  0.61857955  0.05773012  1  0  -0.11656  0  3.778681  0  0  -0.135724  0  4.02564  0  0  -0.138123  0  4.047503  0  0  -0.098286  -0.134139  0  4.01062  0
C  C87  1  0.40457615  0.57774391  0.05766511  1  0  -0.124179  0  3.775033  0  0  -0.142103  0  4.020859  0  0  -0.145234  0  4.043246  0  0  -0.095688  -0.139915  0  4.005845  0
C  C88  1  0.59542396  0.42226017  0.94233243  1  0  -0.124045  0  3.775139  0  0  -0.141923  0  4.020989  0  0  -0.145048  0  4.043373  0  0  -0.095616  -0.139737  0  4.005967  0
S  S89  1  0.93560430  0.20135118  0.24658679  1  0  1.296063  0  5.681867  0  0  1.193077  0  6.208265  0  0  1.241482  0  6.183662  0  0  0.509074  1.160174  0  6.223782  0
S  S90  1  0.06439521  0.79864807  0.75341117  1  0  1.296011  0  5.682051  0  0  1.193018  0  6.208499  0  0  1.241429  0  6.183889  0  0  0.509028  1.160116  0  6.224021  0
N  N91  1  0.76242966  0.00517270  0.57111860  1  0  -0.321552  0  3.345927  0  0  -0.241111  0  3.61291  0  0  -0.258507  0  3.634401  0  0  -0.338105  -0.229324  0  3.598602  0
N  N92  1  0.23756658  0.99482655  0.42888196  1  0  -0.321538  0  3.346057  0  0  -0.241084  0  3.613041  0  0  -0.258481  0  3.634531  0  0  -0.338131  -0.2293  0  3.598743  0
N  N93  1  0.49194798  0.79613356  0.71815129  1  0  -0.410362  0  3.354146  0  0  -0.355478  0  3.604401  0  0  -0.376525  0  3.619659  0  0  -0.446167  -0.341422  0  3.593414  0
N  N94  1  0.50804911  0.20386376  0.28184910  1  0  -0.410349  0  3.35406  0  0  -0.355394  0  3.604328  0  0  -0.376464  0  3.61961  0  0  -0.446155  -0.341335  0  3.593331  0
N  N95  1  0.06241846  0.20071352  0.61182994  1  0  -0.320644  0  3.333462  0  0  -0.238076  0  3.593226  0  0  -0.255153  0  3.61471  0  0  -0.335103  -0.226114  0  3.578289  0
N  N96  1  0.93758227  0.79928669  0.38816988  1  0  -0.320551  0  3.333433  0  0  -0.237978  0  3.593195  0  0  -0.255055  0  3.614678  0  0  -0.335066  -0.226016  0  3.578258  0
N  N97  1  0.13031756  0.30651725  0.92356957  1  0  -0.396188  0  3.381773  0  0  -0.342705  0  3.630056  0  0  -0.362099  0  3.646218  0  0  -0.443464  -0.328865  0  3.618367  0
N  N98  1  0.86968220  0.69348391  0.07643119  1  0  -0.396145  0  3.381763  0  0  -0.342654  0  3.629962  0  0  -0.362077  0  3.646149  0  0  -0.44343  -0.328807  0  3.618277  0
O  O99  1  0.93484141  0.09912296  0.32734965  1  0  -0.70444  0  2.046742  0  0  -0.638606  0  2.332339  0  0  -0.66247  0  2.315595  0  0  -0.355039  -0.621606  0  2.343497  0
O  O100  1  0.06515458  0.90087437  0.67264899  1  0  -0.704418  0  2.046845  0  0  -0.63858  0  2.332439  0  0  -0.662448  0  2.315713  0  0  -0.355008  -0.62158  0  2.343596  0
O  O101  1  0.80918123  0.27524144  0.26286988  1  0  -0.652764  0  2.017497  0  0  -0.59485  0  2.263439  0  0  -0.61478  0  2.249858  0  0  -0.327148  -0.580715  0  2.271776  0
O  O102  1  0.19081499  0.72475782  0.73712719  1  0  -0.652769  0  2.017553  0  0  -0.59484  0  2.263485  0  0  -0.614773  0  2.249904  0  0  -0.327136  -0.58069  0  2.271792  0
O  O103  1  0.07602019  0.28225744  0.24775959  1  0  -0.652697  0  1.956522  0  0  -0.605953  0  2.20737  0  0  -0.626297  0  2.194142  0  0  -0.335929  -0.591259  0  2.214725  0
O  O104  1  0.92397946  0.71774276  0.75224197  1  0  -0.65267  0  1.956675  0  0  -0.60589  0  2.207501  0  0  -0.626239  0  2.194279  0  0  -0.335862  -0.591197  0  2.214851  0
