# generated using pymatgen
data_CuH10C16(NO)4
_symmetry_space_group_name_H-M   'P 1'
_cell_length_a   13.62811934
_cell_length_b   13.88144888
_cell_length_c   14.92918093
_cell_angle_alpha   90.00002072
_cell_angle_beta   91.70083173
_cell_angle_gamma   89.99984257
_symmetry_Int_Tables_number   1
_chemical_formula_structural   CuH10C16(NO)4
_chemical_formula_sum   'Cu4 H40 C64 N16 O16'
_cell_volume   2823.02892504
_cell_formula_units_Z   4
loop_
 _symmetry_equiv_pos_site_id
 _symmetry_equiv_pos_as_xyz
  1  'x, y, z'
loop_
 _atom_site_type_symbol
 _atom_site_label
 _atom_site_symmetry_multiplicity
 _atom_site_fract_x
 _atom_site_fract_y
 _atom_site_fract_z
 _atom_site_occupancy
 _atom_site_pbe_bader_charge
 _atom_site_pbe_bader_spin_density
 _atom_site_pbe_cm5_charge
 _atom_site_pbe_ddec_charge
 _atom_site_pbe_ddec_spin_density
 _atom_site_pbe_ddec_sum_bond_order
 _atom_site_pbe_magmom
Cu  Cu0  1  0.49999846  0.99999950  0.50000018  1  1.054661  0.554057  0.747406  0.747916  0.716512  2.240495  0.553
Cu  Cu1  1  0.49999990  0.50000064  0.99999908  1  1.054668  0.554056  0.747403  0.747943  0.716509  2.240439  0.553
Cu  Cu2  1  0.00000155  0.99999936  0.00000086  1  1.068902  0.560466  0.765091  0.784925  0.725029  2.186474  0.56
Cu  Cu3  1  0.00000005  0.49999978  0.49999970  1  1.068915  0.560465  0.765103  0.784918  0.725027  2.186444  0.56
H  H4  1  0.29752137  0.28469901  0.09390450  1  0.10154  0.000443  0.113326  0.130692  0.000336  0.98732  0.0
H  H5  1  0.70247903  0.78470036  0.40609548  1  0.101564  0.000443  0.113299  0.130655  0.000336  0.987278  0.0
H  H6  1  0.70247988  0.71530064  0.90609511  1  0.101491  0.000443  0.113307  0.13068  0.000336  0.9873  0.0
H  H7  1  0.29752148  0.21529929  0.59390411  1  0.101495  0.000443  0.113284  0.130645  0.000336  0.987258  0.0
H  H8  1  0.07900863  0.28865210  0.29816216  1  0.151815  0.0007  0.115004  0.13421  0.000564  0.98789  0.0
H  H9  1  0.92099175  0.78865134  0.20183715  1  0.151797  0.0007  0.115015  0.134232  0.000564  0.987851  0.0
H  H10  1  0.92099188  0.71134899  0.70183676  1  0.15179  0.0007  0.115007  0.134223  0.000564  0.987873  0.0
H  H11  1  0.07900730  0.21134830  0.79816308  1  0.151798  0.0007  0.114996  0.134216  0.000564  0.987843  0.0
H  H12  1  0.25855396  0.53861279  0.25518880  1  0.156445  3.8e-05  0.114623  0.131043  -2.8e-05  0.985839  0.0
H  H13  1  0.74144711  0.03861389  0.24480978  1  0.156374  3.8e-05  0.114624  0.131018  -2.8e-05  0.985906  0.0
H  H14  1  0.74144506  0.46138830  0.74480876  1  0.15637  3.8e-05  0.114626  0.131039  -2.8e-05  0.985856  0.0
H  H15  1  0.25855342  0.96138647  0.75519250  1  0.156371  3.8e-05  0.114629  0.131039  -2.8e-05  0.985893  0.0
H  H16  1  0.03944809  0.23743429  0.98327537  1  0.119759  -0.000192  0.110756  0.171808  -0.000132  0.982398  0.0
H  H17  1  0.96055247  0.73743480  0.51672384  1  0.119781  -0.000192  0.110758  0.171811  -0.000132  0.982396  0.0
H  H18  1  0.96055243  0.76256536  0.01672489  1  0.11975  -0.000192  0.110749  0.171791  -0.000132  0.982389  0.0
H  H19  1  0.03944729  0.26256413  0.48327440  1  0.119741  -0.000192  0.11074  0.171801  -0.000132  0.982371  0.0
H  H20  1  0.03360615  0.30686275  0.08432827  1  0.070205  -0.000102  0.104788  0.152787  -5e-05  0.994029  0.0
H  H21  1  0.96639418  0.80686268  0.41567172  1  0.070195  -0.000102  0.104824  0.15284  -5e-05  0.99409  0.0
H  H22  1  0.96639437  0.69313690  0.91567267  1  0.070201  -0.000102  0.104791  0.152758  -5e-05  0.994049  0.0
H  H23  1  0.03360485  0.19313697  0.58432717  1  0.070201  -0.000102  0.10479  0.152767  -5e-05  0.994043  0.0
H  H24  1  0.94591857  0.21316308  0.06022252  1  0.147889  -0.000294  0.11869  0.184111  -0.000268  0.963373  0.0
H  H25  1  0.05408202  0.71316332  0.43977744  1  0.147886  -0.000293  0.118707  0.184096  -0.000268  0.963423  0.0
H  H26  1  0.05408268  0.78683656  0.93977842  1  0.147912  -0.000293  0.118718  0.184106  -0.000268  0.963366  0.0
H  H27  1  0.94591775  0.28683633  0.56022147  1  0.147913  -0.000294  0.118696  0.184108  -0.000268  0.963421  0.0
H  H28  1  0.31289259  0.22244039  0.29423904  1  0.115036  0.000905  0.108975  0.119255  0.000462  1.035232  0.001
H  H29  1  0.68710653  0.72244027  0.20576291  1  0.114885  0.000906  0.108985  0.11928  0.000462  1.035206  0.001
H  H30  1  0.68710868  0.77755998  0.70576325  1  0.114949  0.000906  0.108995  0.119266  0.000462  1.035192  0.001
H  H31  1  0.31289324  0.27755866  0.79423667  1  0.11487  0.000906  0.108989  0.119252  0.000462  1.035171  0.001
H  H32  1  0.43084759  0.17356424  0.41497167  1  0.161014  0.002327  0.131329  0.105048  0.001069  0.962106  0.001
H  H33  1  0.56914947  0.67356727  0.08503022  1  0.160953  0.002328  0.131318  0.10509  0.001069  0.962087  0.001
H  H34  1  0.56915147  0.82643397  0.58502924  1  0.160987  0.002328  0.131307  0.105054  0.001069  0.962097  0.001
H  H35  1  0.43085104  0.32643454  0.91496937  1  0.161196  0.002327  0.131314  0.105049  0.001069  0.962117  0.001
H  H36  1  0.37402647  0.88404850  0.37376229  1  0.122064  0.002262  0.133064  0.107303  0.001026  0.957796  0.001
H  H37  1  0.62597217  0.38404915  0.12623702  1  0.122066  0.002262  0.133057  0.10728  0.001026  0.95777  0.001
H  H38  1  0.62597256  0.11595187  0.62623661  1  0.122039  0.002262  0.133052  0.107273  0.001026  0.957812  0.001
H  H39  1  0.37402540  0.61595050  0.87376184  1  0.122085  0.002262  0.133059  0.107256  0.001026  0.957818  0.001
H  H40  1  0.24872860  0.92021490  0.25179969  1  0.144021  0.001115  0.123426  0.136312  0.000608  0.98243  0.001
H  H41  1  0.75127067  0.42021382  0.24819831  1  0.14403  0.001115  0.123424  0.136292  0.000608  0.982393  0.001
H  H42  1  0.75127117  0.07978763  0.74819855  1  0.144001  0.001115  0.12344  0.136329  0.000608  0.982353  0.001
H  H43  1  0.24872837  0.57978583  0.75180059  1  0.144019  0.001115  0.123438  0.136315  0.000608  0.982389  0.001
C  C44  1  0.36323205  0.46744425  0.11612947  1  1.545421  -0.001851  0.186363  0.553744  -0.002486  4.238538  -0.004
C  C45  1  0.63676858  0.96744506  0.38387125  1  1.545214  -0.001851  0.186342  0.55374  -0.002486  4.238507  -0.004
C  C46  1  0.63676773  0.53255611  0.88387011  1  1.545211  -0.001851  0.186322  0.553639  -0.002486  4.238488  -0.004
C  C47  1  0.36323270  0.03255531  0.61613171  1  1.54496  -0.00185  0.186328  0.553668  -0.002486  4.238466  -0.004
C  C48  1  0.28649550  0.41684230  0.16918999  1  -0.008653  0.008657  -0.010374  0.0077  0.006051  3.954602  0.007
C  C49  1  0.71350526  0.91684360  0.33081004  1  -0.008642  0.008655  -0.010331  0.007742  0.00605  3.954505  0.007
C  C50  1  0.71350723  0.58315663  0.83081098  1  -0.008687  0.008656  -0.010331  0.007755  0.006051  3.954452  0.007
C  C51  1  0.28649528  0.08315605  0.66919290  1  -0.008384  0.008656  -0.010345  0.007765  0.006051  3.954387  0.007
C  C52  1  0.25989353  0.32236444  0.14697424  1  -0.016571  0.000681  -0.079998  -0.18051  0.000497  3.942314  0.0
C  C53  1  0.74010601  0.82236496  0.35302440  1  -0.016551  0.000682  -0.079999  -0.180486  0.000499  3.942183  0.0
C  C54  1  0.74010771  0.67763593  0.85302537  1  -0.01644  0.000682  -0.080005  -0.180534  0.000498  3.942349  0.0
C  C55  1  0.25989376  0.17763397  0.64697451  1  -0.016491  0.000681  -0.079944  -0.180412  0.000497  3.942016  0.0
C  C56  1  0.18505947  0.27778996  0.19325565  1  0.203088  0.000616  0.081665  0.153115  0.000341  4.079138  0.0
C  C57  1  0.81493946  0.77778953  0.30674229  1  0.203082  0.000615  0.081661  0.153161  0.00034  4.079101  0.0
C  C58  1  0.81494031  0.72221113  0.80674392  1  0.203057  0.000615  0.081689  0.153172  0.00034  4.079209  0.0
C  C59  1  0.18506032  0.22221012  0.69325796  1  0.203115  0.000616  0.08165  0.153109  0.00034  4.079084  0.0
C  C60  1  0.13751627  0.32409932  0.26242657  1  -0.051062  0.001461  -0.078519  -0.179202  0.001089  3.941355  0.001
C  C61  1  0.86248254  0.82409802  0.23757206  1  -0.051074  0.001462  -0.078536  -0.179261  0.00109  3.941369  0.001
C  C62  1  0.86248276  0.67590177  0.73757166  1  -0.051052  0.001462  -0.078527  -0.179293  0.00109  3.941394  0.001
C  C63  1  0.13751725  0.17590163  0.76242886  1  -0.051071  0.001461  -0.078483  -0.179221  0.00109  3.941328  0.001
C  C64  1  0.16578057  0.41808659  0.28580840  1  -0.013812  0.010161  -0.010987  0.000523  0.007072  3.950584  0.008
C  C65  1  0.83421946  0.91808608  0.21419161  1  -0.013807  0.01016  -0.010974  0.000555  0.007071  3.950539  0.008
C  C66  1  0.83421846  0.58191450  0.71418982  1  -0.013792  0.01016  -0.011058  0.000512  0.007072  3.950511  0.008
C  C67  1  0.16578033  0.08191285  0.78580931  1  -0.013818  0.010161  -0.011042  0.000468  0.007072  3.950572  0.008
C  C68  1  0.23894327  0.46454129  0.23818121  1  -0.006804  0.002695  -0.06466  -0.099283  0.00171  3.882265  0.002
C  C69  1  0.76105736  0.96454315  0.26181883  1  -0.006769  0.002698  -0.064661  -0.099256  0.001712  3.882237  0.002
C  C70  1  0.76105650  0.53545836  0.76181770  1  -0.006773  0.002696  -0.064626  -0.099218  0.00171  3.882109  0.002
C  C71  1  0.23894391  0.03545794  0.73818345  1  -0.006793  0.002695  -0.064691  -0.099308  0.00171  3.882315  0.002
C  C72  1  0.11734316  0.46974627  0.36182072  1  1.58597  -0.001802  0.187448  0.552159  -0.002375  4.246463  -0.004
C  C73  1  0.88265745  0.96974631  0.13817865  1  1.586005  -0.001802  0.18744  0.552173  -0.002374  4.24642  -0.004
C  C74  1  0.88265586  0.53025554  0.63817683  1  1.585941  -0.001801  0.187423  0.55202  -0.002374  4.246419  -0.004
C  C75  1  0.11734309  0.03025406  0.86182362  1  1.585788  -0.001802  0.187367  0.551975  -0.002375  4.246583  -0.004
C  C76  1  0.02300894  0.23522903  0.05482604  1  -0.112048  -0.000115  -0.222183  -0.475627  -0.000498  3.916772  0.0
C  C77  1  0.97699158  0.73522966  0.44517259  1  -0.112063  -0.000115  -0.222217  -0.475619  -0.000498  3.916849  0.0
C  C78  1  0.97699231  0.76477062  0.94517424  1  -0.112081  -0.000115  -0.222203  -0.475556  -0.000498  3.91676  0.0
C  C79  1  0.02300818  0.26477071  0.55482565  1  -0.112075  -0.000115  -0.222169  -0.475587  -0.000498  3.916792  0.0
C  C80  1  0.08629803  0.16318892  0.10117867  1  0.983777  -0.000591  0.247665  0.364078  -0.001231  3.900969  0.001
C  C81  1  0.91370344  0.66318898  0.39882062  1  0.983744  -0.000591  0.247643  0.364008  -0.001231  3.900915  0.001
C  C82  1  0.91370323  0.83681145  0.89882228  1  0.984026  -0.000592  0.247676  0.364046  -0.001231  3.900969  0.001
C  C83  1  0.08629781  0.33680994  0.60117898  1  0.983771  -0.000591  0.247627  0.364022  -0.001231  3.900986  0.001
C  C84  1  0.19447888  0.09382211  0.19284025  1  0.956424  0.0029  0.223109  0.200751  0.002236  3.993195  0.004
C  C85  1  0.80552132  0.59382243  0.30715967  1  0.956555  0.002901  0.223102  0.20076  0.002237  3.993158  0.004
C  C86  1  0.80552237  0.90617825  0.80716003  1  0.956563  0.0029  0.223132  0.200824  0.002237  3.993038  0.004
C  C87  1  0.19447701  0.40617721  0.69284189  1  0.956353  0.002901  0.223134  0.200801  0.002237  3.993039  0.004
C  C88  1  0.26886243  0.07465256  0.26287762  1  -0.024153  -0.003131  0.019567  0.079251  -0.00363  4.00402  -0.002
C  C89  1  0.73113780  0.57465377  0.23712028  1  -0.024073  -0.003134  0.01954  0.079193  -0.003632  4.004134  -0.002
C  C90  1  0.73113953  0.92534781  0.73711999  1  -0.024057  -0.003133  0.019558  0.079177  -0.003631  4.004022  -0.002
C  C91  1  0.26885978  0.42534588  0.76287992  1  -0.024016  -0.003133  0.01954  0.079147  -0.003631  4.004063  -0.002
C  C92  1  0.32224335  0.14645336  0.30933279  1  -0.009321  0.005322  -0.082427  -0.170725  0.003587  3.937211  0.004
C  C93  1  0.67775597  0.64645470  0.19066780  1  -0.009217  0.005324  -0.082443  -0.170704  0.003588  3.937176  0.004
C  C94  1  0.67775935  0.85354629  0.69066617  1  -0.008996  0.005325  -0.08244  -0.170649  0.003589  3.937071  0.004
C  C95  1  0.32224308  0.35354495  0.80933244  1  -0.008971  0.005324  -0.082428  -0.170607  0.003588  3.937057  0.004
C  C96  1  0.38900552  0.11989770  0.37685474  1  0.447935  -0.001957  0.057685  0.109136  -0.002478  3.938378  -0.001
C  C97  1  0.61099313  0.61989919  0.12314449  1  0.447984  -0.001958  0.057737  0.109067  -0.002479  3.938427  -0.001
C  C98  1  0.61099572  0.88010195  0.62314353  1  0.447733  -0.001958  0.057732  0.10909  -0.00248  3.938391  -0.001
C  C99  1  0.38900591  0.38010190  0.87685508  1  0.447523  -0.001958  0.057655  0.108987  -0.002479  3.938503  -0.001
C  C100  1  0.35691274  0.95781531  0.35397537  1  0.466196  -0.001077  0.058837  0.100482  -0.001472  3.932629  -0.001
C  C101  1  0.64308352  0.45781593  0.14602593  1  0.466243  -0.001077  0.058866  0.10056  -0.001472  3.932545  -0.001
C  C102  1  0.64308412  0.04218506  0.64602549  1  0.466231  -0.001076  0.058872  0.100568  -0.001471  3.932604  -0.001
C  C103  1  0.35691551  0.54218372  0.85397230  1  0.466223  -0.001077  0.058853  0.100554  -0.001471  3.932534  -0.001
C  C104  1  0.28810434  0.97812811  0.28637381  1  0.006027  0.00533  -0.069389  -0.150505  0.003638  3.907417  0.004
C  C105  1  0.71189478  0.47812929  0.21362621  1  0.005979  0.005332  -0.069366  -0.150449  0.003639  3.907324  0.004
C  C106  1  0.71189543  0.02187226  0.71362577  1  0.005961  0.00533  -0.069428  -0.15055  0.003638  3.907307  0.004
C  C107  1  0.28810426  0.52187108  0.78637336  1  0.005934  0.005331  -0.06939  -0.150481  0.003638  3.907287  0.004
N  N108  1  0.15601046  0.18232661  0.16650340  1  -1.250309  0.001892  -0.208835  -0.111406  0.000951  3.688761  0.001
N  N109  1  0.84398876  0.68232612  0.33349652  1  -1.250383  0.001892  -0.208838  -0.111508  0.000952  3.688799  0.001
N  N110  1  0.84399006  0.81767376  0.83349753  1  -1.250365  0.001892  -0.208856  -0.111457  0.000952  3.688738  0.001
N  N111  1  0.15601030  0.31767353  0.66650438  1  -1.250325  0.001892  -0.208845  -0.111453  0.000952  3.688783  0.001
N  N112  1  0.08430713  0.06820316  0.08893892  1  -0.687213  0.074624  -0.250954  -0.216013  0.051296  3.573167  0.067
N  N113  1  0.91569460  0.56820394  0.41106035  1  -0.687227  0.074626  -0.250907  -0.215913  0.051297  3.573159  0.067
N  N114  1  0.91569412  0.93179649  0.91106136  1  -0.687494  0.074626  -0.250897  -0.215905  0.051296  3.573148  0.067
N  N115  1  0.08430664  0.43179499  0.58893858  1  -0.687174  0.074624  -0.25085  -0.215866  0.051296  3.573201  0.067
N  N116  1  0.15016254  0.02465864  0.14541559  1  -0.643934  0.00568  -0.207882  -0.209343  0.003  3.17297  0.003
N  N117  1  0.84983932  0.52465813  0.35458501  1  -0.643905  0.00568  -0.207939  -0.209379  0.002999  3.172926  0.003
N  N118  1  0.84983871  0.97534245  0.85458536  1  -0.64394  0.00568  -0.20797  -0.209462  0.003  3.172971  0.003
N  N119  1  0.15016046  0.47534151  0.64541457  1  -0.643885  0.005679  -0.207963  -0.209433  0.002998  3.172927  0.003
N  N120  1  0.40581189  0.02757374  0.39930979  1  -1.203693  0.083557  -0.345732  -0.213852  0.055802  3.628272  0.073
N  N121  1  0.59418630  0.52757527  0.10069141  1  -1.203724  0.083558  -0.345777  -0.213921  0.055803  3.628442  0.073
N  N122  1  0.59418717  0.97242591  0.60069112  1  -1.203676  0.083559  -0.345733  -0.21385  0.055803  3.628332  0.073
N  N123  1  0.40581274  0.47242582  0.89930816  1  -1.203614  0.083558  -0.345703  -0.213801  0.055803  3.628324  0.073
O  O124  1  0.42402103  0.41057618  0.07595782  1  -1.103299  0.119821  -0.344958  -0.56792  0.076579  2.273595  0.107
O  O125  1  0.57597973  0.91057717  0.42404086  1  -1.103248  0.119816  -0.344955  -0.567932  0.076575  2.27366  0.107
O  O126  1  0.57597946  0.58942419  0.92404043  1  -1.103284  0.119813  -0.344972  -0.567902  0.076574  2.273649  0.107
O  O127  1  0.42402079  0.08942320  0.57596007  1  -1.103248  0.119818  -0.344976  -0.567909  0.076577  2.273649  0.107
O  O128  1  0.36418167  0.55718993  0.11097985  1  -1.134067  0.000378  -0.3405  -0.561781  -0.000983  2.063052  0.001
O  O129  1  0.63582012  0.05719210  0.38902209  1  -1.133907  0.000378  -0.340497  -0.561787  -0.000983  2.062917  0.001
O  O130  1  0.63581810  0.44280900  0.88901906  1  -1.13386  0.000378  -0.340469  -0.561733  -0.000983  2.062998  0.001
O  O131  1  0.36418190  0.94280899  0.61098155  1  -1.133836  0.000378  -0.340455  -0.561731  -0.000983  2.063  0.001
O  O132  1  0.05397359  0.41797727  0.40400042  1  -1.116629  0.121863  -0.33718  -0.558582  0.077929  2.310943  0.11
O  O133  1  0.94602644  0.91797785  0.09599959  1  -1.116644  0.12186  -0.337184  -0.558608  0.077927  2.310971  0.11
O  O134  1  0.94602618  0.58202310  0.59599848  1  -1.116616  0.121857  -0.337132  -0.558478  0.077925  2.310873  0.11
O  O135  1  0.05397336  0.08202252  0.90400200  1  -1.116436  0.12186  -0.337066  -0.558418  0.077927  2.310979  0.11
O  O136  1  0.13927638  0.55491891  0.38011564  1  -1.164898  0.000425  -0.33797  -0.565179  -0.000979  2.082163  0.001
O  O137  1  0.86072392  0.05491892  0.11988360  1  -1.164905  0.000425  -0.337976  -0.565187  -0.00098  2.082146  0.001
O  O138  1  0.86072116  0.44508290  0.61988055  1  -1.164875  0.000425  -0.338  -0.565141  -0.000979  2.082117  0.001
O  O139  1  0.13927811  0.94508145  0.88012138  1  -1.164939  0.000425  -0.338006  -0.565138  -0.000979  2.0822  0.001
