# generated using pymatgen
data_NdH12C9O8
_symmetry_space_group_name_H-M   'P 1'
_cell_length_a   8.52170797
_cell_length_b   12.89968439
_cell_length_c   19.49184981
_cell_angle_alpha   89.99990329
_cell_angle_beta   90.00001288
_cell_angle_gamma   109.18722765
_symmetry_Int_Tables_number   1
_chemical_formula_structural   NdH12C9O8
_chemical_formula_sum   'Nd4 H48 C36 O32'
_cell_volume   2023.66025477
_cell_formula_units_Z   4
loop_
 _symmetry_equiv_pos_site_id
 _symmetry_equiv_pos_as_xyz
  1  'x, y, z'
loop_
 _atom_site_type_symbol
 _atom_site_label
 _atom_site_symmetry_multiplicity
 _atom_site_fract_x
 _atom_site_fract_y
 _atom_site_fract_z
 _atom_site_occupancy
 _atom_site_pbe_bader_charge
 _atom_site_pbe_bader_spin_density
 _atom_site_pbe_cm5_charge
 _atom_site_pbe_ddec_charge
 _atom_site_pbe_ddec_spin_density
 _atom_site_pbe_ddec_sum_bond_order
 _atom_site_pbe_magmom
Nd  Nd0  1  0.25935379  0.51877382  0.50000358  1  2.236348  0  1.481206  2.097536  0  2.095569  0
Nd  Nd1  1  0.74065774  0.48122653  0.00000284  1  2.236526  0  1.481176  2.097468  0  2.095611  0
Nd  Nd2  1  0.74065402  0.48122585  0.49999798  1  2.236517  0  1.481174  2.097446  0  2.09561  0
Nd  Nd3  1  0.25935951  0.51877559  0.99999871  1  2.236243  0  1.481184  2.09744  0  2.095705  0
H  H4  1  0.22108116  0.89742863  0.54714409  1  0.081626  0  0.102417  0.101587  0  1.00796  0
H  H5  1  0.77891861  0.10257160  0.04714327  1  0.081668  0  0.102432  0.101626  0  1.007919  0
H  H6  1  0.32491979  0.10366187  0.95268840  1  0.057379  0  0.102539  0.102239  0  1.007062  0
H  H7  1  0.67507847  0.89633725  0.45268822  1  0.057367  0  0.102527  0.102208  0  1.007168  0
H  H8  1  0.77891323  0.10256530  0.45285951  1  0.081648  0  0.102448  0.101683  0  1.007925  0
H  H9  1  0.22108579  0.89743299  0.95285520  1  0.081691  0  0.102447  0.101648  0  1.007951  0
H  H10  1  0.67508614  0.89634109  0.04731008  1  0.057264  0  0.102514  0.102212  0  1.00708  0
H  H11  1  0.32491668  0.10365586  0.54731435  1  0.057328  0  0.102533  0.102228  0  1.007189  0
H  H12  1  0.67429895  0.67605054  0.68479715  1  0.024345  0  0.099446  0.107153  0  0.968089  0
H  H13  1  0.32569801  0.32395095  0.18479912  1  0.024335  0  0.099496  0.107236  0  0.968078  0
H  H14  1  0.99859428  0.32346200  0.81528780  1  0.013254  0  0.099586  0.106466  0  0.96811  0
H  H15  1  0.00139981  0.67653832  0.31528319  1  0.013216  0  0.099561  0.106408  0  0.968143  0
H  H16  1  0.32569836  0.32395159  0.31519978  1  0.024357  0  0.099488  0.107245  0  0.968093  0
H  H17  1  0.67429731  0.67604955  0.81520243  1  0.024366  0  0.09945  0.107193  0  0.968113  0
H  H18  1  0.00140404  0.67653275  0.18471118  1  0.0133  0  0.099604  0.106488  0  0.968139  0
H  H19  1  0.99859321  0.32346464  0.68471271  1  0.013306  0  0.099581  0.106431  0  0.96816  0
H  H20  1  0.67441514  0.53917449  0.68169183  1  0.077005  0  0.107346  0.129976  0  1.011801  0
H  H21  1  0.32558064  0.46082702  0.18169467  1  0.076925  0  0.107311  0.129972  0  1.011834  0
H  H22  1  0.13512586  0.46025274  0.81827509  1  0.145112  0  0.107561  0.129941  0  1.011983  0
H  H23  1  0.86487491  0.53974921  0.31827584  1  0.145125  0  0.107567  0.129912  0  1.011934  0
H  H24  1  0.32558533  0.46082929  0.31830562  1  0.076942  0  0.107309  0.129979  0  1.011819  0
H  H25  1  0.67441861  0.53917430  0.81830329  1  0.076957  0  0.107314  0.129957  0  1.011847  0
H  H26  1  0.86487674  0.53974118  0.18172082  1  0.14509  0  0.107555  0.12988  0  1.012043  0
H  H27  1  0.13512204  0.46025457  0.68172314  1  0.145141  0  0.107574  0.129916  0  1.011989  0
H  H28  1  0.40186802  0.61328473  0.75000033  1  0.055557  0  0.094793  0.094128  0  0.983377  0
H  H29  1  0.59813082  0.38671577  0.24999763  1  0.055445  0  0.094809  0.094138  0  0.983338  0
H  H30  1  0.78873834  0.38640985  0.75000150  1  0.041155  0  0.095154  0.094443  0  0.982694  0
H  H31  1  0.21125815  0.61359064  0.25000006  1  0.04124  0  0.095161  0.094463  0  0.982716  0
H  H32  1  0.40931380  0.47850277  0.74999937  1  0.001003  0  0.096726  0.090404  0  0.962699  0
H  H33  1  0.59068662  0.52149855  0.24999858  1  0.001014  0  0.096703  0.090412  0  0.962673  0
H  H34  1  0.93063782  0.52111330  0.75000194  1  -0.001861  0  0.096611  0.090387  0  0.962086  0
H  H35  1  0.06935862  0.47888473  0.25000166  1  -0.001879  0  0.096616  0.090402  0  0.962074  0
H  H36  1  0.16098992  0.28522356  0.57068812  1  0.595404  0  0.327399  0.402763  0  0.88877  0
H  H37  1  0.83901013  0.71477250  0.07068919  1  0.595424  0  0.327384  0.402756  0  0.888787  0
H  H38  1  0.87505270  0.71467183  0.92910233  1  0.58476  0  0.326902  0.401551  0  0.890459  0
H  H39  1  0.12495063  0.28532571  0.42910227  1  0.584742  0  0.326901  0.401545  0  0.89045  0
H  H40  1  0.83900963  0.71477365  0.42931190  1  0.59543  0  0.327301  0.402619  0  0.888954  0
H  H41  1  0.16098947  0.28522718  0.92931185  1  0.595436  0  0.327311  0.402625  0  0.888946  0
H  H42  1  0.12494838  0.28532374  0.07089820  1  0.584699  0  0.326903  0.401557  0  0.890434  0
H  H43  1  0.87505295  0.71467724  0.57089877  1  0.584705  0  0.326895  0.401528  0  0.89047  0
H  H44  1  0.35102789  0.31108679  0.55064076  1  0.656632  0  0.305447  0.410223  0  0.919971  0
H  H45  1  0.64897264  0.68891261  0.05063979  1  0.656642  0  0.305441  0.410194  0  0.920003  0
H  H46  1  0.03915480  0.68875036  0.94931845  1  0.684091  0  0.305892  0.410889  0  0.91935  0
H  H47  1  0.96084857  0.31124958  0.44931792  1  0.684109  0  0.305897  0.41088  0  0.919352  0
H  H48  1  0.64897095  0.68891371  0.44936079  1  0.657012  0  0.30545  0.410239  0  0.91996  0
H  H49  1  0.35102855  0.31108788  0.94936330  1  0.657007  0  0.30543  0.4102  0  0.919996  0
H  H50  1  0.96084709  0.31124684  0.05068259  1  0.684085  0  0.305917  0.410929  0  0.919285  0
H  H51  1  0.03915379  0.68875091  0.55068311  1  0.684089  0  0.305866  0.410812  0  0.91944  0
C  C52  1  0.38052713  0.76222336  0.49992290  1  1.536664  0  0.209373  0.588952  0  4.208716  0
C  C53  1  0.61946687  0.23777891  0.99992141  1  1.537094  0  0.209437  0.58909  0  4.208568  0
C  C54  1  0.61946238  0.23777960  0.50007916  1  1.537369  0  0.209337  0.588863  0  4.208916  0
C  C55  1  0.38054024  0.76222404  0.00007757  1  1.536681  0  0.209421  0.589085  0  4.208459  0
C  C56  1  0.44203874  0.88488973  0.49991719  1  0.016016  0  -0.010871  -0.015488  0  3.956283  0
C  C57  1  0.55795755  0.11511008  0.99991686  1  0.016152  0  -0.010829  -0.01547  0  3.956026  0
C  C58  1  0.55795611  0.11510748  0.50008180  1  0.016549  0  -0.010861  -0.015364  0  3.956189  0
C  C59  1  0.44204991  0.88489123  0.00008110  1  0.016493  0  -0.010837  -0.015403  0  3.955983  0
C  C60  1  0.34282640  0.94322191  0.52632152  1  0.044567  0  -0.084731  -0.096786  0  3.986568  0
C  C61  1  0.65717333  0.05677592  0.02632023  1  0.044533  0  -0.084757  -0.09683  0  3.986602  0
C  C62  1  0.40033720  0.05740084  0.97358844  1  -0.10209  0  -0.084715  -0.096845  0  3.984562  0
C  C63  1  0.59966017  0.94259412  0.47358770  1  -0.101958  0  -0.084685  -0.096782  0  3.984457  0
C  C64  1  0.65716652  0.05677613  0.47367951  1  0.044177  0  -0.084775  -0.096983  0  3.986525  0
C  C65  1  0.34282785  0.94322458  0.97367824  1  0.044146  0  -0.08477  -0.096906  0  3.98641  0
C  C66  1  0.59966720  0.94260376  0.02640900  1  -0.10198  0  -0.084698  -0.096871  0  3.984773  0
C  C67  1  0.40033386  0.05740145  0.52641180  1  -0.102094  0  -0.08471  -0.096896  0  3.98466  0
C  C68  1  0.48991068  0.57181602  0.62011478  1  1.547949  0  0.219142  0.68203  0  4.101551  0
C  C69  1  0.51008949  0.42818730  0.12011563  1  1.548615  0  0.219129  0.6821  0  4.101538  0
C  C70  1  0.91832074  0.42796714  0.87990603  1  1.530234  0  0.219928  0.680166  0  4.103888  0
C  C71  1  0.08167734  0.57203874  0.37990565  1  1.530254  0  0.219901  0.680082  0  4.103976  0
C  C72  1  0.51009132  0.42818612  0.37988523  1  1.548618  0  0.219152  0.682085  0  4.101562  0
C  C73  1  0.48991087  0.57181155  0.87988490  1  1.548789  0  0.219077  0.682048  0  4.10177  0
C  C74  1  0.08168555  0.57203417  0.12009501  1  1.530115  0  0.219839  0.679981  0  4.104099  0
C  C75  1  0.91831956  0.42796257  0.62009487  1  1.530256  0  0.219926  0.680125  0  4.103881  0
C  C76  1  0.59268093  0.58937639  0.68496086  1  -0.02819  0  -0.157661  -0.298781  0  3.909698  0
C  C77  1  0.40731444  0.41062428  0.18496222  1  -0.028142  0  -0.157657  -0.298947  0  3.909849  0
C  C78  1  0.00337868  0.41016250  0.81506146  1  -0.080902  0  -0.158416  -0.297167  0  3.908311  0
C  C79  1  0.99662133  0.58984028  0.31506166  1  -0.080741  0  -0.158385  -0.297059  0  3.908333  0
C  C80  1  0.40731638  0.41062575  0.31503864  1  -0.028137  0  -0.157692  -0.298978  0  3.909726  0
C  C81  1  0.59268240  0.58937457  0.81503779  1  -0.028168  0  -0.157629  -0.298863  0  3.909823  0
C  C82  1  0.99662280  0.58983389  0.18493753  1  -0.080791  0  -0.158426  -0.297059  0  3.908467  0
C  C83  1  0.00337680  0.41016350  0.68493836  1  -0.080813  0  -0.158351  -0.296979  0  3.908298  0
C  C84  1  0.48726462  0.56557905  0.74999882  1  0.021854  0  -0.161359  -0.092189  0  3.944763  0
C  C85  1  0.51273621  0.43442309  0.25000017  1  0.021963  0  -0.161343  -0.092132  0  3.944715  0
C  C86  1  0.92167782  0.43399923  0.75000045  1  0.045855  0  -0.161301  -0.093587  0  3.941526  0
C  C87  1  0.07831861  0.56599881  0.25000059  1  0.045763  0  -0.161272  -0.093563  0  3.94156  0
O  O88  1  0.23051662  0.71043331  0.51680741  1  -1.20212  0  -0.35171  -0.625984  0  2.284492  0
O  O89  1  0.76948628  0.28956618  0.01680998  1  -1.202164  0  -0.351779  -0.626104  0  2.284124  0
O  O90  1  0.52135172  0.28989750  0.98305997  1  -1.205582  0  -0.352077  -0.625739  0  2.286678  0
O  O91  1  0.47865356  0.71010154  0.48306409  1  -1.205162  0  -0.352108  -0.625737  0  2.286356  0
O  O92  1  0.76947818  0.28956144  0.48319208  1  -1.202343  0  -0.351774  -0.626034  0  2.284228  0
O  O93  1  0.23052358  0.71043759  0.98318952  1  -1.201933  0  -0.351785  -0.626105  0  2.284056  0
O  O94  1  0.47865774  0.71010546  0.01693748  1  -1.205239  0  -0.352063  -0.625769  0  2.286602  0
O  O95  1  0.52134516  0.28989403  0.51693695  1  -1.205634  0  -0.351953  -0.625582  0  2.286848  0
O  O96  1  0.34892699  0.58436293  0.61990956  1  -1.174538  0  -0.365466  -0.61223  0  2.179585  0
O  O97  1  0.65106925  0.41563956  0.11990992  1  -1.17511  0  -0.36545  -0.612225  0  2.179645  0
O  O98  1  0.76490363  0.41547279  0.88014151  1  -1.164217  0  -0.364749  -0.609923  0  2.182485  0
O  O99  1  0.23511098  0.58453801  0.38014062  1  -1.164323  0  -0.364734  -0.609908  0  2.182163  0
O  O100  1  0.65106838  0.41564003  0.38009046  1  -1.175121  0  -0.365415  -0.612164  0  2.179762  0
O  O101  1  0.34892789  0.58435519  0.88008856  1  -1.175029  0  -0.365441  -0.612208  0  2.17969  0
O  O102  1  0.23510505  0.58453098  0.11986004  1  -1.164266  0  -0.364671  -0.60983  0  2.18252  0
O  O103  1  0.76489290  0.41546084  0.61985785  1  -1.164411  0  -0.364742  -0.609927  0  2.182349  0
O  O104  1  0.54768616  0.54426899  0.56426274  1  -1.228603  0  -0.449526  -0.750342  0  2.362566  0
O  O105  1  0.45231154  0.45572709  0.06426201  1  -1.228715  0  -0.449533  -0.750353  0  2.362514  0
O  O106  1  0.00359008  0.45562031  0.93576983  1  -1.227978  0  -0.450791  -0.750644  0  2.361253  0
O  O107  1  0.99641265  0.54438542  0.43576803  1  -1.22797  0  -0.450755  -0.750574  0  2.361358  0
O  O108  1  0.45231139  0.45572658  0.43573932  1  -1.228741  0  -0.449567  -0.750442  0  2.362608  0
O  O109  1  0.54769041  0.54427258  0.93573646  1  -1.228843  0  -0.449445  -0.75033  0  2.362747  0
O  O110  1  0.99641504  0.54438100  0.06423120  1  -1.227901  0  -0.450758  -0.750589  0  2.361289  0
O  O111  1  0.00358946  0.45562164  0.56422993  1  -1.227933  0  -0.450806  -0.750643  0  2.361217  0
O  O112  1  0.26605900  0.34399008  0.56564495  1  -1.242082  0  -0.607143  -0.832268  0  2.028112  0
O  O113  1  0.73393988  0.65600600  0.06564300  1  -1.242103  0  -0.607127  -0.832222  0  2.028137  0
O  O114  1  0.92146095  0.65583122  0.93432865  1  -1.25753  0  -0.606693  -0.831054  0  2.030036  0
O  O115  1  0.07854126  0.34416877  0.43432904  1  -1.257509  0  -0.606687  -0.831053  0  2.030028  0
O  O116  1  0.73393468  0.65600714  0.43435660  1  -1.242485  0  -0.607051  -0.832121  0  2.028238  0
O  O117  1  0.26606442  0.34399367  0.93435855  1  -1.242478  0  -0.607038  -0.832071  0  2.028318  0
O  O118  1  0.07853860  0.34416599  0.06567239  1  -1.257487  0  -0.606709  -0.831103  0  2.02999  0
O  O119  1  0.92145723  0.65583337  0.56567098  1  -1.257473  0  -0.606648  -0.830963  0  2.030065  0
