# generated using pymatgen
data_Zn3H33C35N11O18
_symmetry_space_group_name_H-M   'P 1'
_cell_length_a   12.29636652
_cell_length_b   13.11779924
_cell_length_c   15.99868447
_cell_angle_alpha   100.90108802
_cell_angle_beta   90.00000318
_cell_angle_gamma   90.00001117
_symmetry_Int_Tables_number   1
_chemical_formula_structural   Zn3H33C35N11O18
_chemical_formula_sum   'Zn6 H66 C70 N22 O36'
_cell_volume   2534.04132259
_cell_formula_units_Z   2
loop_
 _symmetry_equiv_pos_site_id
 _symmetry_equiv_pos_as_xyz
  1  'x, y, z'
loop_
 _atom_site_type_symbol
 _atom_site_label
 _atom_site_symmetry_multiplicity
 _atom_site_fract_x
 _atom_site_fract_y
 _atom_site_fract_z
 _atom_site_occupancy
 _atom_site_pbe_bader_charge
 _atom_site_pbe_bader_spin_density
 _atom_site_pbe_cm5_charge
 _atom_site_pbe_ddec_charge
 _atom_site_pbe_ddec_spin_density
 _atom_site_pbe_ddec_sum_bond_order
 _atom_site_pbe_magmom
Zn  Zn0  1  0.68905078  0.47406060  0.87289503  1  1.28207  0  0.696427  0.835801  0  2.411644  0
Zn  Zn1  1  0.68905236  0.02593901  0.62710487  1  1.282033  0  0.696459  0.83584  0  2.411583  0
Zn  Zn2  1  0.31094883  0.52593945  0.12710529  1  1.282073  0  0.696449  0.835816  0  2.411613  0
Zn  Zn3  1  0.31094888  0.97406104  0.37289545  1  1.282064  0  0.696438  0.835788  0  2.411648  0
Zn  Zn4  1  0.68602059  0.25000019  0.75000001  1  1.392955  0  0.682072  0.992517  0  2.194079  0
Zn  Zn5  1  0.31397902  0.75000063  0.25000043  1  1.392939  0  0.682056  0.99248  0  2.19414  0
H  H6  1  0.51197573  0.62392708  0.98064257  1  0.135659  0  0.129063  0.131462  0  0.982017  0
H  H7  1  0.51197655  0.87607256  0.51935784  1  0.135661  0  0.129067  0.131492  0  0.981993  0
H  H8  1  0.48802469  0.37607219  0.01935701  1  0.135645  0  0.12907  0.131485  0  0.98198  0
H  H9  1  0.48802387  0.12392749  0.48064311  1  0.135665  0  0.12907  0.131479  0  0.981989  0
H  H10  1  0.56393090  0.73926506  0.13951442  1  0.18292  0  0.127324  0.13892  0  1.045792  0
H  H11  1  0.56393091  0.76073393  0.36048611  1  0.182931  0  0.12733  0.138931  0  1.045774  0
H  H12  1  0.43606871  0.26073344  0.86048630  1  0.182921  0  0.127338  0.138946  0  1.045731  0
H  H13  1  0.43606789  0.23926612  0.63951421  1  0.182915  0  0.127336  0.138953  0  1.045757  0
H  H14  1  0.83885111  0.56175282  0.03424416  1  0.178182  0  0.149614  0.125262  0  0.982415  0
H  H15  1  0.83884954  0.93824622  0.46575576  1  0.178139  0  0.149628  0.125293  0  0.982402  0
H  H16  1  0.16115175  0.43824646  0.96575667  1  0.178154  0  0.149629  0.125299  0  0.9824  0
H  H17  1  0.16114926  0.06175305  0.53424381  1  0.178179  0  0.149615  0.12528  0  0.982406  0
H  H18  1  0.94214262  0.67897051  0.11728049  1  0.098397  0  0.115421  0.138116  0  1.004905  0
H  H19  1  0.94214345  0.82102933  0.38272018  1  0.09839  0  0.115415  0.138098  0  1.004919  0
H  H20  1  0.05785781  0.32102877  0.88272097  1  0.09838  0  0.115397  0.138088  0  1.004893  0
H  H21  1  0.05785616  0.17897072  0.61728076  1  0.098404  0  0.115429  0.13811  0  1.004912  0
H  H22  1  0.04309330  0.75000060  0.24999980  1  0.143957  0  0.112555  0.122528  0  1.029079  0
H  H23  1  0.95690712  0.24999945  0.75000115  1  0.143972  0  0.112555  0.122549  0  1.029055  0
H  H24  1  0.36338792  0.56698142  0.81783861  1  0.081087  0  0.112793  0.092259  0  0.999671  0
H  H25  1  0.36338796  0.93301740  0.68216042  1  0.081049  0  0.112801  0.092275  0  0.999605  0
H  H26  1  0.63661169  0.43301940  0.18216120  1  0.081083  0  0.112797  0.092256  0  0.999651  0
H  H27  1  0.63661247  0.06698187  0.31783916  1  0.081085  0  0.11277  0.092208  0  0.999682  0
H  H28  1  0.44182329  0.62994390  0.74948750  1  0.123434  0  0.120208  0.108769  0  0.972318  0
H  H29  1  0.44182576  0.87005493  0.75051090  1  0.123394  0  0.120223  0.108741  0  0.972272  0
H  H30  1  0.55817469  0.37005847  0.25051317  1  0.123409  0  0.120201  0.108782  0  0.972256  0
H  H31  1  0.55817629  0.12994355  0.24948731  1  0.123401  0  0.120202  0.108775  0  0.972279  0
H  H32  1  0.44306917  0.46505452  0.63899392  1  0.055528  0  0.110152  0.136371  0  0.951662  0
H  H33  1  0.44307157  0.03494425  0.86100397  1  0.055549  0  0.110146  0.136343  0  0.951699  0
H  H34  1  0.55693126  0.53494707  0.36100539  1  0.055632  0  0.110142  0.136331  0  0.95174  0
H  H35  1  0.55692885  0.96505579  0.13899510  1  0.055535  0  0.110122  0.136327  0  0.951711  0
H  H36  1  0.35612397  0.40533742  0.70383543  1  0.070341  0  0.100997  0.118676  0  1.017398  0
H  H37  1  0.35612475  0.09466212  0.79616381  1  0.070295  0  0.101018  0.118683  0  1.017386  0
H  H38  1  0.64387646  0.59466418  0.29616387  1  0.070235  0  0.100987  0.118674  0  1.017402  0
H  H39  1  0.64387567  0.90533714  0.20383514  1  0.07028  0  0.101006  0.118685  0  1.017378  0
H  H40  1  0.27005387  0.81927975  0.58462622  1  0.092466  0  0.113528  0.091972  0  0.994702  0
H  H41  1  0.27005468  0.68071985  0.91537417  1  0.092459  0  0.113523  0.091959  0  0.994691  0
H  H42  1  0.72994493  0.18072031  0.41537473  1  0.092431  0  0.113527  0.091955  0  0.994724  0
H  H43  1  0.72994575  0.31927943  0.08462666  1  0.092467  0  0.113527  0.091964  0  0.994688  0
H  H44  1  0.12514927  0.82339249  0.58040455  1  0.118924  0  0.114888  0.095955  0  1.002352  0
H  H45  1  0.12515089  0.67660784  0.91959469  1  0.118944  0  0.114891  0.095926  0  1.002405  0
H  H46  1  0.87484871  0.17660833  0.41959526  1  0.118978  0  0.1149  0.095949  0  1.002368  0
H  H47  1  0.87485034  0.32339221  0.08040500  1  0.118932  0  0.114915  0.095966  0  1.002354  0
H  H48  1  0.26857617  0.67310898  0.45604888  1  0.080458  0  0.104823  0.134946  0  0.962234  0
H  H49  1  0.26857699  0.82689072  0.04395112  1  0.080447  0  0.104835  0.134974  0  0.962282  0
H  H50  1  0.73142262  0.32689185  0.54395156  1  0.080429  0  0.104823  0.134954  0  0.962281  0
H  H51  1  0.73142262  0.17310933  0.95604858  1  0.080454  0  0.104813  0.134934  0  0.962222  0
H  H52  1  0.12290631  0.68354618  0.45395267  1  0.080889  0  0.103617  0.125571  0  0.988895  0
H  H53  1  0.12290631  0.81645426  0.04604744  1  0.080892  0  0.103616  0.125575  0  0.988877  0
H  H54  1  0.87709248  0.31645463  0.54604652  1  0.0809  0  0.103611  0.125575  0  0.988847  0
H  H55  1  0.87709248  0.18354579  0.95395288  1  0.080904  0  0.103618  0.125573  0  0.988859  0
H  H56  1  0.92924533  0.64444858  0.74388289  1  0.096664  0  0.118709  0.105767  0  0.977709  0
H  H57  1  0.92924698  0.85555114  0.75611755  1  0.096588  0  0.118728  0.105803  0  0.977707  0
H  H58  1  0.07075265  0.35554991  0.25611657  1  0.096678  0  0.118709  0.105756  0  0.977696  0
H  H59  1  0.07075426  0.14445124  0.24388375  1  0.09652  0  0.118696  0.105784  0  0.977741  0
H  H60  1  0.99843731  0.56965257  0.80879585  1  0.096669  0  0.118537  0.104712  0  0.975839  0
H  H61  1  0.99843815  0.93034717  0.69120460  1  0.096671  0  0.118549  0.10471  0  0.975858  0
H  H62  1  0.00156149  0.43034671  0.19120436  1  0.096681  0  0.118554  0.104726  0  0.975807  0
H  H63  1  0.00156146  0.06965210  0.30879561  1  0.096651  0  0.118582  0.104799  0  0.975798  0
H  H64  1  0.90962569  0.49161506  0.62858572  1  0.061168  0  0.107753  0.12921  0  0.963146  0
H  H65  1  0.90962646  0.00838459  0.87141419  1  0.061153  0  0.107747  0.129192  0  0.963164  0
H  H66  1  0.09037392  0.50838343  0.37141374  1  0.061165  0  0.107755  0.129211  0  0.96313  0
H  H67  1  0.09037640  0.99161856  0.12858597  1  0.061122  0  0.107739  0.129148  0  0.963159  0
H  H68  1  0.99615287  0.41624526  0.68147117  1  0.037354  0  0.099887  0.117671  0  1.005799  0
H  H69  1  0.99615284  0.08375442  0.81852938  1  0.037363  0  0.099883  0.11767  0  1.005797  0
H  H70  1  0.00384674  0.58375479  0.31852915  1  0.037361  0  0.099893  0.117679  0  1.005788  0
H  H71  1  0.00384921  0.91624563  0.18146969  1  0.037406  0  0.099855  0.117576  0  1.005825  0
C  C72  1  0.58778508  0.62890560  0.01573650  1  0.284444  0  0.008708  -0.016226  0  3.95374  0
C  C73  1  0.58778512  0.87109261  0.48426454  1  0.28441  0  0.008728  -0.016271  0  3.953789  0
C  C74  1  0.41221615  0.37109367  0.98426433  1  0.284405  0  0.008733  -0.016253  0  3.953717  0
C  C75  1  0.41221530  0.12890666  0.51573629  1  0.284429  0  0.008724  -0.016242  0  3.953687  0
C  C76  1  0.61269326  0.68677849  0.09380411  1  0.428135  0  0.011328  -0.074699  0  3.856815  0
C  C77  1  0.61269329  0.81322128  0.40619717  1  0.428149  0  0.011326  -0.074704  0  3.856829  0
C  C78  1  0.38730797  0.31322079  0.90619672  1  0.428197  0  0.011302  -0.074764  0  3.8568  0
C  C79  1  0.38730551  0.18677877  0.59380378  1  0.42789  0  0.011287  -0.074769  0  3.856823  0
C  C80  1  0.75823462  0.59576979  0.03983183  1  1.001924  0  0.160024  0.124084  0  3.857493  0
C  C81  1  0.75823467  0.90423079  0.46016833  1  1.001954  0  0.160003  0.123977  0  3.857423  0
C  C82  1  0.24176580  0.40423104  0.96016861  1  1.001955  0  0.160026  0.123979  0  3.857412  0
C  C83  1  0.24176494  0.09576926  0.53983200  1  1.00153  0  0.159994  0.123966  0  3.85744  0
C  C84  1  0.78471238  0.70973252  0.18029162  1  0.880098  0  0.232302  0.327415  0  4.043228  0
C  C85  1  0.78471239  0.79026729  0.31970905  1  0.880091  0  0.23231  0.327388  0  4.043207  0
C  C86  1  0.21528805  0.29026753  0.81970933  1  0.880047  0  0.232311  0.327347  0  4.043256  0
C  C87  1  0.21528722  0.20973199  0.68029178  1  0.880106  0  0.232324  0.327325  0  4.043327  0
C  C88  1  0.89804504  0.70976954  0.17566548  1  -0.024816  0  -0.082123  -0.214694  0  3.925085  0
C  C89  1  0.89804424  0.79023106  0.32433468  1  -0.024803  0  -0.082081  -0.214607  0  3.925095  0
C  C90  1  0.10195619  0.29023129  0.82433558  1  -0.024779  0  -0.082074  -0.214594  0  3.925113  0
C  C91  1  0.10195537  0.20976900  0.67566627  1  -0.024904  0  -0.082086  -0.214555  0  3.925133  0
C  C92  1  0.95458126  0.75000069  0.24999983  1  0.142805  0  -0.06187  0.015141  0  3.947347  0
C  C93  1  0.04541916  0.24999936  0.75000112  1  0.142896  0  -0.061889  0.015059  0  3.947368  0
C  C94  1  0.18272236  0.56823122  0.74228856  1  1.791322  0  0.339032  0.544171  0  4.170289  0
C  C95  1  0.18272402  0.93176913  0.75771068  1  1.791313  0  0.339067  0.544168  0  4.170243  0
C  C96  1  0.81727644  0.43176960  0.25771062  1  1.791355  0  0.339073  0.544191  0  4.170285  0
C  C97  1  0.81727722  0.06822936  0.24228815  1  1.791282  0  0.339035  0.544195  0  4.170348  0
C  C98  1  0.29013133  0.66531931  0.65337952  1  1.782552  0  0.337013  0.543094  0  4.179319  0
C  C99  1  0.29013379  0.83467950  0.84662013  1  1.782197  0  0.337026  0.543124  0  4.179224  0
C  C100  1  0.70986584  0.33468074  0.34662080  1  1.782555  0  0.337031  0.543114  0  4.179319  0
C  C101  1  0.70986826  0.16531976  0.15337883  1  1.782256  0  0.337072  0.543179  0  4.179295  0
C  C102  1  0.08911097  0.66760998  0.64756357  1  1.790306  0  0.337092  0.541435  0  4.177333  0
C  C103  1  0.08911343  0.83238723  0.85243458  1  1.790255  0  0.337107  0.541455  0  4.177308  0
C  C104  1  0.91088701  0.33238695  0.35243379  1  1.790266  0  0.337084  0.541431  0  4.177401  0
C  C105  1  0.91088780  0.16761204  0.14756500  1  1.790277  0  0.337076  0.541432  0  4.177322  0
C  C106  1  0.38111186  0.56957106  0.75133978  1  0.285778  0  -0.061897  -0.021024  0  3.90985  0
C  C107  1  0.38111352  0.93042856  0.74866124  1  0.285755  0  -0.061898  -0.02097  0  3.909789  0
C  C108  1  0.61888694  0.43043054  0.24866077  1  0.285752  0  -0.061889  -0.020961  0  3.909702  0
C  C109  1  0.61888772  0.06957071  0.25133897  1  0.285773  0  -0.061854  -0.020962  0  3.909805  0
C  C110  1  0.42065523  0.46374859  0.70531148  1  -0.014082  0  -0.163158  -0.321973  0  3.902252  0
C  C111  1  0.42065763  0.03624941  0.79468754  1  -0.013951  0  -0.163175  -0.321956  0  3.902345  0
C  C112  1  0.57934438  0.53625301  0.29468845  1  -0.014027  0  -0.163138  -0.321993  0  3.902319  0
C  C113  1  0.57934279  0.96374986  0.20531204  1  -0.013994  0  -0.163149  -0.321951  0  3.902275  0
C  C114  1  0.51794657  0.42694099  0.74989641  1  1.58206  0  0.226219  0.663382  0  4.105175  0
C  C115  1  0.51794816  0.07305857  0.75010097  1  1.582101  0  0.226237  0.663342  0  4.10522  0
C  C116  1  0.48205223  0.57305905  0.25010328  1  1.582059  0  0.226218  0.663417  0  4.104956  0
C  C117  1  0.48205226  0.92694147  0.24989810  1  1.582104  0  0.226277  0.663457  0  4.105117  0
C  C118  1  0.19649554  0.77323334  0.56700132  1  0.284661  0  -0.059385  -0.024949  0  3.904544  0
C  C119  1  0.19649555  0.72676701  0.93299855  1  0.284838  0  -0.059354  -0.024844  0  3.904612  0
C  C120  1  0.80350325  0.22676826  0.43299861  1  0.28468  0  -0.059352  -0.024825  0  3.904647  0
C  C121  1  0.80350487  0.27323304  0.06700115  1  0.284828  0  -0.059385  -0.024879  0  3.904687  0
C  C122  1  0.19906703  0.72544386  0.47203719  1  -0.044387  0  -0.164947  -0.319938  0  3.896392  0
C  C123  1  0.19906783  0.77455660  0.02796292  1  -0.044085  0  -0.164959  -0.320009  0  3.896459  0
C  C124  1  0.80093177  0.27455696  0.52796262  1  -0.044401  0  -0.164955  -0.319985  0  3.896429  0
C  C125  1  0.80093259  0.22544423  0.97203752  1  -0.044399  0  -0.164927  -0.31993  0  3.896432  0
C  C126  1  0.20707835  0.81642180  0.42623877  1  1.53138  0  0.21181  0.651115  0  4.100025  0
C  C127  1  0.20707832  0.68357944  0.07376146  1  1.531054  0  0.211931  0.651327  0  4.099748  0
C  C128  1  0.79292208  0.18357824  0.57376093  1  1.531457  0  0.211879  0.651212  0  4.099926  0
C  C129  1  0.79292210  0.31642139  0.92623960  1  1.531375  0  0.211922  0.651319  0  4.099797  0
C  C130  1  0.98394522  0.57865995  0.74314263  1  0.310166  0  -0.05932  -0.02162  0  3.894523  0
C  C131  1  0.98394688  0.92134055  0.75685730  1  0.310164  0  -0.059361  -0.021679  0  3.89462  0
C  C132  1  0.01605439  0.42134010  0.25685831  1  0.310156  0  -0.059354  -0.021627  0  3.894513  0
C  C133  1  0.01605517  0.07866182  0.24314212  1  0.310227  0  -0.059434  -0.02189  0  3.894649  0
C  C134  1  0.93574316  0.47898132  0.69169999  1  -0.013685  0  -0.160652  -0.314378  0  3.895371  0
C  C135  1  0.93574312  0.02101757  0.80830106  1  -0.013707  0  -0.160639  -0.314328  0  3.895343  0
C  C136  1  0.06425645  0.52101717  0.30830010  1  -0.013698  0  -0.160665  -0.314386  0  3.895355  0
C  C137  1  0.06425893  0.97898403  0.19169887  1  -0.013686  0  -0.160582  -0.314102  0  3.895211  0
C  C138  1  0.83815580  0.44323522  0.73703219  1  1.592765  0  0.225363  0.65766  0  4.101978  0
C  C139  1  0.83815657  0.05676365  0.76296823  1  1.592758  0  0.225367  0.657679  0  4.101984  0
C  C140  1  0.16184381  0.55676405  0.26296739  1  1.593097  0  0.225325  0.657621  0  4.102078  0
C  C141  1  0.16184548  0.94323718  0.23703221  1  1.593088  0  0.225317  0.657543  0  4.102101  0
N  N142  1  0.67884209  0.57248066  0.98311287  1  -1.26098  0  -0.354294  -0.286185  0  3.612389  0
N  N143  1  0.67884130  0.92751979  0.51688767  1  -1.260969  0  -0.354294  -0.286118  0  3.612325  0
N  N144  1  0.32115996  0.42751939  0.01688808  1  -1.260969  0  -0.354308  -0.286114  0  3.61229  0
N  N145  1  0.32115994  0.07247948  0.48311129  1  -1.260593  0  -0.354314  -0.28611  0  3.612258  0
N  N146  1  0.72144897  0.66573740  0.10807370  1  -1.26731  0  -0.211898  -0.010906  0  3.750267  0
N  N147  1  0.72144899  0.83426161  0.39192622  1  -1.26732  0  -0.211952  -0.0109  0  3.750227  0
N  N148  1  0.27855227  0.33426188  0.89192713  1  -1.267328  0  -0.211945  -0.01084  0  3.750248  0
N  N149  1  0.27854980  0.16573610  0.60807250  1  -1.267075  0  -0.21189  -0.010842  0  3.750294  0
N  N150  1  0.72832581  0.74999990  0.25000033  1  -1.208949  0  -0.308405  -0.389438  0  3.31749  0
N  N151  1  0.27167380  0.25000015  0.74999999  1  -1.208926  0  -0.308425  -0.389417  0  3.317491  0
N  N152  1  0.28081150  0.60203238  0.71380916  1  -1.183529  0  -0.255655  -0.248271  0  3.627776  0
N  N153  1  0.28081397  0.89796799  0.78619197  1  -1.18343  0  -0.255658  -0.248229  0  3.627667  0
N  N154  1  0.71918649  0.39796923  0.28619265  1  -1.183536  0  -0.255641  -0.248274  0  3.627672  0
N  N155  1  0.71918727  0.10203128  0.21380823  1  -1.183489  0  -0.255663  -0.248264  0  3.627715  0
N  N156  1  0.19165996  0.69755427  0.62363061  1  -1.189544  0  -0.257014  -0.248488  0  3.625273  0
N  N157  1  0.19166242  0.80244530  0.87636978  1  -1.189706  0  -0.257033  -0.248559  0  3.625379  0
N  N158  1  0.80833639  0.30244578  0.37636971  1  -1.189519  0  -0.257037  -0.24861  0  3.625503  0
N  N159  1  0.80833719  0.19755474  0.12362992  1  -1.189724  0  -0.257039  -0.248631  0  3.625459  0
N  N160  1  0.08924108  0.60564735  0.70938133  1  -1.191385  0  -0.25409  -0.245087  0  3.618684  0
N  N161  1  0.08924274  0.89435298  0.79061916  1  -1.191548  0  -0.254104  -0.245161  0  3.618709  0
N  N162  1  0.91075690  0.39435270  0.29061837  1  -1.191557  0  -0.254104  -0.245095  0  3.6187  0
N  N163  1  0.91075443  0.10564629  0.20938042  1  -1.191403  0  -0.254047  -0.245034  0  3.618677  0
O  O164  1  0.56347952  0.34313978  0.71454031  1  -1.186656  0  -0.311047  -0.566643  0  2.32291  0
O  O165  1  0.56347951  0.15685979  0.78545833  1  -1.186615  0  -0.311054  -0.566609  0  2.322875  0
O  O166  1  0.43652090  0.65686182  0.28545962  1  -1.186682  0  -0.311026  -0.566635  0  2.322773  0
O  O167  1  0.43652010  0.84314102  0.21454086  1  -1.186634  0  -0.311054  -0.566628  0  2.322887  0
O  O168  1  0.54530669  0.48413000  0.82053728  1  -1.181263  0  -0.32153  -0.548612  0  2.338951  0
O  O169  1  0.54530745  0.01586879  0.67946124  1  -1.181337  0  -0.321521  -0.548613  0  2.339036  0
O  O170  1  0.45469210  0.51587006  0.17946430  1  -1.181256  0  -0.321516  -0.548595  0  2.338938  0
O  O171  1  0.45469378  0.98413125  0.32053845  1  -1.181327  0  -0.321545  -0.548676  0  2.338992  0
O  O172  1  0.13438045  0.88344560  0.43428495  1  -1.162541  0  -0.314666  -0.53848  0  2.065646  0
O  O173  1  0.13438123  0.61655407  0.06571504  1  -1.162547  0  -0.31475  -0.538596  0  2.065473  0
O  O174  1  0.86562078  0.11655601  0.56571623  1  -1.162555  0  -0.314714  -0.538539  0  2.065604  0
O  O175  1  0.86561920  0.38344598  0.93428528  1  -1.162535  0  -0.314764  -0.538616  0  2.065511  0
O  O176  1  0.29913074  0.82548459  0.38569324  1  -1.178161  0  -0.338973  -0.603192  0  2.384665  0
O  O177  1  0.29913072  0.67451512  0.11430738  1  -1.178131  0  -0.338996  -0.603276  0  2.384666  0
O  O178  1  0.70087050  0.17451545  0.61430645  1  -1.178236  0  -0.338988  -0.603222  0  2.384647  0
O  O179  1  0.70086889  0.32548493  0.88569231  1  -1.178165  0  -0.338991  -0.603297  0  2.384683  0
O  O180  1  0.81215542  0.34821126  0.71964693  1  -1.18861  0  -0.305461  -0.57049  0  2.352524  0
O  O181  1  0.81215622  0.15178838  0.78035298  1  -1.18858  0  -0.305454  -0.570488  0  2.352531  0
O  O182  1  0.18784419  0.65178801  0.28035327  1  -1.188912  0  -0.30546  -0.570487  0  2.352585  0
O  O183  1  0.18784583  0.84821322  0.21964633  1  -1.188887  0  -0.305438  -0.570425  0  2.352607  0
O  O184  1  0.79056777  0.51405916  0.79052707  1  -1.174519  0  -0.321372  -0.535686  0  2.310187  0
O  O185  1  0.79056781  0.98594053  0.70947336  1  -1.17449  0  -0.321379  -0.535717  0  2.310195  0
O  O186  1  0.20943184  0.48594011  0.20947313  1  -1.174537  0  -0.321331  -0.535666  0  2.310215  0
O  O187  1  0.20943261  0.01406107  0.29052720  1  -1.174553  0  -0.321361  -0.535668  0  2.310245  0
O  O188  1  0.17911072  0.51026278  0.79431628  1  -1.141087  0  -0.278197  -0.483545  0  2.168953  0
O  O189  1  0.17911320  0.98973757  0.70568422  1  -1.141102  0  -0.27825  -0.483553  0  2.168949  0
O  O190  1  0.82088727  0.48973571  0.20568256  1  -1.141109  0  -0.27827  -0.483582  0  2.168948  0
O  O191  1  0.82088803  0.01026404  0.29431696  1  -1.141113  0  -0.278208  -0.48356  0  2.168954  0
O  O192  1  0.37843953  0.69212819  0.62899480  1  -1.125174  0  -0.283417  -0.469735  0  2.083404  0
O  O193  1  0.37844199  0.80787064  0.87100485  1  -1.125262  0  -0.283422  -0.469752  0  2.08338  0
O  O194  1  0.62155845  0.30787108  0.37100478  1  -1.125263  0  -0.283417  -0.469721  0  2.083392  0
O  O195  1  0.62156087  0.19212941  0.12899485  1  -1.125206  0  -0.283478  -0.469794  0  2.08339  0
O  O196  1  0.00475597  0.69534823  0.61742747  1  -1.125157  0  -0.28574  -0.469356  0  2.076234  0
O  O197  1  0.00475843  0.80464506  0.88256695  1  -1.125078  0  -0.285753  -0.46936  0  2.076221  0
O  O198  1  0.99524201  0.30464479  0.38256616  1  -1.125074  0  -0.285756  -0.469384  0  2.076274  0
O  O199  1  0.99523955  0.19535421  0.11743325  1  -1.125062  0  -0.28569  -0.469288  0  2.076362  0
