# generated using pymatgen
data_Al6H69C84S3NO37
_symmetry_space_group_name_H-M   'P 1'
_cell_length_a   13.17367018
_cell_length_b   13.35381947
_cell_length_c   28.22913651
_cell_angle_alpha   90.11679869
_cell_angle_beta   89.97805146
_cell_angle_gamma   119.96113133
_symmetry_Int_Tables_number   1
_chemical_formula_structural   Al6H69C84S3NO37
_chemical_formula_sum   'Al6 H69 C84 S3 N1 O37'
_cell_volume   4302.38686188
_cell_formula_units_Z   1
loop_
 _symmetry_equiv_pos_site_id
 _symmetry_equiv_pos_as_xyz
  1  'x, y, z'
loop_
 _atom_site_type_symbol
 _atom_site_label
 _atom_site_symmetry_multiplicity
 _atom_site_fract_x
 _atom_site_fract_y
 _atom_site_fract_z
 _atom_site_occupancy
 _atom_site_pbe_bader_charge
 _atom_site_pbe_bader_spin_density
 _atom_site_pbe_cm5_charge
 _atom_site_pbe_ddec_charge
 _atom_site_pbe_ddec_spin_density
 _atom_site_pbe_ddec_sum_bond_order
 _atom_site_pbe_magmom
Al  Al0  1  0.58342869  0.16881599  0.49720824  1  2.492525  0  0.398064  1.682245  0  2.558848  0
Al  Al1  1  0.34407164  0.92419465  0.50093819  1  2.480355  0  0.509725  1.662019  0  2.507684  0
Al  Al2  1  0.57182151  0.92258408  0.49990755  1  2.47787  0  0.507119  1.660045  0  2.512435  0
Al  Al3  1  0.08405868  0.16143616  0.99869182  1  2.485881  0  0.394648  1.68484  0  2.558831  0
Al  Al4  1  0.08435646  0.40208486  0.00026532  1  2.480485  0  0.508226  1.65596  0  2.516807  0
Al  Al5  1  0.31667851  0.41112673  0.00254083  1  2.477961  0  0.504962  1.660294  0  2.512023  0
H  H6  1  0.23267973  0.80610187  0.20595629  1  0.122498  0  0.113945  0.114475  0  0.993865  0
H  H7  1  0.87114394  0.01577166  0.28430618  1  -0.017143  0  0.102205  0.047297  0  0.950157  0
H  H8  1  0.95450554  0.08414822  0.20954851  1  0.023231  0  0.095275  0.098787  0  0.979062  0
H  H9  1  0.02215090  0.23004665  0.22780169  1  0.061619  0  0.097334  0.102961  0  1.023169  0
H  H10  1  0.77070041  0.27505742  0.29620261  1  0.03939  0  0.097093  0.102119  0  0.971349  0
H  H11  1  0.92035275  0.31817499  0.29653629  1  0.079936  0  0.092955  0.100264  0  1.013184  0
H  H12  1  0.76086440  0.26630177  0.21271921  1  0.011533  0  0.088749  0.088014  0  0.981645  0
H  H13  1  0.62577450  0.06493414  0.27332893  1  0.011972  0  0.088615  0.081822  0  1.02399  0
H  H14  1  0.65585243  0.05350638  0.19188384  1  0.034272  0  0.09027  0.087644  0  0.992813  0
H  H15  1  0.91556087  0.34649549  0.21478100  1  0.091304  0  0.091449  0.106446  0  1.014507  0
H  H16  1  0.52383839  0.26321604  0.20455405  1  0.051009  0  0.095291  0.095083  0  0.978392  0
H  H17  1  0.52030260  0.24129904  0.28691399  1  0.04624  0  0.099986  0.103215  0  0.967741  0
H  H18  1  0.21269671  0.18201290  0.29653013  1  0.098319  0  0.090652  0.096709  0  1.025282  0
H  H19  1  0.36189866  0.28969586  0.30269862  1  0.04174  0  0.09555  0.098219  0  0.970524  0
H  H20  1  0.37437730  0.32715028  0.22165136  1  0.026214  0  0.089574  0.093224  0  1.00194  0
H  H21  1  0.22336045  0.22725257  0.21700245  1  0.04314  0  0.091424  0.090398  0  1.002074  0
H  H22  1  0.26549914  0.93775251  0.27138185  1  0.01282  0  0.08427  0.080817  0  1.024801  0
H  H23  1  0.15760987  0.97591257  0.28144109  1  0.040853  0  0.099638  0.108217  0  0.965533  0
H  H24  1  0.25823576  0.97171781  0.18965216  1  -0.005065  0  0.084502  0.073184  0  1.015692  0
H  H25  1  0.48630674  0.09749113  0.27822090  1  0.016014  0  0.08443  0.071768  0  1.037148  0
H  H26  1  0.47446062  0.11491549  0.19579426  1  0.008547  0  0.087322  0.081894  0  0.991992  0
H  H27  1  0.44561337  0.93075696  0.25655167  1  0.134931  0  0.108767  0.104164  0  1.022298  0
H  H28  1  0.15490261  0.01625553  0.20102119  1  0.029117  0  0.095611  0.097517  0  0.975256  0
H  H29  1  0.49420599  0.67327260  0.79657268  1  0.061337  0  0.103353  0.108081  0  0.967437  0
H  H30  1  0.50494850  0.68364190  0.71354530  1  0.025806  0  0.100193  0.103869  0  0.966742  0
H  H31  1  0.17885093  0.53215666  0.69920582  1  0.085934  0  0.101703  0.111849  0  0.976615  0
H  H32  1  0.30233233  0.51387940  0.69192662  1  0.051002  0  0.097825  0.098866  0  0.976678  0
H  H33  1  0.31432488  0.48935035  0.77359264  1  0.001582  0  0.095246  0.093901  0  0.99065  0
H  H34  1  0.17346270  0.47406811  0.77739583  1  0.056766  0  0.098166  0.10021  0  1.016733  0
H  H35  1  0.34560480  0.84863859  0.72485794  1  0.022193  0  0.100431  0.106895  0  0.989939  0
H  H36  1  0.20608011  0.73282265  0.70947946  1  0.107695  0  0.109808  0.123066  0  0.973819  0
H  H37  1  0.30184406  0.79830127  0.80419021  1  0.084867  0  0.116988  0.114093  0  0.959505  0
H  H38  1  0.54165554  0.81517947  0.20464462  1  0.072132  0  0.112994  0.112368  0  0.986926  0
H  H39  1  0.52514322  0.82419134  0.71887986  1  0.018893  0  0.094313  0.09244  0  0.997133  0
H  H40  1  0.48819431  0.80194951  0.80058729  1  0.041296  0  0.096105  0.096452  0  0.975775  0
H  H41  1  0.73997598  0.25919617  0.79486595  1  0.069371  0  0.097936  0.100296  0  0.972093  0
H  H42  1  0.69038265  0.21787956  0.71468325  1  0.03548  0  0.096157  0.094756  0  0.985558  0
H  H43  1  0.99161814  0.26209506  0.69506269  1  0.010999  0  0.09405  0.092652  0  0.97919  0
H  H44  1  0.91006807  0.33359170  0.70144224  1  0.048669  0  0.099441  0.105474  0  0.967943  0
H  H45  1  0.95924416  0.35978330  0.78147691  1  0.080244  0  0.094718  0.101039  0  1.004523  0
H  H46  1  0.02847162  0.27562950  0.77660596  1  0.011469  0  0.089791  0.084717  0  0.999566  0
H  H47  1  0.73917213  0.96396059  0.71806748  1  0.026516  0  0.090968  0.087666  0  0.995736  0
H  H48  1  0.45466340  0.63698731  0.27457174  1  0.096881  0  0.124546  0.131635  0  0.947952  0
H  H49  1  0.89192946  0.04498274  0.70945328  1  0.042534  0  0.095082  0.095361  0  0.976715  0
H  H50  1  0.76349200  0.99027878  0.80035439  1  0.048203  0  0.093036  0.091833  0  0.978979  0
H  H51  1  0.62253992  0.06783115  0.72556571  1  0.023302  0  0.087761  0.080002  0  0.99951  0
H  H52  1  0.65962891  0.10928079  0.80658871  1  0.023848  0  0.090605  0.085425  0  0.98932  0
H  H53  1  0.91643663  0.06161262  0.79193849  1  0.020071  0  0.09495  0.094095  0  0.984605  0
H  H54  1  0.27306023  0.02057517  0.80573685  1  0.024587  0  0.090283  0.085148  0  0.995031  0
H  H55  1  0.26577120  0.98416281  0.72444544  1  0.062075  0  0.094106  0.096084  0  0.987727  0
H  H56  1  0.23251921  0.23936566  0.69593690  1  0.022142  0  0.093858  0.092481  0  0.980382  0
H  H57  1  0.15518085  0.08825222  0.70437695  1  0.055644  0  0.096468  0.096826  0  0.977485  0
H  H58  1  0.15053896  0.11299210  0.78642421  1  0.05568  0  0.095045  0.094247  0  0.979463  0
H  H59  1  0.21817398  0.26351692  0.77739951  1  0.033098  0  0.091197  0.086418  0  1.001247  0
H  H60  1  0.53203662  0.27638249  0.71016358  1  0.03954  0  0.09523  0.094795  0  0.985437  0
H  H61  1  0.45592238  0.34950966  0.69575660  1  0.049246  0  0.095977  0.095374  0  0.976176  0
H  H62  1  0.52675352  0.32140125  0.79007545  1  0.033949  0  0.096449  0.097018  0  0.976198  0
H  H63  1  0.42078740  0.05932468  0.72343857  1  0.018379  0  0.090589  0.085105  0  1.003245  0
H  H64  1  0.42763733  0.10463270  0.80395829  1  0.053292  0  0.093478  0.092819  0  0.980659  0
H  H65  1  0.44077604  0.38467524  0.77617552  1  0.033172  0  0.090691  0.08625  0  0.990302  0
H  H66  1  0.73084470  0.97615031  0.20162886  1  0.020439  0  0.090353  0.084532  0  0.993351  0
H  H67  1  0.66482693  0.95694589  0.28066559  1  0.038488  0  0.091299  0.088812  0  0.989796  0
H  H68  1  0.98495846  0.61900001  0.23431106  1  0.630619  0  0.36089  0.405962  0  0.829872  0
H  H69  1  0.07937719  0.79321190  0.81356513  1  0.646582  0  0.35707  0.409033  0  0.832062  0
H  H70  1  0.32307564  0.48882414  0.15315034  1  0.652514  0  0.339496  0.389746  0  0.873051  0
H  H71  1  0.99259917  0.14548109  0.34516105  1  0.418292  0  0.285763  0.273811  0  0.968683  0
H  H72  1  0.05616004  0.25261406  0.30671824  1  0.384064  0  0.283184  0.277272  0  0.97909  0
H  H73  1  0.67849354  0.36065376  0.52433229  1  0.574125  0  0.292348  0.384119  0  0.92117  0
H  H74  1  0.99306227  0.97033157  0.02585297  1  0.602967  0  0.290679  0.382171  0  0.924177  0
C  C75  1  0.37871062  0.08266586  0.43144126  1  1.659731  0  0.280627  0.718811  0  4.160114  0
C  C76  1  0.37257128  0.76708032  0.38152706  1  0.089408  0  -0.01497  -0.148821  0  3.893338  0
C  C77  1  0.29044751  0.60925651  0.23145241  1  -0.103325  0  0.007743  -0.109957  0  3.679789  0
C  C78  1  0.33645495  0.70635252  0.19157161  1  0.107104  0  0.018048  0.120552  0  3.766264  0
C  C79  1  0.40802396  0.67720848  0.25891847  1  0.021268  0  -0.055461  -0.07504  0  3.598958  0
C  C80  1  0.35551214  0.74109178  0.28871597  1  0.114351  0  0.025606  0.130966  0  3.750718  0
C  C81  1  0.45473246  0.77461253  0.22070214  1  0.012787  0  -0.061449  -0.067668  0  3.585052  0
C  C82  1  0.40150078  0.83838221  0.24897637  1  -0.052406  0  -0.060041  -0.066178  0  3.581551  0
C  C83  1  0.31943850  0.67375619  0.14306455  1  -0.463111  0  -0.016778  -0.032475  0  4.045376  0
C  C84  1  0.36455885  0.75627960  0.33859555  1  -0.263456  0  -0.01787  -0.03315  0  4.028491  0
C  C85  1  0.69550537  0.04428610  0.26676159  1  -0.032216  0  -0.15512  -0.190334  0  3.878213  0
C  C86  1  0.39127311  0.79895216  0.43104172  1  1.65026  0  0.287338  0.715969  0  4.150538  0
C  C87  1  0.90779049  0.10999253  0.28107753  1  0.429718  0  0.009771  0.159856  0  3.845936  0
C  C88  1  0.93999887  0.14718575  0.22904240  1  -0.025173  0  -0.152427  -0.243918  0  3.806673  0
C  C89  1  0.90039813  0.20376427  0.11311045  1  0.262578  0  -0.056557  -0.234833  0  3.974161  0
C  C90  1  0.80514798  0.13221860  0.29505583  1  0.1161  0  -0.00437  0.099253  0  3.89597  0
C  C91  1  0.72430692  0.05134857  0.21337789  1  -0.035941  0  -0.15548  -0.200129  0  3.886688  0
C  C92  1  0.84314727  0.16192897  0.20419879  1  0.14581  0  0.001485  0.174597  0  3.890937  0
C  C93  1  0.83895590  0.26601337  0.22641611  1  -0.042666  0  -0.159642  -0.194816  0  3.846125  0
C  C94  1  0.83571418  0.25586668  0.28080748  1  -0.050616  0  -0.15893  -0.190484  0  3.85593  0
C  C95  1  0.86994559  0.18142376  0.15418821  1  -0.557978  0  -0.008157  0.003564  0  3.993042  0
C  C96  1  0.78093095  0.11443224  0.34516699  1  -0.451286  0  -0.011193  -0.007887  0  4.037516  0
C  C97  1  0.70890310  0.08323995  0.43378264  1  1.640059  0  0.280451  0.718298  0  4.159477  0
C  C98  1  0.75865079  0.10141214  0.38723923  1  0.170486  0  -0.049269  -0.227571  0  3.973907  0
C  C99  1  0.45798578  0.15991798  0.26938320  1  -0.045788  0  -0.152554  -0.186628  0  3.846505  0
C  C100  1  0.30127636  0.21184617  0.28270433  1  -0.066731  0  -0.156534  -0.187621  0  3.833177  0
C  C101  1  0.30710104  0.23792299  0.22936420  1  -0.002909  0  -0.159123  -0.184183  0  3.842111  0
C  C102  1  0.32239557  0.21268947  0.11083224  1  0.330362  0  -0.058063  -0.237894  0  3.977943  0
C  C103  1  0.33465979  0.11748179  0.29082850  1  0.155479  0  0.000922  0.168203  0  3.9045  0
C  C104  1  0.45633632  0.17586355  0.21519353  1  -0.025426  0  -0.154718  -0.186071  0  3.86024  0
C  C105  1  0.33479835  0.15597690  0.20014583  1  0.131364  0  -0.000153  0.164841  0  3.900652  0
C  C106  1  0.24112722  0.02983690  0.21164062  1  -0.013974  0  -0.155173  -0.186344  0  3.858635  0
C  C107  1  0.24369575  0.00598151  0.26514202  1  0.001307  0  -0.156838  -0.190982  0  3.8386  0
C  C108  1  0.38001269  0.09151811  0.56673144  1  1.668406  0  0.277766  0.723141  0  4.154831  0
C  C109  1  0.33123402  0.18337240  0.15069206  1  -0.59523  0  -0.009305  -0.004424  0  3.998635  0
C  C110  1  0.33840305  0.09981080  0.34117946  1  -0.474084  0  -0.007018  -0.002454  0  3.999702  0
C  C111  1  0.34870401  0.09294590  0.38362488  1  0.190821  0  -0.049402  -0.226633  0  3.974197  0
C  C112  1  0.46596180  0.73315171  0.72804130  1  -0.010397  0  -0.152401  -0.192883  0  3.848619  0
C  C113  1  0.26724255  0.55967731  0.71250258  1  -0.071461  0  -0.152151  -0.191735  0  3.832666  0
C  C114  1  0.26360282  0.53236362  0.76583466  1  0.009377  0  -0.154443  -0.193626  0  3.836736  0
C  C115  1  0.29521406  0.58896585  0.88724086  1  0.018647  0  -0.038101  -0.193339  0  3.925048  0
C  C116  1  0.34560440  0.69149229  0.70411795  1  0.166172  0  0.004555  0.174534  0  3.885634  0
C  C117  1  0.45002904  0.71801953  0.78235361  1  -0.031765  0  -0.14962  -0.187337  0  3.834212  0
C  C118  1  0.31784105  0.64544599  0.79560053  1  0.134592  0  0.008121  0.162027  0  3.869712  0
C  C119  1  0.38962624  0.78374467  0.56409081  1  1.659806  0  0.289635  0.73144  0  4.136747  0
C  C120  1  0.26360136  0.72146736  0.78122744  1  -0.119291  0  -0.063946  -0.1853  0  3.7482  0
C  C121  1  0.28760792  0.75491689  0.72818773  1  -0.028488  0  -0.150413  -0.214825  0  3.822745  0
C  C122  1  0.30513826  0.61717709  0.84582131  1  -0.241935  0  -0.011881  -0.018087  0  3.98999  0
C  C123  1  0.35816718  0.71587011  0.65357185  1  -0.451238  0  -0.00466  -0.004454  0  3.969096  0
C  C124  1  0.36752861  0.73697155  0.61135317  1  0.17826  0  -0.041024  -0.21285  0  3.937756  0
C  C125  1  0.70333420  0.15087248  0.73142218  1  -0.037991  0  -0.153074  -0.184947  0  3.848305  0
C  C126  1  0.92015545  0.26211593  0.71517086  1  -0.002158  0  -0.151836  -0.184531  0  3.837067  0
C  C127  1  0.94737058  0.27689163  0.76878157  1  -0.049662  0  -0.154337  -0.188075  0  3.831689  0
C  C128  1  0.89834454  0.21360998  0.88849137  1  -0.094055  0  -0.04977  -0.223986  0  3.979779  0
C  C129  1  0.80562259  0.14662600  0.70593132  1  0.139746  0  0.000601  0.168439  0  3.905639  0
C  C130  1  0.70171405  0.08965944  0.56769410  1  1.637098  0  0.275459  0.722944  0  4.155753  0
C  C131  1  0.73052223  0.17541496  0.78480462  1  -0.055728  0  -0.152991  -0.188359  0  3.855846  0
C  C132  1  0.84604120  0.17720051  0.79678678  1  0.142177  0  0.000716  0.167787  0  3.903265  0
C  C133  1  0.83625059  0.06145081  0.78112745  1  -0.04687  0  -0.153702  -0.186953  0  3.850829  0
C  C134  1  0.81801842  0.04626547  0.72693173  1  -0.036831  0  -0.154678  -0.188636  0  3.854577  0
C  C135  1  0.87166324  0.19640450  0.84687889  1  -0.178817  0  -0.009535  -0.012234  0  4.015272  0
C  C136  1  0.77985813  0.12930628  0.65577536  1  -0.606716  0  -0.017105  -0.028389  0  4.034556  0
C  C137  1  0.75286106  0.11327180  0.61418603  1  0.348446  0  -0.051145  -0.22139  0  3.986797  0
C  C138  1  0.34413589  0.06639356  0.73373984  1  -0.044452  0  -0.154172  -0.189268  0  3.843732  0
C  C139  1  0.23193008  0.16896020  0.71626397  1  -0.013963  0  -0.152122  -0.186872  0  3.849485  0
C  C140  1  0.22674715  0.18716873  0.77015729  1  -0.065781  0  -0.152277  -0.18523  0  3.840455  0
C  C141  1  0.23659235  0.67289222  0.25931074  1  -0.110787  0  0.006571  -0.115491  0  3.652608  0
C  C142  1  0.32413227  0.23749107  0.88684820  1  -0.367026  0  -0.049812  -0.221935  0  3.979644  0
C  C143  1  0.34417405  0.16432711  0.70420379  1  0.139473  0  0.000911  0.169372  0  3.902173  0
C  C144  1  0.34685074  0.09239326  0.78723544  1  -0.046572  0  -0.15382  -0.183151  0  3.84823  0
C  C145  1  0.33960161  0.20367319  0.79474650  1  0.133376  0  0.001027  0.167147  0  3.902645  0
C  C146  1  0.44732020  0.30637303  0.77129147  1  -0.037295  0  -0.153884  -0.186564  0  3.855375  0
C  C147  1  0.45280178  0.28091706  0.71819539  1  -0.042057  0  -0.152958  -0.186143  0  3.845265  0
C  C148  1  0.33414098  0.22366481  0.84490762  1  0.094391  0  -0.015144  -0.024087  0  4.023695  0
C  C149  1  0.34815545  0.14069930  0.65432505  1  -0.552612  0  -0.017458  -0.028763  0  4.026289  0
C  C150  1  0.35533551  0.11942872  0.61300717  1  0.263195  0  -0.049048  -0.217581  0  3.977817  0
C  C151  1  0.95772117  0.23327654  0.06797411  1  1.662369  0  0.276531  0.729728  0  4.143545  0
C  C152  1  0.28380639  0.77027260  0.22121146  1  -0.041576  0  -0.059402  -0.08015  0  3.61534  0
C  C153  1  0.26740079  0.55993850  0.06136926  1  1.654123  0  0.284212  0.709474  0  4.162605  0
C  C154  1  0.29151020  0.24509115  0.06700379  1  1.64404  0  0.274335  0.723412  0  4.152623  0
C  C155  1  0.95158913  0.23692265  0.93447465  1  1.664373  0  0.281204  0.718315  0  4.160239  0
C  C156  1  0.26892438  0.53908928  0.93396127  1  1.635536  0  0.284505  0.725653  0  4.137482  0
C  C157  1  0.29075678  0.25179722  0.93376325  1  1.6622  0  0.279142  0.717588  0  4.157242  0
C  C158  1  0.29933138  0.63113573  0.10347329  1  0.211854  0  -0.027847  -0.181954  0  3.926032  0
S  S159  1  0.09837433  0.61392648  0.28708477  1  3.086388  0  0.544083  1.136457  0  6.034764  0
S  S160  1  0.10733558  0.65495152  0.79339613  1  2.996303  0  0.537475  1.14511  0  5.901706  0
S  S161  1  0.22510551  0.46175107  0.21733672  1  3.096261  0  0.548066  1.128584  0  6.034943  0
N  N162  1  0.01271929  0.16470600  0.31018321  1  -1.126923  0  -0.627028  -0.634385  0  3.202001  0
O  O163  1  0.68329940  0.15664993  0.44896595  1  -1.20899  0  -0.197834  -0.534637  0  2.288432  0
O  O164  1  0.31474199  0.80714560  0.54632247  1  -1.23871  0  -0.223216  -0.582146  0  2.240292  0
O  O165  1  0.48564279  0.80405565  0.54441234  1  -1.245683  0  -0.225629  -0.586278  0  2.23573  0
O  O166  1  0.67876770  0.99226380  0.54901402  1  -1.255662  0  -0.244229  -0.60955  0  2.23766  0
O  O167  1  0.49830882  0.00220240  0.49990162  1  -1.607667  0  -0.391941  -1.275394  0  2.296255  0
O  O168  1  0.19762831  0.17101308  0.04734674  1  -1.22895  0  -0.21037  -0.567835  0  2.2975  0
O  O169  1  0.98544808  0.16302311  0.05038194  1  -1.232569  0  -0.214343  -0.577831  0  2.299345  0
O  O170  1  0.98011370  0.33107905  0.04986620  1  -1.260395  0  -0.245638  -0.613315  0  2.226932  0
O  O171  1  0.16711971  0.52797628  0.04332929  1  -1.225168  0  -0.21475  -0.559402  0  2.237885  0
O  O172  1  0.34067927  0.52961763  0.04768449  1  -1.229627  0  -0.224641  -0.58303  0  2.248135  0
O  O173  1  0.36013950  0.34968139  0.05218253  1  -1.266556  0  -0.250783  -0.618199  0  2.218137  0
O  O174  1  0.48031555  0.15601763  0.44526472  1  -1.217995  0  -0.202034  -0.539625  0  2.286932  0
O  O175  1  0.18947615  0.17682879  0.94697473  1  -1.215215  0  -0.20034  -0.533854  0  2.290116  0
O  O176  1  0.98265961  0.16756765  0.94962108  1  -1.21832  0  -0.200802  -0.541336  0  2.296451  0
O  O177  1  0.96767400  0.32969411  0.95577394  1  -1.253763  0  -0.243402  -0.608137  0  2.222223  0
O  O178  1  0.16833141  0.51109758  0.95081938  1  -1.243383  0  -0.22088  -0.574193  0  2.242457  0
O  O179  1  0.34616097  0.52225434  0.95426315  1  -1.240047  0  -0.230973  -0.595401  0  2.237194  0
O  O180  1  0.36457672  0.34157577  0.95770328  1  -1.261623  0  -0.246177  -0.614799  0  2.229289  0
O  O181  1  0.16332420  0.32797914  0.00102495  1  -1.611583  0  -0.392568  -1.276185  0  2.303574  0
O  O182  1  0.30122573  0.99669539  0.45603568  1  -1.269029  0  -0.247174  -0.616551  0  2.230709  0
O  O183  1  0.31370622  0.81409358  0.45163961  1  -1.232734  0  -0.220901  -0.574769  0  2.237753  0
O  O184  1  0.48684714  0.81534010  0.44949739  1  -1.239533  0  -0.223367  -0.580728  0  2.241596  0
O  O185  1  0.68952802  0.98991291  0.45542417  1  -1.256434  0  -0.246615  -0.613634  0  2.229197  0
O  O186  1  0.67939146  0.16329455  0.55002725  1  -1.222367  0  -0.21169  -0.567199  0  2.295428  0
O  O187  1  0.47452488  0.16457936  0.54730840  1  -1.224933  0  -0.210439  -0.566044  0  2.292653  0
O  O188  1  0.30497244  0.99118755  0.55008025  1  -1.258659  0  -0.24287  -0.606206  0  2.229102  0
O  O189  1  0.07994394  0.51601938  0.31430582  1  -1.266947  0  -0.279856  -0.478677  0  2.146158  0
O  O190  1  0.08978174  0.70895279  0.30664640  1  -1.276053  0  -0.297949  -0.513368  0  2.111673  0
O  O191  1  0.01073570  0.56373002  0.24201569  1  -1.179384  0  -0.347321  -0.516229  0  2.154446  0
O  O192  1  0.04254076  0.57106490  0.75715723  1  -1.293724  0  -0.2991  -0.511611  0  2.144588  0
O  O193  1  0.08367165  0.62730923  0.84282097  1  -1.277814  0  -0.302057  -0.52111  0  2.12632  0
O  O194  1  0.08986447  0.76558760  0.78276665  1  -1.185982  0  -0.368659  -0.547759  0  2.106336  0
O  O195  1  0.21972971  0.39972349  0.25948791  1  -1.282335  0  -0.273618  -0.474638  0  2.186184  0
O  O196  1  0.12436871  0.42876884  0.18782750  1  -1.284726  0  -0.286151  -0.505495  0  2.188275  0
O  O197  1  0.32904816  0.46608862  0.18575482  1  -1.212591  0  -0.342757  -0.512893  0  2.195308  0
O  O198  1  0.65992143  0.31987084  0.49444140  1  -1.359607  0  -0.576234  -0.994451  0  1.790892  0
O  O199  1  0.01293490  0.01014053  0.99578952  1  -1.389637  0  -0.579485  -0.998251  0  1.792746  0
