# generated using pymatgen
data_ErH14C18(NO3)2
_symmetry_space_group_name_H-M   'P 1'
_cell_length_a   7.33338645
_cell_length_b   9.99551507
_cell_length_c   12.89970968
_cell_angle_alpha   112.66090878
_cell_angle_beta   91.61014150
_cell_angle_gamma   97.43335935
_symmetry_Int_Tables_number   1
_chemical_formula_structural   ErH14C18(NO3)2
_chemical_formula_sum   'Er2 H28 C36 N4 O12'
_cell_volume   862.08747084
_cell_formula_units_Z   2
loop_
 _symmetry_equiv_pos_site_id
 _symmetry_equiv_pos_as_xyz
  1  'x, y, z'
loop_
 _atom_site_type_symbol
 _atom_site_label
 _atom_site_symmetry_multiplicity
 _atom_site_fract_x
 _atom_site_fract_y
 _atom_site_fract_z
 _atom_site_occupancy
 _atom_site_hle17_bader_spin_density
 _atom_site_hle17_ddec_charge
 _atom_site_hle17_ddec_spin_density
 _atom_site_hle17_ddec_sum_bond_order
 _atom_site_hle17_magmom
 _atom_site_hse06_10hf_bader_spin_density
 _atom_site_hse06_10hf_ddec_charge
 _atom_site_hse06_10hf_ddec_spin_density
 _atom_site_hse06_10hf_ddec_sum_bond_order
 _atom_site_hse06_10hf_magmom
 _atom_site_hse06_bader_spin_density
 _atom_site_hse06_ddec_charge
 _atom_site_hse06_ddec_spin_density
 _atom_site_hse06_ddec_sum_bond_order
 _atom_site_hse06_magmom
 _atom_site_pbe_bader_spin_density
 _atom_site_pbe_cm5_charge
 _atom_site_pbe_ddec_charge
 _atom_site_pbe_ddec_spin_density
 _atom_site_pbe_ddec_sum_bond_order
 _atom_site_pbe_magmom
Er  Er0  1  0.71009912  0.57297598  0.68852150  1  0  2.114428  0  1.763094  0  0  1.941395  0  2.281395  0  0  1.997295  0  2.23495  0  0  1.537708  1.899825  0  2.317282  0
Er  Er1  1  0.28989850  0.42702350  0.31147848  1  0  2.114396  0  1.763156  0  0  1.941393  0  2.281481  0  0  1.997222  0  2.235083  0  0  1.537708  1.89976  0  2.317401  0
H  H2  1  0.25174432  0.31836052  0.68880149  1  0  0.104913  0  0.924029  0  0  0.120256  0  0.981889  0  0  0.122467  0  0.981144  0  0  0.102203  0.118703  0  0.982579  0
H  H3  1  0.74825516  0.68163456  0.31119645  1  0  0.104912  0  0.923997  0  0  0.120227  0  0.981869  0  0  0.122439  0  0.981126  0  0  0.102203  0.118681  0  0.982555  0
H  H4  1  0.30560865  0.19357866  0.55709196  1  0  0.107013  0  0.919354  0  0  0.12556  0  0.973758  0  0  0.127341  0  0.973934  0  0  0.10636  0.124316  0  0.973844  0
H  H5  1  0.69439105  0.80641751  0.44290397  1  0  0.107036  0  0.919406  0  0  0.125584  0  0.97379  0  0  0.127363  0  0.973969  0  0  0.10638  0.124338  0  0.97388  0
H  H6  1  0.98674209  0.17540533  0.47159851  1  0  0.10691  0  0.920997  0  0  0.121595  0  0.979735  0  0  0.124589  0  0.97786  0  0  0.104129  0.119551  0  0.981134  0
H  H7  1  0.01326013  0.82458975  0.52839946  1  0  0.106894  0  0.921028  0  0  0.121612  0  0.97976  0  0  0.12459  0  0.977883  0  0  0.104131  0.119564  0  0.981165  0
H  H8  1  0.97072856  0.13246961  0.59218713  1  0  0.096967  0  0.931473  0  0  0.112546  0  0.991308  0  0  0.114502  0  0.991323  0  0  0.098697  0.111365  0  0.991211  0
H  H9  1  0.02926956  0.86752547  0.40781156  1  0  0.09695  0  0.931505  0  0  0.112559  0  0.991342  0  0  0.114502  0  0.991347  0  0  0.098721  0.111384  0  0.991235  0
H  H10  1  0.49982272  0.66758559  0.05380512  1  0  0.103534  0  0.929971  0  0  0.117724  0  0.993206  0  0  0.12002  0  0.99234  0  0  0.102532  0.116152  0  0.993775  0
H  H11  1  0.50016649  0.33241280  0.94619440  1  0  0.103482  0  0.929896  0  0  0.117693  0  0.993124  0  0  0.11999  0  0.992256  0  0  0.102529  0.116122  0  0.993693  0
H  H12  1  0.32549365  0.54161646  0.95758021  1  0  0.106759  0  0.904332  0  0  0.127304  0  0.954656  0  0  0.129279  0  0.954207  0  0  0.108891  0.125784  0  0.95538  0
H  H13  1  0.67450008  0.45838411  0.04241849  1  0  0.10668  0  0.904378  0  0  0.127262  0  0.954667  0  0  0.129238  0  0.954218  0  0  0.108878  0.125746  0  0.955388  0
H  H14  1  0.38766054  0.73526788  0.60845047  1  0  0.100269  0  0.942192  0  0  0.1052  0  1.006533  0  0  0.108898  0  1.002761  0  0  0.128263  0.102425  0  1.009333  0
H  H15  1  0.61234202  0.26473596  0.39154935  1  0  0.100269  0  0.942172  0  0  0.105199  0  1.006504  0  0  0.108894  0  1.002735  0  0  0.128263  0.102418  0  1.009308  0
H  H16  1  0.32170754  0.97623956  0.61433570  1  0  0.102188  0  0.950023  0  0  0.113977  0  1.00755  0  0  0.117016  0  1.006885  0  0  0.107097  0.111624  0  1.008426  0
H  H17  1  0.67829774  0.02376428  0.38566339  1  0  0.102196  0  0.950033  0  0  0.114007  0  1.007537  0  0  0.117049  0  1.00687  0  0  0.107101  0.111658  0  1.008407  0
H  H18  1  0.55093097  0.20483168  0.72387010  1  0  0.119423  0  0.952448  0  0  0.127726  0  1.016698  0  0  0.13115  0  1.014166  0  0  0.114123  0.125073  0  1.018782  0
H  H19  1  0.44907410  0.79517107  0.27613176  1  0  0.119433  0  0.95243  0  0  0.127734  0  1.016689  0  0  0.13116  0  1.014143  0  0  0.114129  0.125078  0  1.018777  0
H  H20  1  0.84433635  0.31508474  0.84349607  1  0  0.121039  0  0.960163  0  0  0.130304  0  1.020338  0  0  0.133753  0  1.018828  0  0  0.110337  0.127783  0  1.021447  0
H  H21  1  0.15566736  0.68491802  0.15650809  1  0  0.121019  0  0.960199  0  0  0.130308  0  1.020338  0  0  0.133759  0  1.018829  0  0  0.110335  0.127785  0  1.021454  0
H  H22  1  0.13118701  0.28377870  0.93499774  1  0  0.096687  0  0.951802  0  0  0.112058  0  1.005917  0  0  0.114  0  1.006119  0  0  0.105291  0.110597  0  1.006017  0
H  H23  1  0.86881353  0.71622187  0.06500572  1  0  0.096729  0  0.951776  0  0  0.11209  0  1.005903  0  0  0.114035  0  1.006103  0  0  0.105286  0.110631  0  1.006002  0
H  H24  1  0.32631755  0.11913428  0.97467712  1  0  0.108001  0  0.970984  0  0  0.117589  0  1.034495  0  0  0.121104  0  1.03159  0  0  0.107068  0.115044  0  1.036584  0
H  H25  1  0.67368594  0.88086738  0.02532361  1  0  0.107994  0  0.970983  0  0  0.117596  0  1.034466  0  0  0.121104  0  1.031581  0  0  0.107071  0.11505  0  1.036554  0
H  H26  1  0.37893136  0.85951148  0.93662900  1  0  0.116349  0  0.959328  0  0  0.127389  0  1.01568  0  0  0.131097  0  1.014288  0  0  0.108346  0.124719  0  1.016787  0
H  H27  1  0.62106646  0.14048910  0.06337287  1  0  0.116326  0  0.959347  0  0  0.127366  0  1.015696  0  0  0.131068  0  1.014314  0  0  0.108333  0.124693  0  1.016807  0
H  H28  1  0.13782085  0.65236906  0.82015955  1  0  0.094394  0  0.943827  0  0  0.101922  0  1.006741  0  0  0.105286  0  1.00297  0  0  0.125487  0.099368  0  1.009575  0
H  H29  1  0.86217855  0.34763260  0.17984111  1  0  0.094372  0  0.943845  0  0  0.101902  0  1.006761  0  0  0.105265  0  1.002992  0  0  0.125482  0.099346  0  1.009596  0
C  C30  1  0.28660415  0.40466807  0.56125182  1  0  0.799241  0  3.764797  0  0  0.758294  0  4.053343  0  0  0.794147  0  4.040834  0  0  0.248094  0.733956  0  4.060768  0
C  C31  1  0.71339167  0.59532921  0.43874671  1  0  0.799099  0  3.765089  0  0  0.758248  0  4.053481  0  0  0.794081  0  4.04099  0  0  0.247971  0.7339  0  4.060922  0
C  C32  1  0.22050495  0.27997814  0.59742244  1  0  -0.245555  0  3.67558  0  0  -0.289588  0  3.927501  0  0  -0.294327  0  3.93441  0  0  -0.159713  -0.286478  0  3.92289  0
C  C33  1  0.77949475  0.72001804  0.40257582  1  0  -0.245557  0  3.67561  0  0  -0.289539  0  3.927431  0  0  -0.294289  0  3.934323  0  0  -0.159685  -0.286433  0  3.922824  0
C  C34  1  0.01612060  0.22112798  0.56370259  1  0  -0.229647  0  3.691181  0  0  -0.269944  0  3.94461  0  0  -0.274399  0  3.951108  0  0  -0.162469  -0.267053  0  3.940078  0
C  C35  1  0.98387774  0.77886820  0.43629565  1  0  -0.229536  0  3.69116  0  0  -0.26997  0  3.944678  0  0  -0.274356  0  3.951095  0  0  -0.162467  -0.267071  0  3.94014  0
C  C36  1  0.89691223  0.34001474  0.61286184  1  0  0.696433  0  3.84721  0  0  0.656475  0  4.13807  0  0  0.689814  0  4.130942  0  0  0.19262  0.634069  0  4.141814  0
C  C37  1  0.10308381  0.65998363  0.38713469  1  0  0.696337  0  3.847374  0  0  0.656438  0  4.13818  0  0  0.689755  0  4.131043  0  0  0.192535  0.634019  0  4.141936  0
C  C38  1  0.57401268  0.57047968  0.88452526  1  0  0.673396  0  3.900019  0  0  0.632132  0  4.198563  0  0  0.664875  0  4.191078  0  0  0.188327  0.610134  0  4.202486  0
C  C39  1  0.42598765  0.42951980  0.11547632  1  0  0.673295  0  3.900123  0  0  0.632036  0  4.198679  0  0  0.664795  0  4.191164  0  0  0.188277  0.61005  0  4.202567  0
C  C40  1  0.47468658  0.56030587  0.98271872  1  0  -0.228544  0  3.694507  0  0  -0.269467  0  3.948459  0  0  -0.27371  0  3.95524  0  0  -0.161857  -0.266677  0  3.943695  0
C  C41  1  0.52530737  0.43969581  0.01728186  1  0  -0.228412  0  3.694376  0  0  -0.269381  0  3.948338  0  0  -0.273631  0  3.95512  0  0  -0.161882  -0.266598  0  3.94357  0
C  C42  1  0.48414495  0.83506207  0.65468120  1  0  0.164957  0  3.676031  0  0  0.134026  0  3.935354  0  0  0.142851  0  3.949388  0  0  0.066331  0.128297  0  3.925853  0
C  C43  1  0.51585897  0.16494177  0.34531941  1  0  0.164895  0  3.676037  0  0  0.133989  0  3.935342  0  0  0.14282  0  3.949369  0  0  0.066306  0.128268  0  3.925834  0
C  C44  1  0.44741415  0.97185262  0.65914870  1  0  -0.114138  0  3.734088  0  0  -0.128565  0  3.99047  0  0  -0.135526  0  4.011466  0  0  -0.081962  -0.124082  0  3.976583  0
C  C45  1  0.55258956  0.02815013  0.34085080  1  0  -0.114127  0  3.734224  0  0  -0.128586  0  3.990611  0  0  -0.135555  0  4.011603  0  0  -0.08195  -0.12411  0  3.976717  0
C  C46  1  0.57235572  0.09642649  0.71849996  1  0  -0.052237  0  3.674716  0  0  -0.077851  0  3.923906  0  0  -0.075692  0  3.942011  0  0  -0.063136  -0.079024  0  3.911758  0
C  C47  1  0.42764935  0.90357626  0.28150034  1  0  -0.052241  0  3.674831  0  0  -0.077867  0  3.924056  0  0  -0.0757  0  3.942163  0  0  -0.06316  -0.079039  0  3.911911  0
C  C48  1  0.73541711  0.08300889  0.77275926  1  0  0.02258  0  3.784813  0  0  0.040299  0  4.014679  0  0  0.03711  0  4.040156  0  0  -0.003163  0.042081  0  3.997623  0
C  C49  1  0.26458638  0.91699277  0.22724069  1  0  0.022549  0  3.784812  0  0  0.040278  0  4.014668  0  0  0.037084  0  4.040149  0  0  -0.003112  0.042058  0  3.997613  0
C  C50  1  0.87132096  0.20715226  0.83616814  1  0  -0.103509  0  3.737377  0  0  -0.125532  0  3.991535  0  0  -0.12904  0  4.014803  0  0  -0.084061  -0.122876  0  3.975595  0
C  C51  1  0.12867980  0.79284940  0.16383332  1  0  -0.103487  0  3.73742  0  0  -0.125519  0  3.991544  0  0  -0.129029  0  4.01482  0  0  -0.084107  -0.122866  0  3.975613  0
C  C52  1  0.02853388  0.18928519  0.88558332  1  0  -0.10835  0  3.763551  0  0  -0.129867  0  4.014393  0  0  -0.133412  0  4.038888  0  0  -0.087556  -0.127503  0  3.99782  0
C  C53  1  0.97146709  0.81071757  0.11442002  1  0  -0.10844  0  3.763587  0  0  -0.129952  0  4.014443  0  0  -0.133496  0  4.038937  0  0  -0.087545  -0.127589  0  3.997872  0
C  C54  1  0.06375147  0.04676604  0.87388700  1  0  0.020532  0  3.801138  0  0  0.037559  0  4.031613  0  0  0.034455  0  4.057343  0  0  -0.003952  0.039497  0  4.014282  0
C  C55  1  0.93625066  0.95323562  0.12611526  1  0  0.0206  0  3.800942  0  0  0.037612  0  4.031433  0  0  0.034507  0  4.057167  0  0  -0.003926  0.03955  0  4.014104  0
C  C56  1  0.22635970  0.02435660  0.92227174  1  0  -0.045734  0  3.675634  0  0  -0.072428  0  3.927465  0  0  -0.070208  0  3.945673  0  0  -0.064604  -0.073777  0  3.915195  0
C  C57  1  0.77364243  0.97564505  0.07772896  1  0  -0.045766  0  3.675577  0  0  -0.072458  0  3.927425  0  0  -0.070244  0  3.945633  0  0  -0.064591  -0.073811  0  3.915156  0
C  C58  1  0.25389789  0.88336325  0.90416682  1  0  -0.111363  0  3.714569  0  0  -0.126934  0  3.972851  0  0  -0.1341  0  3.993638  0  0  -0.083022  -0.122322  0  3.959012  0
C  C59  1  0.74610151  0.11663841  0.09583384  1  0  -0.111328  0  3.714553  0  0  -0.126893  0  3.972835  0  0  -0.134058  0  3.993629  0  0  -0.083023  -0.12228  0  3.959001  0
C  C60  1  0.11817497  0.76536263  0.83898833  1  0  0.164376  0  3.680102  0  0  0.132789  0  3.940986  0  0  0.141938  0  3.955148  0  0  0.065466  0.12679  0  3.931096  0
C  C61  1  0.88182443  0.23463904  0.16101311  1  0  0.164385  0  3.680072  0  0  0.132794  0  3.940961  0  0  0.141939  0  3.955122  0  0  0.065465  0.126791  0  3.931069  0
C  C62  1  0.93218915  0.92119347  0.81087022  1  0  0.141607  0  3.753083  0  0  0.137501  0  3.990457  0  0  0.142004  0  4.011422  0  0  0.120827  0.13471  0  3.976071  0
C  C63  1  0.06781571  0.07880818  0.18913053  1  0  0.141682  0  3.752899  0  0  0.137561  0  3.990304  0  0  0.142061  0  4.011267  0  0  0.12081  0.134765  0  3.975917  0
C  C64  1  0.76377040  0.93995331  0.76109279  1  0  0.138361  0  3.751653  0  0  0.133843  0  3.987387  0  0  0.138286  0  4.008429  0  0  0.120515  0.130785  0  3.973187  0
C  C65  1  0.23623330  0.06004944  0.23890827  1  0  0.138368  0  3.751671  0  0  0.133863  0  3.987379  0  0  0.138309  0  4.008417  0  0  0.120475  0.130811  0  3.973173  0
N  N66  1  0.63794021  0.81883016  0.70315185  1  0  -0.425702  0  3.25365  0  0  -0.371273  0  3.516842  0  0  -0.387102  0  3.53526  0  0  -0.375726  -0.360441  0  3.504401  0
N  N67  1  0.36206371  0.18117369  0.29684876  1  0  -0.425658  0  3.253686  0  0  -0.371243  0  3.516859  0  0  -0.387064  0  3.535274  0  0  -0.375663  -0.360406  0  3.504414  0
N  N68  1  0.96065633  0.78261554  0.79451269  1  0  -0.443959  0  3.229733  0  0  -0.391283  0  3.498846  0  0  -0.407334  0  3.516179  0  0  -0.378653  -0.380163  0  3.486507  0
N  N69  1  0.03934380  0.21738283  0.20548545  1  0  -0.444006  0  3.229659  0  0  -0.391328  0  3.498781  0  0  -0.407359  0  3.516098  0  0  -0.378666  -0.380189  0  3.486424  0
O  O70  1  0.41987052  0.50173980  0.62008750  1  0  -0.763829  0  2.067666  0  0  -0.711047  0  2.339304  0  0  -0.737944  0  2.326281  0  0  -0.426627  -0.691738  0  2.34743  0
O  O71  1  0.58012573  0.49825968  0.37991168  1  0  -0.763736  0  2.067822  0  0  -0.710992  0  2.339404  0  0  -0.737875  0  2.326396  0  0  -0.426563  -0.69167  0  2.347533  0
O  O72  1  0.20900789  0.40419824  0.47193236  1  0  -0.73328  0  2.024623  0  0  -0.681811  0  2.282796  0  0  -0.708709  0  2.272376  0  0  -0.404137  -0.662444  0  2.289198  0
O  O73  1  0.79098657  0.59579904  0.52806537  1  0  -0.733243  0  2.024711  0  0  -0.681789  0  2.282801  0  0  -0.708697  0  2.272392  0  0  -0.404085  -0.66243  0  2.289205  0
O  O74  1  0.97243793  0.46535356  0.68627988  1  0  -0.710674  0  1.987367  0  0  -0.656362  0  2.228357  0  0  -0.682902  0  2.220162  0  0  -0.396037  -0.637659  0  2.232962  0
O  O75  1  0.02756242  0.53464590  0.31371704  1  0  -0.710674  0  1.98748  0  0  -0.656355  0  2.228428  0  0  -0.682892  0  2.220248  0  0  -0.396015  -0.637643  0  2.233039  0
O  O76  1  0.72592805  0.31681486  0.58089040  1  0  -0.696672  0  1.947975  0  0  -0.651073  0  2.190212  0  0  -0.676446  0  2.182695  0  0  -0.375362  -0.633311  0  2.194841  0
O  O77  1  0.27407029  0.68318132  0.41911017  1  0  -0.696659  0  1.948047  0  0  -0.651087  0  2.190275  0  0  -0.676452  0  2.182755  0  0  -0.375343  -0.633316  0  2.194906  0
O  O78  1  0.64689084  0.46200647  0.82009222  1  0  -0.704783  0  1.99804  0  0  -0.653331  0  2.242325  0  0  -0.67833  0  2.233973  0  0  -0.379821  -0.635713  0  2.247517  0
O  O79  1  0.35310770  0.53799080  0.17990790  1  0  -0.704715  0  1.998086  0  0  -0.653266  0  2.242392  0  0  -0.678261  0  2.234028  0  0  -0.379793  -0.635643  0  2.247565  0
O  O80  1  0.58119221  0.68724902  0.86547664  1  0  -0.702368  0  2.003404  0  0  -0.659131  0  2.250716  0  0  -0.684097  0  2.24391  0  0  -0.376855  -0.641396  0  2.254811  0
O  O81  1  0.41880928  0.31274934  0.13452308  1  0  -0.702324  0  2.00348  0  0  -0.659103  0  2.250792  0  0  -0.684067  0  2.243977  0  0  -0.37681  -0.641362  0  2.254872  0
