# generated using pymatgen
data_CuH3C3S3N3Cl
_symmetry_space_group_name_H-M   'P 1'
_cell_length_a   11.66458470
_cell_length_b   11.66466594
_cell_length_c   11.66462725
_cell_angle_alpha   90.00008625
_cell_angle_beta   90.00010993
_cell_angle_gamma   90.00011310
_symmetry_Int_Tables_number   1
_chemical_formula_structural   CuH3C3S3N3Cl
_chemical_formula_sum   'Cu8 H24 C24 S24 N24 Cl8'
_cell_volume   1587.12982027
_cell_formula_units_Z   8
loop_
 _symmetry_equiv_pos_site_id
 _symmetry_equiv_pos_as_xyz
  1  'x, y, z'
loop_
 _atom_site_type_symbol
 _atom_site_label
 _atom_site_symmetry_multiplicity
 _atom_site_fract_x
 _atom_site_fract_y
 _atom_site_fract_z
 _atom_site_occupancy
 _atom_site_hle17_bader_spin_density
 _atom_site_hle17_ddec_charge
 _atom_site_hle17_ddec_spin_density
 _atom_site_hle17_ddec_sum_bond_order
 _atom_site_hle17_magmom
 _atom_site_hse06_10hf_bader_spin_density
 _atom_site_hse06_10hf_ddec_charge
 _atom_site_hse06_10hf_ddec_spin_density
 _atom_site_hse06_10hf_ddec_sum_bond_order
 _atom_site_hse06_10hf_magmom
 _atom_site_hse06_bader_spin_density
 _atom_site_hse06_ddec_charge
 _atom_site_hse06_ddec_spin_density
 _atom_site_hse06_ddec_sum_bond_order
 _atom_site_hse06_magmom
 _atom_site_pbe_bader_spin_density
 _atom_site_pbe_cm5_charge
 _atom_site_pbe_ddec_charge
 _atom_site_pbe_ddec_spin_density
 _atom_site_pbe_ddec_sum_bond_order
 _atom_site_pbe_magmom
Cu  Cu0  1  0.10576222  0.10575975  0.10576267  1  0  0.302773  0  2.347959  0  0  0.248789  0  2.837255  0  0  0.240378  0  2.802442  0  0  0.335115  0.257095  0  2.857851  0
Cu  Cu1  1  0.39423925  0.89423991  0.60576237  1  0  0.30274  0  2.347931  0  0  0.248761  0  2.83722  0  0  0.240344  0  2.80242  0  0  0.33511  0.257062  0  2.857824  0
Cu  Cu2  1  0.60576049  0.39423888  0.89423863  1  0  0.302713  0  2.34797  0  0  0.248745  0  2.837256  0  0  0.240331  0  2.802482  0  0  0.335087  0.257018  0  2.857849  0
Cu  Cu3  1  0.89423856  0.60576135  0.39423851  1  0  0.302745  0  2.347938  0  0  0.248767  0  2.837207  0  0  0.240379  0  2.80242  0  0  0.335076  0.257068  0  2.857811  0
Cu  Cu4  1  0.89423932  0.89423805  0.89423756  1  0  0.302741  0  2.347917  0  0  0.248764  0  2.837183  0  0  0.240373  0  2.802401  0  0  0.335107  0.257054  0  2.857783  0
Cu  Cu5  1  0.60576058  0.10576046  0.39423786  1  0  0.302741  0  2.347849  0  0  0.248741  0  2.837143  0  0  0.240332  0  2.802346  0  0  0.33511  0.257049  0  2.85775  0
Cu  Cu6  1  0.39424020  0.60576064  0.10576161  1  0  0.302733  0  2.347977  0  0  0.248756  0  2.83728  0  0  0.240356  0  2.802496  0  0  0.335101  0.257032  0  2.857886  0
Cu  Cu7  1  0.10576042  0.39424074  0.60576172  1  0  0.302737  0  2.347944  0  0  0.248737  0  2.837236  0  0  0.240298  0  2.802421  0  0  0.335105  0.257052  0  2.857837  0
H  H8  1  0.16225135  0.08375334  0.33022852  1  0  0.312733  0  0.918963  0  0  0.287244  0  0.995191  0  0  0.297814  0  0.986253  0  0  0.281154  0.279793  0  1.001513  0
H  H9  1  0.33022717  0.16225107  0.08375194  1  0  0.312725  0  0.918937  0  0  0.287314  0  0.995103  0  0  0.297858  0  0.986173  0  0  0.281158  0.279861  0  1.001427  0
H  H10  1  0.08375571  0.33022312  0.16225412  1  0  0.312647  0  0.91898  0  0  0.287212  0  0.995158  0  0  0.297758  0  0.986238  0  0  0.281101  0.279759  0  1.001482  0
H  H11  1  0.41624758  0.66977834  0.66225096  1  0  0.31273  0  0.918995  0  0  0.287295  0  0.995132  0  0  0.297844  0  0.98621  0  0  0.281142  0.279841  0  1.001456  0
H  H12  1  0.83022880  0.33774886  0.91625150  1  0  0.312651  0  0.919006  0  0  0.287215  0  0.995223  0  0  0.297765  0  0.986298  0  0  0.28113  0.279764  0  1.001545  0
H  H13  1  0.91624808  0.83022896  0.33774826  1  0  0.312663  0  0.919025  0  0  0.287222  0  0.995197  0  0  0.29777  0  0.986286  0  0  0.281149  0.27977  0  1.001518  0
H  H14  1  0.16976997  0.83774856  0.58374598  1  0  0.312618  0  0.9191  0  0  0.28717  0  0.995313  0  0  0.297714  0  0.986385  0  0  0.281112  0.279718  0  1.001636  0
H  H15  1  0.66977543  0.66225312  0.41624762  1  0  0.31266  0  0.91896  0  0  0.287199  0  0.99517  0  0  0.297755  0  0.986237  0  0  0.281098  0.279745  0  1.001494  0
H  H16  1  0.58374572  0.16977203  0.83775142  1  0  0.31268  0  0.919018  0  0  0.287245  0  0.995203  0  0  0.297789  0  0.986274  0  0  0.281147  0.279795  0  1.001524  0
H  H17  1  0.33774797  0.91624666  0.83022729  1  0  0.312701  0  0.918987  0  0  0.287262  0  0.995168  0  0  0.297808  0  0.986248  0  0  0.281132  0.279808  0  1.001494  0
H  H18  1  0.66225181  0.41625568  0.66977717  1  0  0.312622  0  0.918907  0  0  0.287119  0  0.995203  0  0  0.297691  0  0.986266  0  0  0.28107  0.279666  0  1.001526  0
H  H19  1  0.83774767  0.58374077  0.16977521  1  0  0.312651  0  0.919004  0  0  0.287162  0  0.995263  0  0  0.297727  0  0.986333  0  0  0.28114  0.279711  0  1.001585  0
H  H20  1  0.83774933  0.91625475  0.66977515  1  0  0.312738  0  0.918932  0  0  0.287244  0  0.995199  0  0  0.297811  0  0.986267  0  0  0.281134  0.279792  0  1.001522  0
H  H21  1  0.66977352  0.83775016  0.91625087  1  0  0.312617  0  0.919052  0  0  0.287174  0  0.995246  0  0  0.297717  0  0.986321  0  0  0.281108  0.279724  0  1.001566  0
H  H22  1  0.91625183  0.66977211  0.83775211  1  0  0.312619  0  0.919117  0  0  0.287165  0  0.995328  0  0  0.297713  0  0.986407  0  0  0.281124  0.279713  0  1.00165  0
H  H23  1  0.58374711  0.33022803  0.33775099  1  0  0.312631  0  0.919065  0  0  0.287158  0  0.995319  0  0  0.297713  0  0.986397  0  0  0.281131  0.279707  0  1.001644  0
H  H24  1  0.16977789  0.66224723  0.08374959  1  0  0.312645  0  0.91901  0  0  0.287227  0  0.995159  0  0  0.297772  0  0.986236  0  0  0.28115  0.279775  0  1.001481  0
H  H25  1  0.08375003  0.16977570  0.66225197  1  0  0.312587  0  0.919032  0  0  0.287144  0  0.995235  0  0  0.297693  0  0.986308  0  0  0.281071  0.279692  0  1.001559  0
H  H26  1  0.83022386  0.16225267  0.41624740  1  0  0.312714  0  0.918952  0  0  0.287252  0  0.995146  0  0  0.297808  0  0.986217  0  0  0.281116  0.279799  0  1.001471  0
H  H27  1  0.33022354  0.33774897  0.58374576  1  0  0.312714  0  0.91896  0  0  0.287242  0  0.9952  0  0  0.297801  0  0.986265  0  0  0.28111  0.279792  0  1.001523  0
H  H28  1  0.41624726  0.83022405  0.16224967  1  0  0.312602  0  0.919018  0  0  0.287179  0  0.995179  0  0  0.297723  0  0.986261  0  0  0.281092  0.279726  0  1.001502  0
H  H29  1  0.66225186  0.08374600  0.16977209  1  0  0.312623  0  0.919088  0  0  0.287156  0  0.995294  0  0  0.297716  0  0.986367  0  0  0.281117  0.279705  0  1.001617  0
H  H30  1  0.33775059  0.58375326  0.33022477  1  0  0.312704  0  0.918937  0  0  0.287286  0  0.995092  0  0  0.297828  0  0.986165  0  0  0.281145  0.279835  0  1.001414  0
H  H31  1  0.16225216  0.41624588  0.83022246  1  0  0.312644  0  0.919038  0  0  0.287216  0  0.995197  0  0  0.297762  0  0.986274  0  0  0.2811  0.279763  0  1.00152  0
C  C32  1  0.03001090  0.96581704  0.32082798  1  0  0.45021  0  3.742084  0  0  0.404191  0  4.039474  0  0  0.433362  0  4.045237  0  0  0.235608  0.384967  0  4.034928  0
C  C33  1  0.32082850  0.03001562  0.96581602  1  0  0.450221  0  3.741852  0  0  0.40432  0  4.03925  0  0  0.433437  0  4.045011  0  0  0.235663  0.385093  0  4.034714  0
C  C34  1  0.96581956  0.32083057  0.03001070  1  0  0.450343  0  3.741768  0  0  0.404401  0  4.039198  0  0  0.433524  0  4.044967  0  0  0.235647  0.385171  0  4.034661  0
C  C35  1  0.53418908  0.67916568  0.53001625  1  0  0.450446  0  3.741475  0  0  0.404478  0  4.038881  0  0  0.433615  0  4.044635  0  0  0.235829  0.385252  0  4.034343  0
C  C36  1  0.82082012  0.46998429  0.03418997  1  0  0.450093  0  3.741632  0  0  0.404024  0  4.039196  0  0  0.433181  0  4.044967  0  0  0.235573  0.384798  0  4.03465  0
C  C37  1  0.03418593  0.82081858  0.46998652  1  0  0.450423  0  3.741769  0  0  0.404301  0  4.039386  0  0  0.433431  0  4.045148  0  0  0.235621  0.385073  0  4.034849  0
C  C38  1  0.17918052  0.96998801  0.46581690  1  0  0.450262  0  3.74184  0  0  0.404101  0  4.039456  0  0  0.433258  0  4.045215  0  0  0.23552  0.384879  0  4.034915  0
C  C39  1  0.67916624  0.53002397  0.53419472  1  0  0.450389  0  3.741492  0  0  0.404274  0  4.039045  0  0  0.433438  0  4.044817  0  0  0.235798  0.385047  0  4.034509  0
C  C40  1  0.46581281  0.17918077  0.96998529  1  0  0.450206  0  3.741725  0  0  0.404236  0  4.039254  0  0  0.433352  0  4.045011  0  0  0.235615  0.38501  0  4.034716  0
C  C41  1  0.46998498  0.03418552  0.82082568  1  0  0.450206  0  3.741907  0  0  0.404264  0  4.039311  0  0  0.433385  0  4.045068  0  0  0.235654  0.385036  0  4.03477  0
C  C42  1  0.53002176  0.53419636  0.67916963  1  0  0.450322  0  3.74144  0  0  0.404273  0  4.038932  0  0  0.433435  0  4.044697  0  0  0.235726  0.385044  0  4.03439  0
C  C43  1  0.96998630  0.46580783  0.17918146  1  0  0.450155  0  3.741669  0  0  0.404178  0  4.039057  0  0  0.433329  0  4.044824  0  0  0.235639  0.384951  0  4.034523  0
C  C44  1  0.96998035  0.03419276  0.67917568  1  0  0.450143  0  3.741808  0  0  0.404157  0  4.039225  0  0  0.43331  0  4.044998  0  0  0.235658  0.384929  0  4.034684  0
C  C45  1  0.67918591  0.96998733  0.03418679  1  0  0.45026  0  3.741516  0  0  0.404203  0  4.039028  0  0  0.433348  0  4.044787  0  0  0.235613  0.384975  0  4.034489  0
C  C46  1  0.03418970  0.67917409  0.96998353  1  0  0.450294  0  3.741572  0  0  0.404182  0  4.039222  0  0  0.433308  0  4.044991  0  0  0.235663  0.384956  0  4.034682  0
C  C47  1  0.46581332  0.32081926  0.46998827  1  0  0.450324  0  3.741827  0  0  0.404184  0  4.039429  0  0  0.433337  0  4.0452  0  0  0.235613  0.384957  0  4.03489  0
C  C48  1  0.17917457  0.53001522  0.96581712  1  0  0.450118  0  3.741724  0  0  0.404198  0  4.039127  0  0  0.433322  0  4.044888  0  0  0.235575  0.384972  0  4.034582  0
C  C49  1  0.96581390  0.17916893  0.53001714  1  0  0.450176  0  3.741696  0  0  0.404211  0  4.039125  0  0  0.433344  0  4.044889  0  0  0.235672  0.384984  0  4.034585  0
C  C50  1  0.82082702  0.03001750  0.53418848  1  0  0.450118  0  3.741744  0  0  0.404101  0  4.039162  0  0  0.433263  0  4.044945  0  0  0.235659  0.384874  0  4.034623  0
C  C51  1  0.32081902  0.46998498  0.46581237  1  0  0.450248  0  3.741965  0  0  0.404221  0  4.039472  0  0  0.433355  0  4.04523  0  0  0.23558  0.384995  0  4.034935  0
C  C52  1  0.53418102  0.82082474  0.03000895  1  0  0.45012  0  3.741851  0  0  0.404161  0  4.039269  0  0  0.433281  0  4.045028  0  0  0.235478  0.384934  0  4.034726  0
C  C53  1  0.53001142  0.96581486  0.17917541  1  0  0.450201  0  3.741682  0  0  0.404201  0  4.039129  0  0  0.43335  0  4.044885  0  0  0.235584  0.384973  0  4.034592  0
C  C54  1  0.46998835  0.46582116  0.32082374  1  0  0.45028  0  3.742017  0  0  0.404241  0  4.039525  0  0  0.433379  0  4.045282  0  0  0.235562  0.385016  0  4.034986  0
C  C55  1  0.03001439  0.53418654  0.82083078  1  0  0.450365  0  3.741827  0  0  0.404404  0  4.039219  0  0  0.433531  0  4.044987  0  0  0.235766  0.385178  0  4.034678  0
S  S56  1  0.96298779  0.02319509  0.20887260  1  0  -0.270741  0  2.359042  0  0  -0.267047  0  2.765818  0  0  -0.275174  0  2.753583  0  0  -0.155993  -0.262101  0  2.773612  0
S  S57  1  0.20887339  0.96298451  0.02319841  1  0  -0.270723  0  2.358895  0  0  -0.267024  0  2.765636  0  0  -0.275163  0  2.753427  0  0  -0.155991  -0.262079  0  2.77343  0
S  S58  1  0.02319784  0.20886742  0.96298680  1  0  -0.270784  0  2.358843  0  0  -0.267069  0  2.765568  0  0  -0.275209  0  2.753357  0  0  -0.156007  -0.26212  0  2.773358  0
S  S59  1  0.47680088  0.79113621  0.46298284  1  0  -0.270879  0  2.358481  0  0  -0.267193  0  2.765244  0  0  -0.275327  0  2.753023  0  0  -0.156113  -0.262246  0  2.773039  0
S  S60  1  0.70887368  0.53701038  0.97680469  1  0  -0.2706  0  2.359123  0  0  -0.266856  0  2.765936  0  0  -0.27499  0  2.753723  0  0  -0.155916  -0.261912  0  2.773724  0
S  S61  1  0.97680496  0.70887808  0.53700877  1  0  -0.270675  0  2.359395  0  0  -0.266936  0  2.766285  0  0  -0.275073  0  2.754083  0  0  -0.155901  -0.261996  0  2.774085  0
S  S62  1  0.29112192  0.03701074  0.52319405  1  0  -0.27058  0  2.359448  0  0  -0.266842  0  2.766347  0  0  -0.274956  0  2.754121  0  0  -0.155856  -0.261909  0  2.774153  0
S  S63  1  0.79113067  0.46298482  0.47680503  1  0  -0.27086  0  2.358485  0  0  -0.267137  0  2.765316  0  0  -0.275286  0  2.753105  0  0  -0.156054  -0.262188  0  2.773116  0
S  S64  1  0.52319512  0.29112590  0.03701176  1  0  -0.270574  0  2.359161  0  0  -0.266849  0  2.765945  0  0  -0.274976  0  2.753747  0  0  -0.155885  -0.261904  0  2.773739  0
S  S65  1  0.53701005  0.97680400  0.70887431  1  0  -0.270687  0  2.359126  0  0  -0.26699  0  2.765897  0  0  -0.275127  0  2.753693  0  0  -0.155971  -0.262043  0  2.773691  0
S  S66  1  0.46298214  0.47680425  0.79113281  1  0  -0.270773  0  2.358529  0  0  -0.267062  0  2.765318  0  0  -0.275201  0  2.753105  0  0  -0.156033  -0.26211  0  2.773103  0
S  S67  1  0.03701712  0.52319484  0.29112761  1  0  -0.270592  0  2.35899  0  0  -0.266899  0  2.765762  0  0  -0.275038  0  2.753554  0  0  -0.15589  -0.261957  0  2.773565  0
S  S68  1  0.03701461  0.97680272  0.79112764  1  0  -0.270643  0  2.358861  0  0  -0.266944  0  2.765634  0  0  -0.27509  0  2.75343  0  0  -0.155944  -0.261993  0  2.773426  0
S  S69  1  0.79112644  0.03700986  0.97680097  1  0  -0.270564  0  2.359274  0  0  -0.266853  0  2.766089  0  0  -0.274982  0  2.753883  0  0  -0.155873  -0.26191  0  2.773886  0
S  S70  1  0.97680713  0.79112438  0.03701429  1  0  -0.270658  0  2.358882  0  0  -0.266929  0  2.765757  0  0  -0.275065  0  2.753557  0  0  -0.155921  -0.261983  0  2.773552  0
S  S71  1  0.52318866  0.20887788  0.53701053  1  0  -0.270627  0  2.359332  0  0  -0.266899  0  2.76624  0  0  -0.275029  0  2.754021  0  0  -0.155873  -0.26196  0  2.774044  0
S  S72  1  0.29113300  0.46298399  0.02319382  1  0  -0.270653  0  2.358926  0  0  -0.266967  0  2.765682  0  0  -0.275106  0  2.753481  0  0  -0.155936  -0.262015  0  2.773477  0
S  S73  1  0.02319487  0.29113173  0.46298546  1  0  -0.270738  0  2.358713  0  0  -0.26703  0  2.76546  0  0  -0.275156  0  2.753233  0  0  -0.156023  -0.262079  0  2.773256  0
S  S74  1  0.70887105  0.96298877  0.47680533  1  0  -0.270622  0  2.358965  0  0  -0.266917  0  2.765737  0  0  -0.275047  0  2.753517  0  0  -0.155974  -0.26197  0  2.773534  0
S  S75  1  0.20887688  0.53701298  0.52319263  1  0  -0.270606  0  2.359208  0  0  -0.266903  0  2.766057  0  0  -0.275014  0  2.753831  0  0  -0.155884  -0.261958  0  2.773856  0
S  S76  1  0.47680728  0.70886933  0.96298676  1  0  -0.270621  0  2.359163  0  0  -0.266933  0  2.765957  0  0  -0.275076  0  2.753763  0  0  -0.155884  -0.26198  0  2.773746  0
S  S77  1  0.46298550  0.02319294  0.29112678  1  0  -0.270647  0  2.35902  0  0  -0.266933  0  2.765799  0  0  -0.275061  0  2.753576  0  0  -0.155919  -0.261987  0  2.773602  0
S  S78  1  0.53701169  0.52319441  0.20887428  1  0  -0.270731  0  2.359292  0  0  -0.267004  0  2.766093  0  0  -0.275138  0  2.753881  0  0  -0.155934  -0.262047  0  2.773888  0
S  S79  1  0.96298614  0.47680297  0.70887177  1  0  -0.270763  0  2.358853  0  0  -0.267059  0  2.765615  0  0  -0.275191  0  2.753394  0  0  -0.15601  -0.262106  0  2.773407  0
N  N80  1  0.12668555  0.01173670  0.36933898  1  0  -0.411093  0  3.362468  0  0  -0.342227  0  3.596348  0  0  -0.365386  0  3.601537  0  0  -0.371348  -0.327453  0  3.592796  0
N  N81  1  0.36934205  0.12668724  0.01173850  1  0  -0.411107  0  3.36254  0  0  -0.342558  0  3.596639  0  0  -0.365549  0  3.601624  0  0  -0.371459  -0.327778  0  3.59309  0
N  N82  1  0.01173515  0.36934373  0.12669358  1  0  -0.411036  0  3.362538  0  0  -0.342392  0  3.596524  0  0  -0.365369  0  3.60146  0  0  -0.371377  -0.327607  0  3.59297  0
N  N83  1  0.48826379  0.63065596  0.62669221  1  0  -0.411195  0  3.362896  0  0  -0.342503  0  3.596886  0  0  -0.365494  0  3.60183  0  0  -0.371453  -0.327731  0  3.593342  0
N  N84  1  0.86934817  0.37329819  0.98826587  1  0  -0.411065  0  3.362484  0  0  -0.342449  0  3.596569  0  0  -0.365401  0  3.601428  0  0  -0.371421  -0.327666  0  3.593012  0
N  N85  1  0.98826272  0.86934634  0.37330543  1  0  -0.411231  0  3.36253  0  0  -0.342491  0  3.59653  0  0  -0.365473  0  3.60143  0  0  -0.371495  -0.327708  0  3.592971  0
N  N86  1  0.13065495  0.87330542  0.51174195  1  0  -0.411146  0  3.362327  0  0  -0.3424  0  3.596399  0  0  -0.365374  0  3.601338  0  0  -0.37142  -0.327616  0  3.592844  0
N  N87  1  0.63065449  0.62669618  0.48826700  1  0  -0.411056  0  3.362668  0  0  -0.342313  0  3.59665  0  0  -0.365326  0  3.601627  0  0  -0.371422  -0.327536  0  3.593103  0
N  N88  1  0.51173886  0.13065728  0.87330668  1  0  -0.411038  0  3.362455  0  0  -0.342387  0  3.596481  0  0  -0.365374  0  3.601452  0  0  -0.371455  -0.327606  0  3.59293  0
N  N89  1  0.37330786  0.98826421  0.86934650  1  0  -0.411149  0  3.362672  0  0  -0.342494  0  3.596628  0  0  -0.365444  0  3.601513  0  0  -0.371458  -0.327708  0  3.593075  0
N  N90  1  0.62669378  0.48826625  0.63065207  1  0  -0.410963  0  3.362707  0  0  -0.342122  0  3.596598  0  0  -0.365171  0  3.601559  0  0  -0.371369  -0.327344  0  3.593044  0
N  N91  1  0.87330476  0.51173872  0.13065520  1  0  -0.411057  0  3.362487  0  0  -0.342248  0  3.596367  0  0  -0.365334  0  3.601406  0  0  -0.371468  -0.327468  0  3.592814  0
N  N92  1  0.87331086  0.98826281  0.63065868  1  0  -0.411066  0  3.362599  0  0  -0.342293  0  3.5965  0  0  -0.365365  0  3.601514  0  0  -0.371443  -0.327513  0  3.592948  0
N  N93  1  0.63065693  0.87330027  0.98825830  1  0  -0.411106  0  3.362125  0  0  -0.342424  0  3.596131  0  0  -0.36541  0  3.601094  0  0  -0.371409  -0.327641  0  3.592576  0
N  N94  1  0.98826382  0.63065150  0.87330494  1  0  -0.411128  0  3.362776  0  0  -0.342374  0  3.596743  0  0  -0.365376  0  3.601709  0  0  -0.371479  -0.327594  0  3.59319  0
N  N95  1  0.51173776  0.36934698  0.37330460  1  0  -0.411139  0  3.36229  0  0  -0.342338  0  3.596236  0  0  -0.365357  0  3.601195  0  0  -0.371453  -0.327551  0  3.59268  0
N  N96  1  0.13065680  0.62669275  0.01173608  1  0  -0.410973  0  3.362592  0  0  -0.342319  0  3.596647  0  0  -0.365268  0  3.601535  0  0  -0.37142  -0.327538  0  3.593094  0
N  N97  1  0.01173540  0.13065489  0.62669052  1  0  -0.410878  0  3.36264  0  0  -0.342236  0  3.59664  0  0  -0.365201  0  3.601549  0  0  -0.371354  -0.327458  0  3.593089  0
N  N98  1  0.86934230  0.12669752  0.48826600  1  0  -0.411056  0  3.362612  0  0  -0.342328  0  3.596521  0  0  -0.365324  0  3.601455  0  0  -0.371375  -0.327545  0  3.592967  0
N  N99  1  0.36934277  0.37331105  0.51173923  1  0  -0.411217  0  3.362528  0  0  -0.342432  0  3.596529  0  0  -0.365464  0  3.601515  0  0  -0.371415  -0.327645  0  3.592976  0
N  N100  1  0.48826697  0.86934395  0.12669356  1  0  -0.410959  0  3.362431  0  0  -0.342316  0  3.596411  0  0  -0.365285  0  3.601338  0  0  -0.371323  -0.32753  0  3.592854  0
N  N101  1  0.62669540  0.01173873  0.13065373  1  0  -0.41109  0  3.362405  0  0  -0.342293  0  3.596284  0  0  -0.365358  0  3.601316  0  0  -0.371429  -0.327509  0  3.592732  0
N  N102  1  0.37331119  0.51173926  0.36934302  1  0  -0.411121  0  3.36243  0  0  -0.342474  0  3.596512  0  0  -0.365475  0  3.601511  0  0  -0.37142  -0.327695  0  3.592964  0
N  N103  1  0.12669335  0.48826508  0.86933903  1  0  -0.411052  0  3.362551  0  0  -0.342408  0  3.59651  0  0  -0.365407  0  3.601491  0  0  -0.371405  -0.327632  0  3.592958  0
Cl  Cl104  1  0.22374522  0.22374362  0.22374435  1  0  -0.546193  0  1.058893  0  0  -0.495087  0  1.334129  0  0  -0.512327  0  1.317555  0  0  -0.303265  -0.482537  0  1.344553  0
Cl  Cl105  1  0.27625562  0.77625622  0.72374451  1  0  -0.546165  0  1.058843  0  0  -0.495055  0  1.334065  0  0  -0.512303  0  1.317499  0  0  -0.303255  -0.482494  0  1.344479  0
Cl  Cl106  1  0.72374389  0.27625524  0.77625374  1  0  -0.546212  0  1.058804  0  0  -0.495082  0  1.334041  0  0  -0.512338  0  1.317473  0  0  -0.303294  -0.482524  0  1.344451  0
Cl  Cl107  1  0.77625493  0.72374395  0.27625444  1  0  -0.546171  0  1.058814  0  0  -0.495057  0  1.334049  0  0  -0.512307  0  1.317482  0  0  -0.303273  -0.4825  0  1.344464  0
Cl  Cl108  1  0.77625461  0.77625418  0.77625417  1  0  -0.546231  0  1.058816  0  0  -0.495111  0  1.334059  0  0  -0.51236  0  1.317492  0  0  -0.303314  -0.482557  0  1.34448  0
Cl  Cl109  1  0.72374336  0.22374329  0.27625487  1  0  -0.546177  0  1.058834  0  0  -0.495048  0  1.334068  0  0  -0.5123  0  1.317497  0  0  -0.303277  -0.482494  0  1.344489  0
Cl  Cl110  1  0.27625680  0.72374427  0.22374306  1  0  -0.546154  0  1.058884  0  0  -0.495058  0  1.334106  0  0  -0.512304  0  1.317541  0  0  -0.30325  -0.482495  0  1.344525  0
Cl  Cl111  1  0.22374404  0.27625557  0.72374322  1  0  -0.546199  0  1.058875  0  0  -0.495076  0  1.334107  0  0  -0.512321  0  1.317529  0  0  -0.303272  -0.48252  0  1.344528  0
