# generated using pymatgen
data_MnH15C23N2O5
_symmetry_space_group_name_H-M   'P 1'
_cell_length_a   9.67927055
_cell_length_b   10.57919925
_cell_length_c   10.87498295
_cell_angle_alpha   105.21658735
_cell_angle_beta   111.72013589
_cell_angle_gamma   107.17359723
_symmetry_Int_Tables_number   1
_chemical_formula_structural   MnH15C23N2O5
_chemical_formula_sum   'Mn2 H30 C46 N4 O10'
_cell_volume   897.53473652
_cell_formula_units_Z   2
loop_
 _symmetry_equiv_pos_site_id
 _symmetry_equiv_pos_as_xyz
  1  'x, y, z'
loop_
 _atom_site_type_symbol
 _atom_site_label
 _atom_site_symmetry_multiplicity
 _atom_site_fract_x
 _atom_site_fract_y
 _atom_site_fract_z
 _atom_site_occupancy
 _atom_site_hle17_ddec_charge
 _atom_site_hle17_ddec_spin_density
 _atom_site_hle17_ddec_sum_bond_order
 _atom_site_hle17_magmom
 _atom_site_hse06_10hf_ddec_charge
 _atom_site_hse06_10hf_ddec_spin_density
 _atom_site_hse06_10hf_ddec_sum_bond_order
 _atom_site_hse06_10hf_magmom
 _atom_site_hse06_ddec_charge
 _atom_site_hse06_ddec_spin_density
 _atom_site_hse06_ddec_sum_bond_order
 _atom_site_hse06_magmom
 _atom_site_pbe_cm5_charge
 _atom_site_pbe_ddec_charge
 _atom_site_pbe_ddec_spin_density
 _atom_site_pbe_ddec_sum_bond_order
 _atom_site_pbe_magmom
Mn  Mn0  1  0.14833856  0.02475462  0.16669078  1  1.107287  4.791592  1.814531  4.669  0.935689  4.714973  2.31119  4.524  0.994756  4.759404  2.243194  4.589  0.59681  0.891887  4.667558  2.360116  4.458
Mn  Mn1  1  0.85165720  0.97524620  0.83330623  1  1.107232  4.791583  1.814688  4.669  0.935622  4.714962  2.311354  4.524  0.994694  4.759387  2.243339  4.589  0.596786  0.89182  4.667528  2.360308  4.458
H  H2  1  0.65206302  0.85466178  0.05707072  1  0.104669  -0.000251  0.953119  0.0  0.113867  -0.000259  1.018077  0.0  0.117121  -0.000286  1.016432  0.0  0.105252  0.111399  -0.000249  1.019325  0.0
H  H3  1  0.34792660  0.14533793  0.94292033  1  0.104661  -0.000255  0.953123  0.0  0.11384  -0.000258  1.018122  0.0  0.117093  -0.000286  1.016479  0.0  0.105248  0.111373  -0.000249  1.019372  0.0
H  H4  1  0.88089273  0.29279302  0.03001510  1  0.094632  -0.000342  0.986506  0.0  0.102848  -0.000175  1.055154  0.0  0.106241  -0.000265  1.052484  0.0  0.101412  0.100181  -4.4e-05  1.057117  0.0
H  H5  1  0.11909753  0.70719905  0.96997239  1  0.094601  -0.000338  0.986476  0.0  0.102786  -0.000176  1.055167  0.0  0.10618  -0.000265  1.052496  0.0  0.101399  0.100121  -4.4e-05  1.057121  0.0
H  H6  1  0.02770405  0.55691631  0.10706676  1  0.087316  -0.000121  0.978001  0.0  0.097759  -9.1e-05  1.04254  0.0  0.100512  -0.000112  1.041224  0.0  0.098534  0.095558  -4.8e-05  1.044281  0.0
H  H7  1  0.97229621  0.44307795  0.89292730  1  0.08735  -0.000109  0.977975  0.0  0.097779  -9.1e-05  1.042524  0.0  0.100533  -0.000112  1.041208  0.0  0.098543  0.095574  -4.8e-05  1.044269  0.0
H  H8  1  0.49193600  0.35888592  0.09980715  1  0.082115  -7.7e-05  0.993729  0.0  0.091482  -7.7e-05  1.059274  0.0  0.093273  -9e-05  1.060263  0.0  0.096149  0.089932  -7.7e-05  1.059512  0.0
H  H9  1  0.50806196  0.64111708  0.90019204  1  0.082074  -7.4e-05  0.993752  0.0  0.091433  -7.7e-05  1.059324  0.0  0.093221  -9e-05  1.060315  0.0  0.096129  0.089881  -7.7e-05  1.059559  0.0
H  H10  1  0.64055408  0.62239146  0.17394315  1  0.093262  -7e-06  0.957224  0.0  0.102282  4.3e-05  1.021609  0.0  0.105347  2.6e-05  1.020129  0.0  0.100264  0.100185  4.1e-05  1.02307  0.0
H  H11  1  0.35945443  0.37761263  0.82606067  1  0.093261  -1.3e-05  0.957252  0.0  0.102267  4.3e-05  1.021646  0.0  0.105329  2.6e-05  1.020173  0.0  0.100244  0.100167  4.1e-05  1.023107  0.0
H  H12  1  0.33326235  0.82539858  0.24396467  1  0.073896  -4.2e-05  0.94546  0.0  0.081401  0.000397  1.013892  0.001  0.083694  0.000238  1.011903  0.0  0.115268  0.078993  0.000667  1.01672  0.001
H  H13  1  0.66673056  0.17460549  0.75602947  1  0.073924  -4.8e-05  0.945449  0.0  0.081434  0.000397  1.013888  0.001  0.083725  0.000238  1.0119  0.0  0.115274  0.079027  0.000667  1.016718  0.001
H  H14  1  0.62782297  0.86301210  0.38674783  1  0.11438  0.000106  0.950492  0.0  0.125607  0.000121  1.007092  0.0  0.128966  3.7e-05  1.00561  0.0  0.110029  0.122401  0.000273  1.009767  0.0
H  H15  1  0.37216348  0.13698113  0.61325067  1  0.114409  0.000106  0.950403  0.0  0.125632  0.00012  1.006997  0.0  0.128989  3.7e-05  1.005519  0.0  0.110032  0.122426  0.000273  1.009675  0.0
H  H16  1  0.85670470  0.11269514  0.50618601  1  0.113844  -0.000255  0.941047  0.0  0.126933  2.8e-05  0.994988  0.0  0.129981  -4.9e-05  0.992804  0.0  0.116267  0.12482  8e-05  0.996198  0.0
H  H17  1  0.14329512  0.88729371  0.49381298  1  0.113915  -0.000247  0.941073  0.0  0.126935  2.8e-05  0.995079  0.0  0.130037  -4.9e-05  0.992823  0.0  0.116259  0.124821  8e-05  0.996284  0.0
H  H18  1  0.94391351  0.38182415  0.57004392  1  0.104755  9.7e-05  0.944144  0.0  0.116759  0.000126  1.001676  0.0  0.118824  9.2e-05  1.002311  0.0  0.108418  0.115126  0.000142  1.001657  0.0
H  H19  1  0.05608796  0.61817018  0.42996158  1  0.104691  8.8e-05  0.944237  0.0  0.116696  0.000126  1.00177  0.0  0.11876  9.3e-05  1.002409  0.0  0.108424  0.115064  0.000142  1.001749  0.0
H  H20  1  0.86913937  0.58068389  0.54651758  1  0.118824  0.00011  0.968885  0.0  0.128501  0.000203  1.029677  0.0  0.132152  0.000135  1.027566  0.0  0.108754  0.126152  0.000217  1.030621  0.0
H  H21  1  0.13086762  0.41931261  0.45348842  1  0.118832  0.000125  0.968925  0.0  0.128528  0.000203  1.029682  0.0  0.132196  0.000135  1.027546  0.0  0.108777  0.12618  0.000217  1.030622  0.0
H  H22  1  0.65088772  0.66176468  0.43453275  1  0.114331  -0.000384  0.946239  0.0  0.125908  -0.000147  1.005495  0.0  0.129497  -0.000233  1.002296  0.0  0.112601  0.123356  -5.9e-05  1.007999  0.0
H  H23  1  0.34912522  0.33824160  0.56547398  1  0.11438  -0.000385  0.946306  0.0  0.125909  -0.000147  1.005609  0.0  0.129528  -0.000232  1.002372  0.0  0.112595  0.123351  -5.9e-05  1.008123  0.0
H  H24  1  0.35305669  0.59039575  0.26308280  1  0.102228  0.000237  0.943135  0.0  0.116241  0.000245  0.996741  0.0  0.118627  0.000189  0.997444  0.0  0.107988  0.113386  0.000417  0.998487  0.0
H  H25  1  0.64695625  0.40961052  0.73692301  1  0.10222  0.000238  0.943097  0.0  0.116234  0.000244  0.996717  0.0  0.118619  0.000189  0.997413  0.0  0.107972  0.113376  0.000417  0.998468  0.0
H  H26  1  0.14954583  0.32719935  0.13902373  1  0.086853  -0.000319  0.946337  0.0  0.09264  5.7e-05  1.014947  0.0  0.095172  -0.000127  1.012728  0.0  0.120689  0.090608  0.000243  1.016813  0.001
H  H27  1  0.85046154  0.67281132  0.86098690  1  0.086886  -0.000308  0.946363  0.0  0.092575  5.7e-05  1.015083  0.0  0.095105  -0.000127  1.012865  0.0  0.120667  0.090542  0.000243  1.016954  0.001
H  H28  1  0.08456208  0.16796093  0.35300934  1  0.401743  2.9e-05  0.913288  0.0  0.373825  0.000865  0.975261  0.001  0.384586  0.000591  0.959705  0.001  0.287771  0.366367  0.001102  0.985938  0.001
H  H29  1  0.91542873  0.83203664  0.64698800  1  0.401764  2.9e-05  0.913251  0.0  0.37384  0.000865  0.975239  0.001  0.384601  0.000591  0.959682  0.001  0.287796  0.366385  0.001102  0.985909  0.001
H  H30  1  0.05680788  0.01527172  0.35590375  1  0.40589  0.000187  0.909014  0.0  0.376506  0.001017  0.971998  0.001  0.388161  0.000744  0.955319  0.001  0.284266  0.368264  0.001254  0.983736  0.001
H  H31  1  0.94319621  0.98473019  0.64409716  1  0.40597  0.000192  0.908861  0.0  0.37655  0.001016  0.971928  0.001  0.388205  0.000743  0.955251  0.001  0.284264  0.368305  0.001254  0.983672  0.001
C  C32  1  0.85681972  0.11787892  0.13654358  1  0.675579  0.004722  3.85828  0.005  0.618841  0.01038  4.157952  0.009  0.654181  0.006944  4.148481  0.007  0.228274  0.593254  0.01489  4.165691  0.013
C  C33  1  0.14317328  0.88212082  0.86345410  1  0.675384  0.00475  3.858705  0.005  0.618637  0.01038  4.158283  0.009  0.653979  0.006945  4.148813  0.007  0.228156  0.593049  0.014893  4.16602  0.013
C  C34  1  0.67225206  0.06167055  0.05952177  1  -0.088693  0.001327  3.715672  0.001  -0.075455  0.002726  3.961839  0.002  -0.080165  0.001764  3.979888  0.001  -0.01091  -0.073541  0.004259  3.951835  0.003
C  C35  1  0.32773481  0.93832809  0.94046995  1  -0.088865  0.00129  3.71594  0.001  -0.075448  0.002731  3.961768  0.002  -0.080161  0.00176  3.979817  0.001  -0.010924  -0.073528  0.004258  3.95176  0.003
C  C36  1  0.58255098  0.91631405  0.02789456  1  -0.112639  0.000358  3.697147  0.0  -0.146153  0.001162  3.956705  0.001  -0.147162  0.000614  3.974883  0.001  -0.083901  -0.145203  0.001803  3.945078  0.001
C  C37  1  0.41744086  0.08368785  0.97209960  1  -0.11271  0.000394  3.697125  0.001  -0.14625  0.00116  3.956663  0.001  -0.147259  0.000617  3.974842  0.001  -0.083946  -0.145301  0.001804  3.945039  0.001
C  C38  1  0.59006676  0.14973883  0.03207449  1  0.045313  0.000363  3.744266  0.0  0.05019  0.001153  3.983102  0.001  0.051617  0.000635  4.004636  0.001  -0.003518  0.048709  0.002147  3.969149  0.002
C  C39  1  0.40992509  0.85026088  0.96791820  1  0.045201  0.000398  3.744339  0.0  0.050122  0.001149  3.98297  0.001  0.05155  0.000637  4.004502  0.001  -0.003521  0.048642  0.002148  3.969015  0.002
C  C40  1  0.67653728  0.30476937  0.06436552  1  0.059425  0.00038  3.762894  0.0  0.073766  0.00072  3.994484  0.001  0.074513  0.000531  4.017697  0.0  -0.005714  0.073249  0.000942  3.978818  0.001
C  C41  1  0.32345684  0.69522818  0.93562920  1  0.059362  0.000366  3.763056  0.0  0.073703  0.000723  3.994591  0.001  0.074449  0.000533  4.017803  0.0  -0.00576  0.073179  0.000942  3.978929  0.001
C  C42  1  0.82743938  0.36339385  0.06418304  1  -0.119825  -9e-06  3.732589  0.0  -0.140564  0.000303  3.984757  0.0  -0.143559  3.5e-05  4.004575  0.0  -0.09387  -0.136342  0.000553  3.96992  0.0
C  C43  1  0.17255476  0.63660150  0.93581022  1  -0.119669  6e-06  3.732461  0.0  -0.140404  0.000303  3.984646  0.0  -0.143398  3.3e-05  4.004464  0.0  -0.093797  -0.136187  0.000553  3.969809  0.0
C  C44  1  0.90946602  0.51193218  0.10442293  1  -0.076797  0.000278  3.763286  0.0  -0.098955  0.000672  4.010355  0.001  -0.09865  0.00049  4.030321  0.001  -0.091188  -0.100032  0.000759  3.997507  0.001
C  C45  1  0.09053366  0.48806537  0.89557453  1  -0.076902  0.000227  3.76313  0.0  -0.099029  0.000669  4.010184  0.001  -0.098725  0.000494  4.030151  0.001  -0.091218  -0.100095  0.000759  3.997329  0.001
C  C46  1  0.60930974  0.40073016  0.10034537  1  -0.114413  -0.000164  3.752607  0.0  -0.130436  2.1e-05  3.995456  0.0  -0.133743  -0.000136  4.017845  0.0  -0.092668  -0.12976  0.000284  3.982233  0.0
C  C47  1  0.39069043  0.59927284  0.89965362  1  -0.114284  -0.000161  3.752609  0.0  -0.130322  1.9e-05  3.995451  0.0  -0.133629  -0.000141  4.017843  0.0  -0.092637  -0.129637  0.000284  3.982213  0.0
C  C48  1  0.69206902  0.54914285  0.14197274  1  -0.068527  0.000665  3.763176  0.001  -0.091531  0.001068  4.010495  0.001  -0.091397  0.000831  4.030709  0.001  -0.087797  -0.091651  0.001357  3.997612  0.001
C  C49  1  0.30793507  0.45085906  0.85802909  1  -0.068627  0.000665  3.763244  0.001  -0.091609  0.001066  4.010563  0.001  -0.091478  0.000838  4.030778  0.001  -0.087778  -0.091731  0.001357  3.997675  0.001
C  C50  1  0.84387305  0.60695910  0.14515799  1  -0.076682  0.000691  3.784673  0.001  -0.055099  0.000593  4.019729  0.001  -0.062323  0.000286  4.041821  0.0  -0.024243  -0.048983  0.001345  4.004618  0.001
C  C51  1  0.15613329  0.39304063  0.85484403  1  -0.076597  0.000735  3.784537  0.001  -0.055023  0.000598  4.019602  0.001  -0.062248  0.000277  4.041695  0.0  -0.024255  -0.048914  0.001345  4.004492  0.001
C  C52  1  0.93467822  0.76769455  0.19458789  1  0.640807  0.003252  3.913336  0.003  0.589717  0.006607  4.211175  0.006  0.623921  0.004945  4.204458  0.005  0.21016  0.56594  0.008442  4.214662  0.007
C  C53  1  0.06532924  0.23230298  0.80541118  1  0.640805  0.003256  3.913135  0.003  0.589679  0.006607  4.211013  0.006  0.623888  0.004949  4.20429  0.005  0.210148  0.565912  0.008444  4.214495  0.007
C  C54  1  0.43798596  0.93266725  0.29738477  1  0.138879  0.004872  3.712755  0.005  0.104257  0.007492  3.974104  0.006  0.112064  0.006413  3.992814  0.006  0.058127  0.099342  0.008835  3.962081  0.007
C  C55  1  0.56200645  0.06733357  0.70261022  1  0.138931  0.004865  3.712368  0.005  0.104278  0.007493  3.973741  0.006  0.11209  0.006422  3.992455  0.006  0.058253  0.099369  0.008836  3.961725  0.007
C  C56  1  0.60113775  0.95389074  0.37688764  1  -0.103603  -0.002736  3.706683  -0.001  -0.117784  -0.001765  3.962585  -0.001  -0.124482  -0.00257  3.983068  -0.001  -0.078011  -0.11335  -0.00123  3.949799  0.0
C  C57  1  0.39884981  0.04610250  0.62311030  1  -0.103589  -0.002669  3.706634  -0.001  -0.117746  -0.001758  3.962538  -0.001  -0.124446  -0.002584  3.983036  -0.001  -0.078033  -0.113309  -0.00123  3.949748  0.0
C  C58  1  0.72853085  0.09277696  0.44420619  1  -0.018229  0.004323  3.626414  0.004  -0.046082  0.005999  3.875516  0.005  -0.042576  0.005266  3.891647  0.004  -0.052808  -0.048574  0.007146  3.864057  0.006
C  C59  1  0.27146338  0.90721627  0.55579392  1  -0.018341  0.00425  3.626794  0.004  -0.046162  0.005993  3.875884  0.005  -0.042699  0.005278  3.892005  0.004  -0.052848  -0.048659  0.007146  3.864431  0.006
C  C60  1  0.69202336  0.21032391  0.43270142  1  0.027585  -0.001655  3.783013  -0.001  0.042281  -0.000966  4.018015  -0.001  0.039904  -0.001505  4.041639  -0.001  0.003065  0.044413  -0.000491  4.002566  0.0
C  C61  1  0.30797634  0.78967804  0.56730451  1  0.027524  -0.001605  3.783233  -0.001  0.042273  -0.00096  4.018162  -0.001  0.039897  -0.001514  4.041798  -0.001  0.003037  0.044406  -0.000491  4.002708  0.0
C  C62  1  0.81546342  0.35823779  0.50314617  1  -0.078185  -3.8e-05  3.714613  0.0  -0.101581  -9.6e-05  3.970084  0.0  -0.103863  -0.000133  3.992137  0.0  -0.075962  -0.100342  8e-05  3.955807  0.0
C  C63  1  0.18454352  0.64176307  0.49686184  1  -0.078107  5.8e-05  3.71476  0.0  -0.101517  -9.7e-05  3.970216  0.0  -0.103804  -0.00013  3.99228  0.0  -0.075944  -0.100277  8e-05  3.955941  0.0
C  C64  1  0.77411527  0.46840540  0.48888001  1  -0.104049  -0.000653  3.718063  0.0  -0.127089  -0.000462  3.971596  0.0  -0.131001  -0.000652  3.994363  0.0  -0.083622  -0.124208  -0.000307  3.955559  0.0
C  C65  1  0.22589223  0.53159436  0.51112699  1  -0.10405  -0.000792  3.718209  0.0  -0.127076  -0.000461  3.97176  0.0  -0.130996  -0.000657  3.994515  0.0  -0.083623  -0.124207  -0.000307  3.955728  0.0
C  C66  1  0.60641221  0.43873732  0.39936398  1  0.024338  -0.001187  3.802521  -0.001  0.04234  -0.000539  4.031621  0.0  0.039868  -0.000985  4.056542  -0.001  0.000773  0.043824  -0.000229  4.014814  0.0
C  C67  1  0.39359523  0.56126460  0.60064079  1  0.024439  -0.001104  3.802497  -0.001  0.042385  -0.000536  4.031698  0.0  0.039909  -0.000986  4.056633  -0.001  0.00082  0.043882  -0.000229  4.014868  0.0
C  C68  1  0.55807895  0.54823563  0.37763245  1  -0.042236  0.003511  3.665838  0.003  -0.069236  0.004945  3.916945  0.004  -0.066277  0.004233  3.933371  0.003  -0.059626  -0.071573  0.005984  3.906233  0.005
C  C69  1  0.44193235  0.45176737  0.62237201  1  -0.042345  0.003458  3.666012  0.003  -0.069295  0.004944  3.917156  0.004  -0.066354  0.004235  3.933564  0.003  -0.059655  -0.071634  0.005985  3.906448  0.005
C  C70  1  0.39461281  0.50930675  0.28384379  1  -0.120446  -0.001882  3.735625  -0.001  -0.133651  -0.001027  3.991546  0.0  -0.140665  -0.00159  4.01317  -0.001  -0.081739  -0.128046  -0.000462  3.97816  0.0
C  C71  1  0.60539624  0.49069842  0.71615957  1  -0.120326  -0.00183  3.735497  -0.001  -0.13352  -0.001025  3.991335  0.0  -0.140532  -0.001591  4.012969  -0.001  -0.081668  -0.127912  -0.000462  3.977953  0.0
C  C72  1  0.27913375  0.36201977  0.21440886  1  0.150201  0.003925  3.674938  0.004  0.116291  0.006176  3.936627  0.005  0.124938  0.005125  3.952535  0.004  0.062131  0.110534  0.007543  3.925767  0.006
C  C73  1  0.72087528  0.63798979  0.78560020  1  0.150074  0.003873  3.675003  0.004  0.116243  0.006176  3.93666  0.005  0.12489  0.005133  3.952571  0.004  0.062061  0.110474  0.007546  3.925808  0.006
C  C74  1  0.48106956  0.29314714  0.32639652  1  0.127951  0.001785  3.747518  0.002  0.121879  0.003845  3.983832  0.003  0.125818  0.003057  4.005923  0.003  0.121736  0.119046  0.004773  3.96948  0.004
C  C75  1  0.51893676  0.70685698  0.67361027  1  0.127861  0.001767  3.747518  0.002  0.121748  0.003845  3.983951  0.003  0.125688  0.003061  4.006044  0.003  0.121665  0.118928  0.004774  3.969566  0.004
C  C76  1  0.52388478  0.17779721  0.34655911  1  0.131775  0.002584  3.740113  0.003  0.126479  0.00488  3.973613  0.004  0.130246  0.004026  3.997018  0.004  0.1224  0.123568  0.005841  3.958828  0.005
C  C77  1  0.47611822  0.82220472  0.65344421  1  0.131847  0.00257  3.740052  0.003  0.126549  0.004879  3.973537  0.004  0.130319  0.004038  3.996945  0.004  0.122464  0.123632  0.005843  3.958753  0.005
N  N78  1  0.40026060  0.04061031  0.28074766  1  -0.359686  0.02862  3.262386  0.015  -0.293552  0.03287  3.538147  0.014  -0.314158  0.028854  3.555934  0.011  -0.316013  -0.27914  0.037337  3.525806  0.018
N  N79  1  0.59973958  0.95939049  0.71924894  1  -0.359784  0.028642  3.262119  0.015  -0.293623  0.032869  3.537889  0.014  -0.314243  0.028841  3.555684  0.011  -0.316149  -0.279228  0.037338  3.525576  0.018
N  N80  1  0.32048712  0.25714719  0.23612619  1  -0.355908  0.025922  3.230791  0.014  -0.292733  0.030345  3.508545  0.014  -0.311425  0.026807  3.523105  0.012  -0.313798  -0.279133  0.033741  3.498274  0.017
N  N81  1  0.67952030  0.74285912  0.76388336  1  -0.355845  0.025938  3.230861  0.014  -0.292643  0.030345  3.508588  0.014  -0.311323  0.026798  3.52312  0.012  -0.3137  -0.279043  0.033742  3.498309  0.017
O  O82  1  0.92052669  0.05655848  0.06671764  1  -0.685469  0.056232  2.088902  0.031  -0.5992  0.071862  2.378729  0.04  -0.63332  0.065399  2.360667  0.035  -0.307179  -0.572823  0.075226  2.391059  0.042
O  O83  1  0.07946351  0.94344015  0.93327517  1  -0.685336  0.056212  2.089065  0.031  -0.599074  0.071857  2.378819  0.04  -0.633193  0.065389  2.360762  0.035  -0.307136  -0.572698  0.075219  2.391146  0.042
O  O84  1  0.93851229  0.21319784  0.26509505  1  -0.589182  0.00401  1.974495  0.005  -0.538156  0.008155  2.194784  0.01  -0.561894  0.005888  2.187286  0.007  -0.29319  -0.521171  0.011037  2.200204  0.013
O  O85  1  0.06147965  0.78679755  0.73490118  1  -0.589098  0.004006  1.974493  0.005  -0.538055  0.008154  2.194742  0.01  -0.561789  0.00589  2.18724  0.007  -0.293125  -0.52107  0.011038  2.200162  0.013
O  O86  1  0.03422442  0.81008387  0.14560817  1  -0.665899  0.034829  2.030715  0.023  -0.596577  0.039401  2.301458  0.024  -0.628517  0.035291  2.28918  0.02  -0.32576  -0.572105  0.044045  2.308546  0.028
O  O87  1  0.96577806  0.18991259  0.85438992  1  -0.665967  0.034831  2.030588  0.023  -0.596606  0.039404  2.301342  0.024  -0.62854  0.035293  2.289044  0.02  -0.325772  -0.572141  0.044045  2.308437  0.028
O  O88  1  0.90927450  0.85119515  0.28195117  1  -0.611271  0.001339  1.930595  0.002  -0.560285  0.00356  2.144268  0.004  -0.583519  0.002481  2.133913  0.003  -0.31587  -0.543372  0.004929  2.150608  0.005
O  O89  1  0.09073351  0.14880348  0.71804927  1  -0.611215  0.001335  1.930612  0.002  -0.560225  0.003561  2.144333  0.004  -0.583453  0.002479  2.133969  0.003  -0.315814  -0.543313  0.004929  2.150674  0.005
O  O90  1  0.14705001  0.10976188  0.37713793  1  -0.836014  0.033729  1.897303  0.025  -0.780083  0.042595  2.09451  0.031  -0.805219  0.03737  2.061433  0.027  -0.57973  -0.761049  0.047912  2.117059  0.036
O  O91  1  0.85294359  0.89023680  0.62286243  1  -0.836067  0.033725  1.89717  0.025  -0.780139  0.042597  2.094502  0.031  -0.80527  0.037375  2.061406  0.027  -0.579733  -0.761103  0.047915  2.117051  0.036
