# generated using pymatgen
data_HoH7(C3O4)2
_symmetry_space_group_name_H-M   'P 1'
_cell_length_a   8.02571051
_cell_length_b   9.51620523
_cell_length_c   12.26417253
_cell_angle_alpha   91.33450883
_cell_angle_beta   90.00006238
_cell_angle_gamma   90.00005837
_symmetry_Int_Tables_number   1
_chemical_formula_structural   HoH7(C3O4)2
_chemical_formula_sum   'Ho4 H28 C24 O32'
_cell_volume   936.41363608
_cell_formula_units_Z   4
loop_
 _symmetry_equiv_pos_site_id
 _symmetry_equiv_pos_as_xyz
  1  'x, y, z'
loop_
 _atom_site_type_symbol
 _atom_site_label
 _atom_site_symmetry_multiplicity
 _atom_site_fract_x
 _atom_site_fract_y
 _atom_site_fract_z
 _atom_site_occupancy
 _atom_site_hle17_bader_spin_density
 _atom_site_hle17_ddec_charge
 _atom_site_hle17_ddec_spin_density
 _atom_site_hle17_ddec_sum_bond_order
 _atom_site_hle17_magmom
 _atom_site_hse06_10hf_bader_spin_density
 _atom_site_hse06_10hf_ddec_charge
 _atom_site_hse06_10hf_ddec_spin_density
 _atom_site_hse06_10hf_ddec_sum_bond_order
 _atom_site_hse06_10hf_magmom
 _atom_site_hse06_bader_spin_density
 _atom_site_hse06_ddec_charge
 _atom_site_hse06_ddec_spin_density
 _atom_site_hse06_ddec_sum_bond_order
 _atom_site_hse06_magmom
 _atom_site_pbe_bader_spin_density
 _atom_site_pbe_cm5_charge
 _atom_site_pbe_ddec_charge
 _atom_site_pbe_ddec_spin_density
 _atom_site_pbe_ddec_sum_bond_order
 _atom_site_pbe_magmom
Ho  Ho0  1  0.94405175  0.69212492  0.41715911  1  0  2.277509  0  1.610141  0  0  2.127844  0  2.086812  0  0  2.25612  0  1.893416  0  0  1.526817  2.093639  0  2.116304  0
Ho  Ho1  1  0.44405095  0.80787552  0.08284071  1  0  2.277537  0  1.610156  0  0  2.127882  0  2.086803  0  0  2.256149  0  1.893427  0  0  1.526819  2.093671  0  2.116323  0
Ho  Ho2  1  0.05595085  0.30787593  0.58284167  1  0  2.277511  0  1.610198  0  0  2.127808  0  2.086914  0  0  2.256117  0  1.89347  0  0  1.526811  2.093631  0  2.116387  0
Ho  Ho3  1  0.55594916  0.19212533  0.91715925  1  0  2.277506  0  1.610153  0  0  2.127864  0  2.08679  0  0  2.256122  0  1.893427  0  0  1.52681  2.093643  0  2.116321  0
H  H4  1  0.69239265  0.33025367  0.20618509  1  0  0.128712  0  0.940638  0  0  0.13545  0  1.002726  0  0  0.139808  0  1.000058  0  0  0.114356  0.13236  0  1.004377  0
H  H5  1  0.19239203  0.16974798  0.29381587  1  0  0.128771  0  0.940638  0  0  0.135482  0  1.002747  0  0  0.139841  0  1.000079  0  0  0.11437  0.132392  0  1.004396  0
H  H6  1  0.30760871  0.66974718  0.79381569  1  0  0.128744  0  0.940571  0  0  0.135476  0  1.002661  0  0  0.13984  0  0.999988  0  0  0.114365  0.132388  0  1.004308  0
H  H7  1  0.80760808  0.83025287  0.70618410  1  0  0.128738  0  0.940665  0  0  0.135494  0  1.00272  0  0  0.139853  0  1.000052  0  0  0.114379  0.132406  0  1.004369  0
H  H8  1  0.82903096  0.06816684  0.32105906  1  0  0.135233  0  0.944078  0  0  0.139763  0  1.00995  0  0  0.144636  0  1.006694  0  0  0.116121  0.136548  0  1.011828  0
H  H9  1  0.32903046  0.43183388  0.17894035  1  0  0.135209  0  0.944098  0  0  0.139766  0  1.009936  0  0  0.14464  0  1.006678  0  0  0.11614  0.136554  0  1.011813  0
H  H10  1  0.17096915  0.93183401  0.67894090  1  0  0.135227  0  0.94411  0  0  0.139765  0  1.009971  0  0  0.144638  0  1.006714  0  0  0.116121  0.136555  0  1.011848  0
H  H11  1  0.67096965  0.56816592  0.82105878  1  0  0.13523  0  0.944097  0  0  0.139786  0  1.009926  0  0  0.144659  0  1.006668  0  0  0.116133  0.136575  0  1.011798  0
H  H12  1  0.39160737  0.86488287  0.49872297  1  0  0.138065  0  0.942644  0  0  0.143884  0  1.004612  0  0  0.148322  0  1.001985  0  0  0.120075  0.140896  0  1.00594  0
H  H13  1  0.89160742  0.63511437  0.00127676  1  0  0.138074  0  0.94262  0  0  0.143905  0  1.004562  0  0  0.14834  0  1.001948  0  0  0.120104  0.140925  0  1.005899  0
H  H14  1  0.60838900  0.13511377  0.50127854  1  0  0.138086  0  0.94263  0  0  0.143897  0  1.004591  0  0  0.148339  0  1.001955  0  0  0.120102  0.14091  0  1.005925  0
H  H15  1  0.10839269  0.36488649  0.99872239  1  0  0.138068  0  0.942635  0  0  0.143882  0  1.0046  0  0  0.148319  0  1.001975  0  0  0.120084  0.140896  0  1.005928  0
H  H16  1  0.80831788  0.81793826  0.21882149  1  0  0.434694  0  0.872105  0  0  0.404137  0  0.934884  0  0  0.41504  0  0.919511  0  0  0.304536  0.396453  0  0.94598  0
H  H17  1  0.30831726  0.68206101  0.28117822  1  0  0.434707  0  0.872104  0  0  0.404152  0  0.93488  0  0  0.415055  0  0.91951  0  0  0.30455  0.396469  0  0.945975  0
H  H18  1  0.19168347  0.18206155  0.78117764  1  0  0.434718  0  0.872077  0  0  0.404162  0  0.934856  0  0  0.415066  0  0.919483  0  0  0.304552  0.396478  0  0.945955  0
H  H19  1  0.69168285  0.31793879  0.71882173  1  0  0.434718  0  0.872104  0  0  0.404159  0  0.934884  0  0  0.415063  0  0.919511  0  0  0.304546  0.396479  0  0.945975  0
H  H20  1  0.20905517  0.87380774  0.32171133  1  0  0.438658  0  0.852008  0  0  0.411584  0  0.909724  0  0  0.422372  0  0.893996  0  0  0.306023  0.404059  0  0.920888  0
H  H21  1  0.70905550  0.62619249  0.17828833  1  0  0.438619  0  0.852027  0  0  0.411543  0  0.909776  0  0  0.422329  0  0.894051  0  0  0.306007  0.40402  0  0.920936  0
H  H22  1  0.79094369  0.12619312  0.67828864  1  0  0.438634  0  0.851986  0  0  0.411559  0  0.909746  0  0  0.422345  0  0.894022  0  0  0.306024  0.404036  0  0.920906  0
H  H23  1  0.29094461  0.37380731  0.82171162  1  0  0.438642  0  0.85201  0  0  0.411573  0  0.909736  0  0  0.42236  0  0.894008  0  0  0.306012  0.404051  0  0.920896  0
H  H24  1  0.98258650  0.75073350  0.18167005  1  0  0.442324  0  0.854045  0  0  0.414273  0  0.911495  0  0  0.425489  0  0.895457  0  0  0.303159  0.406631  0  0.922485  0
H  H25  1  0.48258602  0.74926697  0.31832817  1  0  0.442351  0  0.854014  0  0  0.414297  0  0.911472  0  0  0.425513  0  0.895434  0  0  0.303177  0.406657  0  0.922457  0
H  H26  1  0.01741486  0.24926735  0.81832828  1  0  0.442335  0  0.85404  0  0  0.414284  0  0.911492  0  0  0.425499  0  0.895455  0  0  0.303168  0.406647  0  0.922473  0
H  H27  1  0.51741409  0.25073283  0.68167096  1  0  0.442316  0  0.854062  0  0  0.414257  0  0.911525  0  0  0.425473  0  0.895487  0  0  0.303163  0.406616  0  0.922516  0
H  H28  1  0.14179397  0.96269958  0.42271141  1  0  0.442026  0  0.85296  0  0  0.413334  0  0.912532  0  0  0.42472  0  0.896016  0  0  0.301087  0.405493  0  0.924042  0
H  H29  1  0.64179403  0.53729954  0.07728899  1  0  0.442098  0  0.852877  0  0  0.413419  0  0.912436  0  0  0.424804  0  0.895921  0  0  0.301119  0.4056  0  0.923923  0
H  H30  1  0.85820614  0.03729917  0.57728851  1  0  0.442088  0  0.852891  0  0  0.413407  0  0.912453  0  0  0.424794  0  0.895935  0  0  0.301115  0.40559  0  0.923936  0
H  H31  1  0.35820608  0.46270132  0.92271179  1  0  0.442085  0  0.852874  0  0  0.413408  0  0.91243  0  0  0.424793  0  0.895914  0  0  0.301122  0.405592  0  0.923913  0
C  C32  1  0.81708829  0.35017732  0.36600669  1  0  0.758743  0  3.851316  0  0  0.721394  0  4.130455  0  0  0.757862  0  4.121201  0  0  0.232395  0.697138  0  4.138648  0
C  C33  1  0.31708614  0.14982338  0.13399434  1  0  0.75865  0  3.851275  0  0  0.721272  0  4.130477  0  0  0.75775  0  4.12121  0  0  0.232323  0.697037  0  4.138636  0
C  C34  1  0.18291182  0.64982248  0.63399326  1  0  0.758791  0  3.851165  0  0  0.721434  0  4.130316  0  0  0.757909  0  4.121051  0  0  0.232401  0.697187  0  4.138499  0
C  C35  1  0.68291272  0.85017852  0.86600646  1  0  0.758758  0  3.851178  0  0  0.721387  0  4.130366  0  0  0.757862  0  4.121099  0  0  0.232414  0.697142  0  4.138545  0
C  C36  1  0.75160611  0.26930564  0.26970124  1  0  -0.145776  0  3.592949  0  0  -0.164756  0  3.838756  0  0  -0.169632  0  3.851305  0  0  -0.071544  -0.160709  0  3.828216  0
C  C37  1  0.25160422  0.23069501  0.23030056  1  0  -0.145885  0  3.593048  0  0  -0.164848  0  3.838899  0  0  -0.169728  0  3.851448  0  0  -0.071594  -0.160809  0  3.828361  0
C  C38  1  0.24839400  0.73069627  0.73029793  1  0  -0.145878  0  3.592854  0  0  -0.164834  0  3.838664  0  0  -0.169718  0  3.85121  0  0  -0.071556  -0.16078  0  3.828123  0
C  C39  1  0.74839464  0.76930479  0.76969939  1  0  -0.145849  0  3.59296  0  0  -0.16485  0  3.838798  0  0  -0.169728  0  3.851345  0  0  -0.071587  -0.160803  0  3.828262  0
C  C40  1  0.77041806  0.12959759  0.25745208  1  0  -0.16693  0  3.604825  0  0  -0.185534  0  3.854239  0  0  -0.191384  0  3.865973  0  0  -0.076641  -0.18128  0  3.844363  0
C  C41  1  0.27041760  0.37040202  0.24254890  1  0  -0.166905  0  3.604799  0  0  -0.185465  0  3.854238  0  0  -0.191314  0  3.865973  0  0  -0.076624  -0.181212  0  3.844369  0
C  C42  1  0.22958080  0.87040326  0.74254789  1  0  -0.166945  0  3.604798  0  0  -0.185529  0  3.854251  0  0  -0.191378  0  3.865988  0  0  -0.076641  -0.181285  0  3.844394  0
C  C43  1  0.72958251  0.62959778  0.75745023  1  0  -0.16691  0  3.604801  0  0  -0.18549  0  3.85422  0  0  -0.19134  0  3.865954  0  0  -0.076621  -0.18124  0  3.844355  0
C  C44  1  0.69956190  0.05167193  0.16214772  1  0  0.767191  0  3.827739  0  0  0.72635  0  4.105775  0  0  0.7632  0  4.096502  0  0  0.239974  0.701686  0  4.114541  0
C  C45  1  0.19956294  0.44832973  0.33785324  1  0  0.767281  0  3.827663  0  0  0.72628  0  4.105959  0  0  0.76313  0  4.096687  0  0  0.239917  0.701613  0  4.114732  0
C  C46  1  0.30043447  0.94832892  0.83785306  1  0  0.767272  0  3.827559  0  0  0.726325  0  4.105781  0  0  0.763174  0  4.09651  0  0  0.23991  0.701653  0  4.114563  0
C  C47  1  0.80043842  0.55167113  0.66214672  1  0  0.767239  0  3.827689  0  0  0.726319  0  4.105843  0  0  0.763167  0  4.096574  0  0  0.239947  0.70165  0  4.114627  0
C  C48  1  0.65841611  0.85663890  0.46016107  1  0  0.690696  0  3.892494  0  0  0.641761  0  4.186741  0  0  0.67546  0  4.184738  0  0  0.209072  0.618136  0  4.193066  0
C  C49  1  0.15841256  0.64336234  0.03983857  1  0  0.690515  0  3.892585  0  0  0.641604  0  4.186804  0  0  0.675305  0  4.184802  0  0  0.20903  0.617985  0  4.193124  0
C  C50  1  0.34158400  0.14336091  0.53983806  1  0  0.690603  0  3.892543  0  0  0.641641  0  4.186803  0  0  0.675341  0  4.184806  0  0  0.209066  0.618015  0  4.19315  0
C  C51  1  0.84158631  0.35663852  0.96016221  1  0  0.690603  0  3.892512  0  0  0.641677  0  4.186751  0  0  0.675377  0  4.184744  0  0  0.20905  0.618058  0  4.19307  0
C  C52  1  0.50312152  0.93015087  0.49223225  1  0  -0.148947  0  3.614604  0  0  -0.164643  0  3.863198  0  0  -0.169483  0  3.875571  0  0  -0.069481  -0.160762  0  3.853425  0
C  C53  1  0.00311782  0.56984602  0.00776801  1  0  -0.148882  0  3.614636  0  0  -0.164572  0  3.86321  0  0  -0.169414  0  3.87558  0  0  -0.069501  -0.160714  0  3.853453  0
C  C54  1  0.49688108  0.06984263  0.50776920  1  0  -0.148807  0  3.614565  0  0  -0.16444  0  3.863118  0  0  -0.169277  0  3.875491  0  0  -0.069409  -0.160576  0  3.853357  0
C  C55  1  0.99688228  0.43015378  0.99223112  1  0  -0.148875  0  3.614621  0  0  -0.164543  0  3.863198  0  0  -0.169381  0  3.875568  0  0  -0.069432  -0.160669  0  3.853426  0
O  O56  1  0.83484878  0.48152295  0.35372921  1  0  -0.734161  0  2.033688  0  0  -0.684868  0  2.283092  0  0  -0.72189  0  2.26761  0  0  -0.391893  -0.667625  0  2.29099  0
O  O57  1  0.33484525  0.01847566  0.14627423  1  0  -0.734153  0  2.033663  0  0  -0.684848  0  2.283072  0  0  -0.721872  0  2.267588  0  0  -0.391883  -0.667609  0  2.290959  0
O  O58  1  0.16515382  0.51847579  0.64627153  1  0  -0.734187  0  2.033698  0  0  -0.684884  0  2.283093  0  0  -0.721915  0  2.267606  0  0  -0.391893  -0.667647  0  2.290989  0
O  O59  1  0.66515237  0.98152203  0.85372649  1  0  -0.734167  0  2.033664  0  0  -0.684862  0  2.283061  0  0  -0.721882  0  2.267576  0  0  -0.391905  -0.667621  0  2.290955  0
O  O60  1  0.10755268  0.89303994  0.36519815  1  0  -0.907122  0  1.84509  0  0  -0.864371  0  2.03811  0  0  -0.892023  0  1.998286  0  0  -0.640172  -0.851762  0  2.061335  0
O  O61  1  0.60755042  0.60695915  0.13480141  1  0  -0.907162  0  1.845057  0  0  -0.864436  0  2.038082  0  0  -0.892084  0  1.998258  0  0  -0.640192  -0.85185  0  2.06126  0
O  O62  1  0.89244992  0.10695882  0.63480096  1  0  -0.907172  0  1.845026  0  0  -0.864438  0  2.038068  0  0  -0.892095  0  1.998239  0  0  -0.640203  -0.851865  0  2.061239  0
O  O63  1  0.39244720  0.39303960  0.86519851  1  0  -0.907169  0  1.845053  0  0  -0.864447  0  2.038071  0  0  -0.892095  0  1.998249  0  0  -0.640197  -0.851863  0  2.061245  0
O  O64  1  0.88609165  0.73753869  0.23242289  1  0  -0.924961  0  1.915423  0  0  -0.87202  0  2.113692  0  0  -0.903664  0  2.076386  0  0  -0.640625  -0.856962  0  2.135496  0
O  O65  1  0.38608861  0.76246170  0.26757689  1  0  -0.925035  0  1.915446  0  0  -0.872077  0  2.113678  0  0  -0.903721  0  2.076373  0  0  -0.640658  -0.857034  0  2.135512  0
O  O66  1  0.11391095  0.26246216  0.76757789  1  0  -0.92503  0  1.915447  0  0  -0.872059  0  2.11367  0  0  -0.903709  0  2.076363  0  0  -0.640646  -0.857017  0  2.13549  0
O  O67  1  0.61391026  0.23754021  0.73242228  1  0  -0.924979  0  1.915435  0  0  -0.872048  0  2.113723  0  0  -0.903692  0  2.076426  0  0  -0.640635  -0.856972  0  2.135498  0
O  O68  1  0.85472237  0.28350578  0.45162426  1  0  -0.757477  0  2.035837  0  0  -0.709498  0  2.291955  0  0  -0.746742  0  2.275341  0  0  -0.409531  -0.691811  0  2.30055  0
O  O69  1  0.35472141  0.21649813  0.04837441  1  0  -0.757387  0  2.035843  0  0  -0.709388  0  2.291931  0  0  -0.746625  0  2.275315  0  0  -0.409444  -0.691699  0  2.300514  0
O  O70  1  0.14527898  0.71649403  0.54837487  1  0  -0.757443  0  2.035767  0  0  -0.709471  0  2.291891  0  0  -0.746709  0  2.275272  0  0  -0.409511  -0.691784  0  2.300487  0
O  O71  1  0.64527870  0.78350483  0.95162478  1  0  -0.757464  0  2.035752  0  0  -0.70948  0  2.291868  0  0  -0.746716  0  2.275247  0  0  -0.40952  -0.69179  0  2.300464  0
O  O72  1  0.66480663  0.92083363  0.17609314  1  0  -0.74365  0  2.053556  0  0  -0.679733  0  2.290769  0  0  -0.716817  0  2.276115  0  0  -0.38357  -0.660861  0  2.29846  0
O  O73  1  0.16480720  0.57916551  0.32390564  1  0  -0.743628  0  2.053608  0  0  -0.679675  0  2.29092  0  0  -0.716759  0  2.276264  0  0  -0.383535  -0.660801  0  2.298608  0
O  O74  1  0.33519224  0.07916722  0.82390682  1  0  -0.743616  0  2.053478  0  0  -0.679686  0  2.290762  0  0  -0.716769  0  2.276107  0  0  -0.383535  -0.66081  0  2.298457  0
O  O75  1  0.83519540  0.42083325  0.67609184  1  0  -0.743659  0  2.053545  0  0  -0.679703  0  2.290784  0  0  -0.716792  0  2.27613  0  0  -0.383545  -0.660833  0  2.298474  0
O  O76  1  0.66889792  0.11381385  0.07490444  1  0  -0.759524  0  2.135836  0  0  -0.710034  0  2.394073  0  0  -0.7497  0  2.381988  0  0  -0.391313  -0.692076  0  2.401427  0
O  O77  1  0.16889778  0.38618673  0.42509485  1  0  -0.759564  0  2.135774  0  0  -0.710005  0  2.394091  0  0  -0.749681  0  2.382006  0  0  -0.391306  -0.692055  0  2.401447  0
O  O78  1  0.33110095  0.88618490  0.92509385  1  0  -0.75956  0  2.135752  0  0  -0.710027  0  2.39404  0  0  -0.749693  0  2.381954  0  0  -0.391283  -0.69206  0  2.40139  0
O  O79  1  0.83110358  0.61381518  0.57490595  1  0  -0.759539  0  2.13582  0  0  -0.710027  0  2.39411  0  0  -0.749694  0  2.382025  0  0  -0.391322  -0.692072  0  2.401472  0
O  O80  1  0.64564953  0.74334677  0.40237467  1  0  -0.669308  0  1.982856  0  0  -0.609261  0  2.20287  0  0  -0.641848  0  2.191539  0  0  -0.348051  -0.592072  0  2.209753  0
O  O81  1  0.14564869  0.75665550  0.09762417  1  0  -0.669209  0  1.982865  0  0  -0.609167  0  2.202861  0  0  -0.641749  0  2.191532  0  0  -0.348009  -0.59198  0  2.209749  0
O  O82  1  0.35434560  0.25665303  0.59762446  1  0  -0.669252  0  1.982944  0  0  -0.609188  0  2.202964  0  0  -0.641778  0  2.191636  0  0  -0.348006  -0.592002  0  2.209859  0
O  O83  1  0.85435391  0.24334535  0.90237743  1  0  -0.669234  0  1.982839  0  0  -0.609204  0  2.202853  0  0  -0.641787  0  2.191522  0  0  -0.34802  -0.592016  0  2.209736  0
O  O84  1  0.80274980  0.90285440  0.48751974  1  0  -0.696082  0  1.992214  0  0  -0.635163  0  2.225581  0  0  -0.669956  0  2.214129  0  0  -0.350864  -0.617222  0  2.232829  0
O  O85  1  0.30274864  0.59714486  0.01248077  1  0  -0.695992  0  1.992222  0  0  -0.635102  0  2.225597  0  0  -0.669896  0  2.21415  0  0  -0.350842  -0.617164  0  2.232858  0
O  O86  1  0.19724782  0.09714329  0.51248261  1  0  -0.69605  0  1.992223  0  0  -0.635129  0  2.225618  0  0  -0.669929  0  2.214171  0  0  -0.350879  -0.617174  0  2.232859  0
O  O87  1  0.69725023  0.40285389  0.98751997  1  0  -0.69605  0  1.992221  0  0  -0.635143  0  2.225589  0  0  -0.669935  0  2.21414  0  0  -0.350852  -0.617205  0  2.232849  0
