# generated using pymatgen
data_ZnH20C34(SN5)2
_symmetry_space_group_name_H-M   'P 1'
_cell_length_a   8.37949592
_cell_length_b   13.38344868
_cell_length_c   13.38344367
_cell_angle_alpha   107.37449907
_cell_angle_beta   90.00005942
_cell_angle_gamma   90.00007488
_symmetry_Int_Tables_number   1
_chemical_formula_structural   ZnH20C34(SN5)2
_chemical_formula_sum   'Zn2 H40 C68 S4 N20'
_cell_volume   1432.42569019
_cell_formula_units_Z   2
loop_
 _symmetry_equiv_pos_site_id
 _symmetry_equiv_pos_as_xyz
  1  'x, y, z'
loop_
 _atom_site_type_symbol
 _atom_site_label
 _atom_site_symmetry_multiplicity
 _atom_site_fract_x
 _atom_site_fract_y
 _atom_site_fract_z
 _atom_site_occupancy
 _atom_site_hle17_bader_spin_density
 _atom_site_hle17_ddec_charge
 _atom_site_hle17_ddec_spin_density
 _atom_site_hle17_ddec_sum_bond_order
 _atom_site_hle17_magmom
 _atom_site_hse06_10hf_bader_spin_density
 _atom_site_hse06_10hf_ddec_charge
 _atom_site_hse06_10hf_ddec_spin_density
 _atom_site_hse06_10hf_ddec_sum_bond_order
 _atom_site_hse06_10hf_magmom
 _atom_site_hse06_bader_spin_density
 _atom_site_hse06_ddec_charge
 _atom_site_hse06_ddec_spin_density
 _atom_site_hse06_ddec_sum_bond_order
 _atom_site_hse06_magmom
 _atom_site_pbe_bader_spin_density
 _atom_site_pbe_cm5_charge
 _atom_site_pbe_ddec_charge
 _atom_site_pbe_ddec_spin_density
 _atom_site_pbe_ddec_sum_bond_order
 _atom_site_pbe_magmom
Zn  Zn0  1  0.00000023  0.50000081  0.49999985  1  0  0.896229  0  2.031801  0  0  0.70285  0  2.481541  0  0  0.746034  0  2.440787  0  0  0.700627  0.673421  0  2.508784  0
Zn  Zn1  1  0.50000010  0.99999979  0.00000013  1  0  0.896187  0  2.031819  0  0  0.702817  0  2.481547  0  0  0.746002  0  2.440794  0  0  0.700632  0.673388  0  2.508795  0
H  H2  1  0.38872938  0.66656584  0.05499524  1  0  0.112178  0  0.960365  0  0  0.117165  0  1.029367  0  0  0.121613  0  1.026805  0  0  0.106254  0.113997  0  1.031322  0
H  H3  1  0.11126994  0.55499569  0.16656684  1  0  0.112196  0  0.960334  0  0  0.117193  0  1.029322  0  0  0.121644  0  1.026763  0  0  0.106264  0.114025  0  1.03128  0
H  H4  1  0.88872892  0.83343386  0.44500440  1  0  0.112169  0  0.96039  0  0  0.117167  0  1.029374  0  0  0.121617  0  1.026816  0  0  0.106248  0.113998  0  1.031331  0
H  H5  1  0.61127073  0.94500449  0.33343351  1  0  0.112187  0  0.960378  0  0  0.117184  0  1.029364  0  0  0.121635  0  1.026805  0  0  0.106255  0.114015  0  1.031322  0
H  H6  1  0.61127060  0.33343367  0.94500425  1  0  0.11216  0  0.960367  0  0  0.117157  0  1.029358  0  0  0.121608  0  1.026797  0  0  0.106245  0.113988  0  1.031314  0
H  H7  1  0.88872765  0.44500461  0.83343363  1  0  0.112155  0  0.960347  0  0  0.11714  0  1.029356  0  0  0.121591  0  1.026795  0  0  0.106255  0.113972  0  1.031312  0
H  H8  1  0.11127105  0.16656644  0.55499607  1  0  0.112175  0  0.960379  0  0  0.117174  0  1.029363  0  0  0.121624  0  1.026801  0  0  0.10625  0.114005  0  1.031319  0
H  H9  1  0.38872805  0.05499580  0.66656472  1  0  0.112184  0  0.960356  0  0  0.11717  0  1.029357  0  0  0.121621  0  1.026796  0  0  0.106235  0.114  0  1.031316  0
H  H10  1  0.20955944  0.70046588  0.91508614  1  0  0.098712  0  0.968586  0  0  0.108016  0  1.033292  0  0  0.110225  0  1.032489  0  0  0.103655  0.106322  0  1.033968  0
H  H11  1  0.29044051  0.41508555  0.20046494  1  0  0.098733  0  0.968561  0  0  0.108036  0  1.033262  0  0  0.110233  0  1.032488  0  0  0.103659  0.106342  0  1.03394  0
H  H12  1  0.70955832  0.79953463  0.58491440  1  0  0.098716  0  0.968552  0  0  0.108019  0  1.033263  0  0  0.110217  0  1.032487  0  0  0.103649  0.106325  0  1.033939  0
H  H13  1  0.79044048  0.08491374  0.29953374  1  0  0.098718  0  0.968565  0  0  0.10802  0  1.033277  0  0  0.110221  0  1.032494  0  0  0.10365  0.106327  0  1.033952  0
H  H14  1  0.79043934  0.29953442  0.08491508  1  0  0.098711  0  0.968594  0  0  0.108012  0  1.033306  0  0  0.110214  0  1.032517  0  0  0.103646  0.106317  0  1.033984  0
H  H15  1  0.70955947  0.58491474  0.79953403  1  0  0.098717  0  0.968572  0  0  0.108018  0  1.033284  0  0  0.110217  0  1.032509  0  0  0.103649  0.106325  0  1.03396  0
H  H16  1  0.29044046  0.20046488  0.41508584  1  0  0.098732  0  0.968561  0  0  0.108034  0  1.033266  0  0  0.110232  0  1.032493  0  0  0.103655  0.106341  0  1.033943  0
H  H17  1  0.20956068  0.91508577  0.70046501  1  0  0.098736  0  0.968578  0  0  0.108037  0  1.033281  0  0  0.110234  0  1.032509  0  0  0.103654  0.106343  0  1.033958  0
H  H18  1  0.09214404  0.63039088  0.73413747  1  0  0.076566  0  0.972921  0  0  0.079026  0  1.0513  0  0  0.081514  0  1.048875  0  0  0.107923  0.077139  0  1.053106  0
H  H19  1  0.40785663  0.23413785  0.13039194  1  0  0.076552  0  0.972918  0  0  0.079036  0  1.051263  0  0  0.081524  0  1.048837  0  0  0.107925  0.077148  0  1.05307  0
H  H20  1  0.59214217  0.86960793  0.76586175  1  0  0.07655  0  0.972939  0  0  0.079028  0  1.051287  0  0  0.081516  0  1.04886  0  0  0.107916  0.077139  0  1.053095  0
H  H21  1  0.90785591  0.26586236  0.36960858  1  0  0.076543  0  0.97296  0  0  0.079017  0  1.051312  0  0  0.081504  0  1.048886  0  0  0.107918  0.07713  0  1.053117  0
H  H22  1  0.90785593  0.36960863  0.26586277  1  0  0.076565  0  0.97293  0  0  0.079018  0  1.051313  0  0  0.081505  0  1.048889  0  0  0.107914  0.077128  0  1.053122  0
H  H23  1  0.59214454  0.76586245  0.86960928  1  0  0.07658  0  0.97291  0  0  0.079035  0  1.051282  0  0  0.081521  0  1.048858  0  0  0.107925  0.077147  0  1.053089  0
H  H24  1  0.40785661  0.13039158  0.23413775  1  0  0.076561  0  0.972924  0  0  0.079047  0  1.051276  0  0  0.081536  0  1.048848  0  0  0.107925  0.07716  0  1.05308  0
H  H25  1  0.09214645  0.73413716  0.63039241  1  0  0.07659  0  0.972903  0  0  0.07905  0  1.051263  0  0  0.081538  0  1.048836  0  0  0.107925  0.077162  0  1.053073  0
H  H26  1  0.19575124  0.33009940  0.54900043  1  0  0.075358  0  0.976324  0  0  0.08448  0  1.041026  0  0  0.085917  0  1.040763  0  0  0.112783  0.083438  0  1.041218  0
H  H27  1  0.30424458  0.04899963  0.83010024  1  0  0.075363  0  0.976316  0  0  0.084485  0  1.041022  0  0  0.085923  0  1.040759  0  0  0.11278  0.083449  0  1.0412  0
H  H28  1  0.69575403  0.16989923  0.95099951  1  0  0.07537  0  0.976307  0  0  0.084492  0  1.041012  0  0  0.085928  0  1.04075  0  0  0.112779  0.083451  0  1.041202  0
H  H29  1  0.80424511  0.45099990  0.66989929  1  0  0.075308  0  0.976338  0  0  0.084432  0  1.041042  0  0  0.085871  0  1.040777  0  0  0.112764  0.083392  0  1.041232  0
H  H30  1  0.80424516  0.66989933  0.45100032  1  0  0.075395  0  0.97635  0  0  0.084515  0  1.04106  0  0  0.085951  0  1.040798  0  0  0.11279  0.083474  0  1.041249  0
H  H31  1  0.69575421  0.95099988  0.16990000  1  0  0.075383  0  0.976324  0  0  0.084508  0  1.041021  0  0  0.085944  0  1.040759  0  0  0.112785  0.083466  0  1.041212  0
H  H32  1  0.30424594  0.83010027  0.04899998  1  0  0.07538  0  0.976359  0  0  0.084503  0  1.04106  0  0  0.085938  0  1.040799  0  0  0.112786  0.083462  0  1.04125  0
H  H33  1  0.19575367  0.54900117  0.33010066  1  0  0.075383  0  0.976346  0  0  0.084504  0  1.041046  0  0  0.08594  0  1.040784  0  0  0.11278  0.083461  0  1.041237  0
H  H34  1  0.36507534  0.29238258  0.68770127  1  0  0.120082  0  0.947776  0  0  0.128348  0  1.010871  0  0  0.13231  0  1.008542  0  0  0.11015  0.125515  0  1.012639  0
H  H35  1  0.13492186  0.18770067  0.79238140  1  0  0.120049  0  0.947823  0  0  0.128338  0  1.010912  0  0  0.1323  0  1.00858  0  0  0.110145  0.125493  0  1.012692  0
H  H36  1  0.86507679  0.20761858  0.81229879  1  0  0.120098  0  0.947772  0  0  0.128371  0  1.010869  0  0  0.132334  0  1.008538  0  0  0.110169  0.125525  0  1.012652  0
H  H37  1  0.63492335  0.31229868  0.70761721  1  0  0.120078  0  0.947783  0  0  0.128344  0  1.010881  0  0  0.132308  0  1.008549  0  0  0.110156  0.125513  0  1.012648  0
H  H38  1  0.63492225  0.70761849  0.31229944  1  0  0.120071  0  0.947811  0  0  0.128357  0  1.010897  0  0  0.13232  0  1.008566  0  0  0.110166  0.125512  0  1.012679  0
H  H39  1  0.86507693  0.81229963  0.20761832  1  0  0.120069  0  0.94781  0  0  0.128354  0  1.010895  0  0  0.132318  0  1.008563  0  0  0.110144  0.125509  0  1.012676  0
H  H40  1  0.13492199  0.79238092  0.18769996  1  0  0.120057  0  0.94782  0  0  0.128338  0  1.010912  0  0  0.1323  0  1.008582  0  0  0.110153  0.125494  0  1.012692  0
H  H41  1  0.36507782  0.68770005  0.29238130  1  0  0.12006  0  0.947804  0  0  0.128318  0  1.010923  0  0  0.132279  0  1.008594  0  0  0.110146  0.125486  0  1.012688  0
C  C42  1  0.28891426  0.37550615  0.37550605  1  0  0.280219  0  4.076413  0  0  0.26279  0  4.380872  0  0  0.286643  0  4.391828  0  0  0.134925  0.24671  0  4.372722  0
C  C43  1  0.21108952  0.87550872  0.87550830  1  0  0.280409  0  4.076606  0  0  0.262985  0  4.381037  0  0  0.286835  0  4.39199  0  0  0.135009  0.246905  0  4.372896  0
C  C44  1  0.78890926  0.12449393  0.12449361  1  0  0.280578  0  4.0765  0  0  0.263165  0  4.380916  0  0  0.287017  0  4.39186  0  0  0.135106  0.247086  0  4.372773  0
C  C45  1  0.71109764  0.62449257  0.62449172  1  0  0.280672  0  4.076599  0  0  0.263255  0  4.380998  0  0  0.287106  0  4.39194  0  0  0.135218  0.247177  0  4.372855  0
C  C46  1  0.44729076  0.51004137  0.95929397  1  0  0.195036  0  3.754236  0  0  0.194796  0  3.99794  0  0  0.203231  0  4.015185  0  0  0.132168  0.189352  0  3.98596  0
C  C47  1  0.05270652  0.45929180  0.01004118  1  0  0.195061  0  3.754236  0  0  0.194862  0  3.997897  0  0  0.203266  0  4.015177  0  0  0.132213  0.189417  0  3.985917  0
C  C48  1  0.94729116  0.98995783  0.54070559  1  0  0.195106  0  3.754218  0  0  0.194911  0  3.997888  0  0  0.203319  0  4.01515  0  0  0.132259  0.189465  0  3.985905  0
C  C49  1  0.55271031  0.04070644  0.48995778  1  0  0.195054  0  3.754316  0  0  0.194859  0  3.99797  0  0  0.203258  0  4.015246  0  0  0.132207  0.189413  0  3.98599  0
C  C50  1  0.55270802  0.48995815  0.04070777  1  0  0.195012  0  3.754275  0  0  0.194856  0  3.997896  0  0  0.203231  0  4.015202  0  0  0.132237  0.189412  0  3.985915  0
C  C51  1  0.94728987  0.54070692  0.98995808  1  0  0.195051  0  3.754266  0  0  0.194851  0  3.997923  0  0  0.203261  0  4.015182  0  0  0.132207  0.189407  0  3.985944  0
C  C52  1  0.05270881  0.01004167  0.45929166  1  0  0.195037  0  3.754279  0  0  0.194832  0  3.997944  0  0  0.203236  0  4.015222  0  0  0.13219  0.189385  0  3.985963  0
C  C53  1  0.44729206  0.95929306  0.51004096  1  0  0.195064  0  3.7542  0  0  0.194867  0  3.99785  0  0  0.203276  0  4.015128  0  0  0.132216  0.189422  0  3.985874  0
C  C54  1  0.36910718  0.60846509  0.97949045  1  0  -0.145046  0  3.700177  0  0  -0.166158  0  3.955658  0  0  -0.174233  0  3.976097  0  0  -0.083841  -0.160962  0  3.941877  0
C  C55  1  0.13089629  0.47949152  0.10846506  1  0  -0.145079  0  3.700172  0  0  -0.166211  0  3.955626  0  0  -0.174284  0  3.976079  0  0  -0.083887  -0.161014  0  3.941844  0
C  C56  1  0.86910376  0.89153325  0.52050805  1  0  -0.145018  0  3.700196  0  0  -0.16615  0  3.955653  0  0  -0.174221  0  3.976106  0  0  -0.083861  -0.160952  0  3.941868  0
C  C57  1  0.63089390  0.02050838  0.39153444  1  0  -0.14502  0  3.700201  0  0  -0.166153  0  3.955658  0  0  -0.174222  0  3.976112  0  0  -0.083843  -0.160956  0  3.941875  0
C  C58  1  0.63089757  0.39153442  0.02050829  1  0  -0.144999  0  3.700238  0  0  -0.166137  0  3.955683  0  0  -0.174203  0  3.976144  0  0  -0.083867  -0.16094  0  3.9419  0
C  C59  1  0.86910249  0.52050799  0.89153369  1  0  -0.144989  0  3.700178  0  0  -0.166111  0  3.955636  0  0  -0.174181  0  3.976088  0  0  -0.083868  -0.160915  0  3.941854  0
C  C60  1  0.13089741  0.10846548  0.47949270  1  0  -0.14502  0  3.700187  0  0  -0.166155  0  3.95565  0  0  -0.174226  0  3.976098  0  0  -0.083859  -0.160957  0  3.941866  0
C  C61  1  0.36910488  0.97949191  0.60846603  1  0  -0.14506  0  3.70015  0  0  -0.166185  0  3.955604  0  0  -0.174256  0  3.976054  0  0  -0.083866  -0.160987  0  3.941824  0
C  C62  1  0.27302141  0.62670102  0.90366161  1  0  -0.022155  0  3.688732  0  0  -0.047494  0  3.936374  0  0  -0.044308  0  3.955569  0  0  -0.061422  -0.049189  0  3.92331  0
C  C63  1  0.22697480  0.40366046  0.12670213  1  0  -0.022198  0  3.68872  0  0  -0.0475  0  3.936391  0  0  -0.044314  0  3.95558  0  0  -0.061407  -0.049197  0  3.923328  0
C  C64  1  0.77302165  0.87329879  0.59633950  1  0  -0.022168  0  3.688783  0  0  -0.04753  0  3.93643  0  0  -0.044345  0  3.955618  0  0  -0.061429  -0.049224  0  3.923366  0
C  C65  1  0.72697970  0.09633955  0.37329971  1  0  -0.022178  0  3.688752  0  0  -0.047543  0  3.936385  0  0  -0.04436  0  3.955575  0  0  -0.061444  -0.04924  0  3.923322  0
C  C66  1  0.72697499  0.37329772  0.09633914  1  0  -0.022178  0  3.688785  0  0  -0.047519  0  3.936431  0  0  -0.044335  0  3.955624  0  0  -0.061405  -0.049215  0  3.923367  0
C  C67  1  0.77302159  0.59633983  0.87329834  1  0  -0.022181  0  3.688747  0  0  -0.047525  0  3.936394  0  0  -0.044342  0  3.955583  0  0  -0.061425  -0.049221  0  3.923331  0
C  C68  1  0.22697713  0.12670151  0.40366097  1  0  -0.022159  0  3.688691  0  0  -0.047511  0  3.936329  0  0  -0.044323  0  3.955513  0  0  -0.061417  -0.049208  0  3.923265  0
C  C69  1  0.27302385  0.90366075  0.62670151  1  0  -0.022215  0  3.688696  0  0  -0.047498  0  3.93637  0  0  -0.044316  0  3.95556  0  0  -0.0614  -0.049196  0  3.92331  0
C  C70  1  0.15796295  0.55765690  0.72495607  1  0  0.122788  0  3.649379  0  0  0.086336  0  3.898712  0  0  0.095465  0  3.913866  0  0  0.064757  0.080638  0  3.888271  0
C  C71  1  0.34203637  0.22495566  0.05765625  1  0  0.122662  0  3.649222  0  0  0.086249  0  3.898571  0  0  0.095378  0  3.913725  0  0  0.064707  0.080551  0  3.888131  0
C  C72  1  0.65796245  0.94234277  0.77504344  1  0  0.122781  0  3.649389  0  0  0.086341  0  3.898663  0  0  0.095473  0  3.913814  0  0  0.064775  0.080644  0  3.888225  0
C  C73  1  0.84203818  0.27504447  0.44234271  1  0  0.122838  0  3.649407  0  0  0.086378  0  3.898682  0  0  0.095511  0  3.913829  0  0  0.064794  0.080681  0  3.888242  0
C  C74  1  0.84203583  0.44234261  0.27504417  1  0  0.122725  0  3.649429  0  0  0.086299  0  3.898727  0  0  0.095427  0  3.913883  0  0  0.064745  0.080604  0  3.888286  0
C  C75  1  0.65796360  0.77504385  0.94234324  1  0  0.122767  0  3.649393  0  0  0.086344  0  3.898694  0  0  0.095476  0  3.913847  0  0  0.064756  0.080647  0  3.888255  0
C  C76  1  0.34203753  0.05765674  0.22495605  1  0  0.122789  0  3.649256  0  0  0.0863  0  3.898593  0  0  0.095431  0  3.913744  0  0  0.064779  0.080603  0  3.888153  0
C  C77  1  0.15796657  0.72495661  0.55765799  1  0  0.12269  0  3.649302  0  0  0.086301  0  3.898673  0  0  0.095431  0  3.913826  0  0  0.064717  0.080601  0  3.888235  0
C  C78  1  0.21588861  0.38879025  0.62396951  1  0  0.119892  0  3.713441  0  0  0.088416  0  3.965052  0  0  0.0938  0  3.985738  0  0  0.034796  0.084768  0  3.951435  0
C  C79  1  0.28411103  0.12397043  0.88878887  1  0  0.119872  0  3.713326  0  0  0.088406  0  3.964954  0  0  0.093785  0  3.985649  0  0  0.034803  0.084761  0  3.951333  0
C  C80  1  0.71588758  0.11120997  0.87603016  1  0  0.119885  0  3.713414  0  0  0.088411  0  3.965036  0  0  0.093796  0  3.985722  0  0  0.03481  0.084761  0  3.951419  0
C  C81  1  0.78410892  0.37602986  0.61120938  1  0  0.119975  0  3.713424  0  0  0.088517  0  3.96501  0  0  0.093885  0  3.985724  0  0  0.034837  0.084868  0  3.951398  0
C  C82  1  0.78411017  0.61121004  0.37603170  1  0  0.119815  0  3.713449  0  0  0.088332  0  3.965088  0  0  0.093722  0  3.985764  0  0  0.034775  0.084681  0  3.951471  0
C  C83  1  0.71589013  0.87603064  0.11121034  1  0  0.119855  0  3.713431  0  0  0.088383  0  3.965054  0  0  0.093766  0  3.985746  0  0  0.034799  0.084731  0  3.951442  0
C  C84  1  0.28411120  0.88878876  0.12396910  1  0  0.119847  0  3.713442  0  0  0.088364  0  3.965068  0  0  0.09375  0  3.985753  0  0  0.03479  0.084716  0  3.951449  0
C  C85  1  0.21589105  0.62396887  0.38878988  1  0  0.119833  0  3.71347  0  0  0.088349  0  3.965101  0  0  0.093737  0  3.98578  0  0  0.034779  0.0847  0  3.951487  0
C  C86  1  0.30978332  0.36878453  0.69996660  1  0  -0.181774  0  3.690224  0  0  -0.200591  0  3.943337  0  0  -0.208619  0  3.963738  0  0  -0.08027  -0.195286  0  3.929537  0
C  C87  1  0.19021643  0.19996659  0.86878258  1  0  -0.181634  0  3.690063  0  0  -0.200483  0  3.943154  0  0  -0.208509  0  3.963554  0  0  -0.080186  -0.195171  0  3.929358  0
C  C88  1  0.80978221  0.13121579  0.80003317  1  0  -0.181767  0  3.690152  0  0  -0.200595  0  3.94327  0  0  -0.208624  0  3.963671  0  0  -0.080274  -0.195279  0  3.929476  0
C  C89  1  0.69021658  0.30003281  0.63121535  1  0  -0.181809  0  3.690143  0  0  -0.20063  0  3.943281  0  0  -0.208653  0  3.963675  0  0  -0.080314  -0.195333  0  3.929476  0
C  C90  1  0.69021785  0.63121655  0.30003410  1  0  -0.181631  0  3.690049  0  0  -0.200467  0  3.943152  0  0  -0.208499  0  3.963556  0  0  -0.080205  -0.195145  0  3.929363  0
C  C91  1  0.80978235  0.80003370  0.13121715  1  0  -0.181674  0  3.690058  0  0  -0.200517  0  3.943172  0  0  -0.208545  0  3.963573  0  0  -0.080221  -0.195203  0  3.929374  0
C  C92  1  0.19021777  0.86878293  0.19996610  1  0  -0.181648  0  3.690065  0  0  -0.200489  0  3.943179  0  0  -0.208517  0  3.963581  0  0  -0.080216  -0.195173  0  3.929385  0
C  C93  1  0.30978578  0.69996591  0.36878391  1  0  -0.181633  0  3.690089  0  0  -0.200461  0  3.943198  0  0  -0.208489  0  3.963602  0  0  -0.080203  -0.195159  0  3.929391  0
C  C94  1  0.33478857  0.44938755  0.79499289  1  0  0.236295  0  3.795628  0  0  0.230774  0  4.041809  0  0  0.239607  0  4.061035  0  0  0.120136  0.2251  0  4.02864  0
C  C95  1  0.16520912  0.29499334  0.94938747  1  0  0.236135  0  3.79564  0  0  0.230676  0  4.041834  0  0  0.23951  0  4.061058  0  0  0.120081  0.225012  0  4.028651  0
C  C96  1  0.83478951  0.05061201  0.70500667  1  0  0.236372  0  3.795555  0  0  0.230829  0  4.041738  0  0  0.239664  0  4.060962  0  0  0.120146  0.22516  0  4.028562  0
C  C97  1  0.66521252  0.20500604  0.55061267  1  0  0.236351  0  3.795592  0  0  0.230775  0  4.041815  0  0  0.239609  0  4.061035  0  0  0.120148  0.22512  0  4.028619  0
C  C98  1  0.66521379  0.55061352  0.20500706  1  0  0.236213  0  3.795531  0  0  0.230684  0  4.04176  0  0  0.239521  0  4.060979  0  0  0.120061  0.22499  0  4.028616  0
C  C99  1  0.83478847  0.70500696  0.05061300  1  0  0.236232  0  3.795541  0  0  0.23071  0  4.041746  0  0  0.239541  0  4.060974  0  0  0.120089  0.225045  0  4.028564  0
C  C100  1  0.16521165  0.94938671  0.29499334  1  0  0.236219  0  3.795633  0  0  0.230685  0  4.041834  0  0  0.239521  0  4.061057  0  0  0.120087  0.225011  0  4.028663  0
C  C101  1  0.33479103  0.79499268  0.44938734  1  0  0.236133  0  3.795661  0  0  0.230692  0  4.041851  0  0  0.239525  0  4.061078  0  0  0.120083  0.225028  0  4.028668  0
C  C102  1  0.25412989  0.54643125  0.80786765  1  0  -0.037728  0  3.779382  0  0  -0.015973  0  4.003783  0  0  -0.023417  0  4.028266  0  0  -0.003506  -0.011727  0  3.988011  0
C  C103  1  0.24586718  0.30786631  0.04642972  1  0  -0.03761  0  3.779238  0  0  -0.015987  0  4.003792  0  0  -0.023432  0  4.028274  0  0  -0.003516  -0.011741  0  3.988018  0
C  C104  1  0.75413047  0.95356853  0.69213195  1  0  -0.037812  0  3.779529  0  0  -0.01601  0  4.003856  0  0  -0.02346  0  4.028347  0  0  -0.003523  -0.011766  0  3.988085  0
C  C105  1  0.74587002  0.19213372  0.45356915  1  0  -0.037808  0  3.779435  0  0  -0.01598  0  4.003747  0  0  -0.023425  0  4.028235  0  0  -0.00352  -0.011738  0  3.987972  0
C  C106  1  0.74586889  0.45356905  0.19213282  1  0  -0.037698  0  3.779335  0  0  -0.015945  0  4.003739  0  0  -0.023381  0  4.028203  0  0  -0.003498  -0.011694  0  3.987973  0
C  C107  1  0.75413160  0.69213320  0.95356902  1  0  -0.037723  0  3.779395  0  0  -0.015974  0  4.003787  0  0  -0.023416  0  4.028267  0  0  -0.003503  -0.01173  0  3.988014  0
C  C108  1  0.24586951  0.04643020  0.30786731  1  0  -0.037831  0  3.779412  0  0  -0.016036  0  4.003771  0  0  -0.023489  0  4.028267  0  0  -0.003568  -0.01179  0  3.988  0
C  C109  1  0.25413353  0.80786814  0.54643029  1  0  -0.03758  0  3.779158  0  0  -0.016011  0  4.003785  0  0  -0.023452  0  4.028264  0  0  -0.003517  -0.011764  0  3.988009  0
S  S110  1  0.47402797  0.34781957  0.34781921  1  0  -0.339408  0  2.007643  0  0  -0.325016  0  2.29093  0  0  -0.340419  0  2.290077  0  0  -0.167917  -0.313843  0  2.290994  0
S  S111  1  0.02596616  0.84782036  0.84781932  1  0  -0.339536  0  2.007506  0  0  -0.325137  0  2.290756  0  0  -0.340546  0  2.289901  0  0  -0.167938  -0.313961  0  2.290823  0
S  S112  1  0.97403382  0.15218150  0.15218161  1  0  -0.339564  0  2.007445  0  0  -0.325168  0  2.290696  0  0  -0.340577  0  2.28984  0  0  -0.167933  -0.313991  0  2.29076  0
S  S113  1  0.52596961  0.65218229  0.65218098  1  0  -0.339694  0  2.007324  0  0  -0.325292  0  2.290562  0  0  -0.340702  0  2.289705  0  0  -0.168035  -0.314114  0  2.290629  0
N  N114  1  0.15122463  0.39477197  0.39477197  1  0  -0.576512  0  2.949707  0  0  -0.519487  0  3.242901  0  0  -0.540473  0  3.245756  0  0  -0.408143  -0.505018  0  3.240554  0
N  N115  1  0.34876251  0.89477234  0.89477292  1  0  -0.576605  0  2.950014  0  0  -0.519596  0  3.243222  0  0  -0.540577  0  3.246071  0  0  -0.40825  -0.505134  0  3.240886  0
N  N116  1  0.65123985  0.10522717  0.10522732  1  0  -0.576727  0  2.94993  0  0  -0.51973  0  3.243154  0  0  -0.54071  0  3.245996  0  0  -0.408355  -0.505266  0  3.240818  0
N  N117  1  0.84876221  0.60523068  0.60522994  1  0  -0.576739  0  2.950218  0  0  -0.519741  0  3.243436  0  0  -0.540717  0  3.246278  0  0  -0.408378  -0.505278  0  3.241098  0
N  N118  1  0.43147104  0.43277949  0.87015805  1  0  -0.37278  0  3.014957  0  0  -0.342505  0  3.2771  0  0  -0.354771  0  3.290251  0  0  -0.306098  -0.334133  0  3.267908  0
N  N119  1  0.06852437  0.37015669  0.93277806  1  0  -0.372786  0  3.015025  0  0  -0.342518  0  3.277131  0  0  -0.354778  0  3.290294  0  0  -0.306102  -0.334148  0  3.267937  0
N  N120  1  0.93147309  0.06722018  0.62984160  1  0  -0.372901  0  3.014858  0  0  -0.342639  0  3.277011  0  0  -0.354897  0  3.290171  0  0  -0.306158  -0.334267  0  3.267815  0
N  N121  1  0.56852884  0.12984179  0.56722027  1  0  -0.37287  0  3.014982  0  0  -0.34259  0  3.277127  0  0  -0.354848  0  3.290295  0  0  -0.306137  -0.334222  0  3.267929  0
N  N122  1  0.56852655  0.56722080  0.12984242  1  0  -0.372829  0  3.014966  0  0  -0.342569  0  3.277089  0  0  -0.354822  0  3.290257  0  0  -0.306132  -0.33419  0  3.267904  0
N  N123  1  0.93147321  0.62984281  0.06722069  1  0  -0.372824  0  3.014959  0  0  -0.342554  0  3.277094  0  0  -0.354814  0  3.290258  0  0  -0.306103  -0.334182  0  3.267898  0
N  N124  1  0.06852450  0.93277932  0.37015639  1  0  -0.372833  0  3.014997  0  0  -0.342553  0  3.277111  0  0  -0.354812  0  3.290272  0  0  -0.306123  -0.334178  0  3.267918  0
N  N125  1  0.43147591  0.87015693  0.43277900  1  0  -0.37277  0  3.014994  0  0  -0.342503  0  3.277095  0  0  -0.354762  0  3.290257  0  0  -0.306083  -0.334133  0  3.267904  0
N  N126  1  0.14161098  0.48224392  0.63528520  1  0  -0.303593  0  3.259625  0  0  -0.229483  0  3.522582  0  0  -0.247683  0  3.540979  0  0  -0.312068  -0.217244  0  3.509805  0
N  N127  1  0.35838886  0.13528509  0.98224212  1  0  -0.303507  0  3.259462  0  0  -0.229409  0  3.522412  0  0  -0.247609  0  3.540809  0  0  -0.312047  -0.217171  0  3.509638  0
N  N128  1  0.64161093  0.01775700  0.86471538  1  0  -0.303554  0  3.259559  0  0  -0.229466  0  3.522521  0  0  -0.247665  0  3.540913  0  0  -0.312053  -0.217226  0  3.509745  0
N  N129  1  0.85838777  0.36471528  0.51775546  1  0  -0.3036  0  3.259686  0  0  -0.229505  0  3.522645  0  0  -0.2477  0  3.541035  0  0  -0.312054  -0.217266  0  3.509866  0
N  N130  1  0.85838661  0.51775638  0.36471602  1  0  -0.303549  0  3.259595  0  0  -0.22944  0  3.522532  0  0  -0.247644  0  3.540937  0  0  -0.312046  -0.217199  0  3.509754  0
N  N131  1  0.64161231  0.86471520  0.01775611  1  0  -0.303576  0  3.25965  0  0  -0.22948  0  3.522597  0  0  -0.247681  0  3.540991  0  0  -0.312048  -0.21724  0  3.50982  0
N  N132  1  0.35838785  0.98224329  0.13528434  1  0  -0.303507  0  3.259487  0  0  -0.229381  0  3.522428  0  0  -0.247583  0  3.540827  0  0  -0.312022  -0.217138  0  3.509649  0
N  N133  1  0.14161459  0.63528423  0.48224404  1  0  -0.303578  0  3.259658  0  0  -0.229444  0  3.522569  0  0  -0.247645  0  3.540968  0  0  -0.312028  -0.217204  0  3.509794  0
