# generated using pymatgen
data_CdH24C22(NO2)4
_symmetry_space_group_name_H-M   'P 1'
_cell_length_a   9.49980580
_cell_length_b   10.97465535
_cell_length_c   12.77996554
_cell_angle_alpha   109.20219332
_cell_angle_beta   111.79960030
_cell_angle_gamma   90.00014924
_symmetry_Int_Tables_number   1
_chemical_formula_structural   CdH24C22(NO2)4
_chemical_formula_sum   'Cd2 H48 C44 N8 O16'
_cell_volume   1156.90029714
_cell_formula_units_Z   2
loop_
 _symmetry_equiv_pos_site_id
 _symmetry_equiv_pos_as_xyz
  1  'x, y, z'
loop_
 _atom_site_type_symbol
 _atom_site_label
 _atom_site_symmetry_multiplicity
 _atom_site_fract_x
 _atom_site_fract_y
 _atom_site_fract_z
 _atom_site_occupancy
 _atom_site_hle17_bader_spin_density
 _atom_site_hle17_ddec_charge
 _atom_site_hle17_ddec_spin_density
 _atom_site_hle17_ddec_sum_bond_order
 _atom_site_hle17_magmom
 _atom_site_hse06_10hf_bader_spin_density
 _atom_site_hse06_10hf_ddec_charge
 _atom_site_hse06_10hf_ddec_spin_density
 _atom_site_hse06_10hf_ddec_sum_bond_order
 _atom_site_hse06_10hf_magmom
 _atom_site_hse06_bader_spin_density
 _atom_site_hse06_ddec_charge
 _atom_site_hse06_ddec_spin_density
 _atom_site_hse06_ddec_sum_bond_order
 _atom_site_hse06_magmom
 _atom_site_pbe_bader_spin_density
 _atom_site_pbe_cm5_charge
 _atom_site_pbe_ddec_charge
 _atom_site_pbe_ddec_spin_density
 _atom_site_pbe_ddec_sum_bond_order
 _atom_site_pbe_magmom
Cd  Cd0  1  0.99999932  0.00000144  0.00000138  1  0  1.188866  0  1.706641  0  0  1.002785  0  2.162537  0  0  1.054091  0  2.109377  0  0  0.785387  0.966515  0  2.198754  0
Cd  Cd1  1  0.00000137  0.50000021  0.00000033  1  0  1.188197  0  1.706595  0  0  1.00249  0  2.162458  0  0  1.053787  0  2.109321  0  0  0.785323  0.966248  0  2.198627  0
H  H2  1  0.90709034  0.48330512  0.60834583  1  0  0.38948  0  0.903141  0  0  0.362377  0  0.977346  0  0  0.373531  0  0.965019  0  0  0.301701  0.35443  0  0.986167  0
H  H3  1  0.29879850  0.01635829  0.39153149  1  0  0.389674  0  0.902278  0  0  0.362083  0  0.97746  0  0  0.373236  0  0.96508  0  0  0.301321  0.354138  0  0.986289  0
H  H4  1  0.09291101  0.51669404  0.39165619  1  0  0.389506  0  0.903132  0  0  0.362446  0  0.977276  0  0  0.373602  0  0.964946  0  0  0.301742  0.354498  0  0.986095  0
H  H5  1  0.70120318  0.98364284  0.60846883  1  0  0.3897  0  0.902254  0  0  0.362126  0  0.977413  0  0  0.373278  0  0.965031  0  0  0.301345  0.35418  0  0.98625  0
H  H6  1  0.63592634  0.07507016  0.89090496  1  0  0.103374  0  0.946575  0  0  0.110747  0  1.012998  0  0  0.113408  0  1.010052  0  0  0.135121  0.108762  0  1.015125  0
H  H7  1  0.74508845  0.42470807  0.10888183  1  0  0.103061  0  0.946468  0  0  0.11044  0  1.01307  0  0  0.113116  0  1.010083  0  0  0.135038  0.108422  0  1.015266  0
H  H8  1  0.36407178  0.92493001  0.10909332  1  0  0.10338  0  0.946524  0  0  0.110746  0  1.012959  0  0  0.113405  0  1.010013  0  0  0.135108  0.108763  0  1.015071  0
H  H9  1  0.25490999  0.57529403  0.89111866  1  0  0.103036  0  0.946529  0  0  0.110418  0  1.013122  0  0  0.113095  0  1.010137  0  0  0.135043  0.108404  0  1.015316  0
H  H10  1  0.63640709  0.22258687  0.24234995  1  0  0.108899  0  1.016348  0  0  0.115097  0  1.085052  0  0  0.115898  0  1.087886  0  0  0.11417  0.114614  0  1.082933  0
H  H11  1  0.39420459  0.27739944  0.75753662  1  0  0.108967  0  1.016883  0  0  0.11577  0  1.084898  0  0  0.116549  0  1.087724  0  0  0.114239  0.115276  0  1.08282  0
H  H12  1  0.36358892  0.77741427  0.75764882  1  0  0.108959  0  1.01627  0  0  0.115142  0  1.084993  0  0  0.115945  0  1.087825  0  0  0.114189  0.11466  0  1.08287  0
H  H13  1  0.60579756  0.72259779  0.24246193  1  0  0.109038  0  1.016837  0  0  0.115839  0  1.084845  0  0  0.116618  0  1.08767  0  0  0.114254  0.115348  0  1.082763  0
H  H14  1  0.92423312  0.15656791  0.25579989  1  0  0.112321  0  0.938584  0  0  0.125028  0  0.991467  0  0  0.127076  0  0.991117  0  0  0.122709  0.123404  0  0.991993  0
H  H15  1  0.66853546  0.34323558  0.74394286  1  0  0.112612  0  0.938464  0  0  0.125548  0  0.991248  0  0  0.127509  0  0.990988  0  0  0.122847  0.124038  0  0.991616  0
H  H16  1  0.07576192  0.84343421  0.74419889  1  0  0.112344  0  0.938531  0  0  0.125036  0  0.991442  0  0  0.127083  0  0.991093  0  0  0.12271  0.123417  0  0.991964  0
H  H17  1  0.33146670  0.65676164  0.25605726  1  0  0.112622  0  0.938504  0  0  0.125548  0  0.991303  0  0  0.12751  0  0.991044  0  0  0.122836  0.124034  0  0.991668  0
H  H18  1  0.36777927  0.16645721  0.05053467  1  0  0.102551  0  0.930303  0  0  0.116995  0  0.990957  0  0  0.117723  0  0.991242  0  0  0.118686  0.116436  0  0.990879  0
H  H19  1  0.31740625  0.33372232  0.94944194  1  0  0.102096  0  0.930446  0  0  0.116711  0  0.99079  0  0  0.117385  0  0.991164  0  0  0.118842  0.116124  0  0.99075  0
H  H20  1  0.63221771  0.83354295  0.94946408  1  0  0.102562  0  0.9303  0  0  0.116995  0  0.990965  0  0  0.117721  0  0.991252  0  0  0.118695  0.116441  0  0.990879  0
H  H21  1  0.68259202  0.66627881  0.05055745  1  0  0.102146  0  0.930425  0  0  0.116779  0  0.990761  0  0  0.117452  0  0.991136  0  0  0.118853  0.116196  0  0.990715  0
H  H22  1  0.37928526  0.11025291  0.90705529  1  0  0.087829  0  0.921925  0  0  0.102164  0  0.985919  0  0  0.102493  0  0.986829  0  0  0.116463  0.10168  0  0.98567  0
H  H23  1  0.47235105  0.38984005  0.09288621  1  0  0.087569  0  0.921357  0  0  0.10183  0  0.985346  0  0  0.102131  0  0.986287  0  0  0.11658  0.101378  0  0.985051  0
H  H24  1  0.62071172  0.88974726  0.09294268  1  0  0.087874  0  0.921932  0  0  0.102219  0  0.985888  0  0  0.102549  0  0.986798  0  0  0.116484  0.101737  0  0.985639  0
H  H25  1  0.52764917  0.61015914  0.90711237  1  0  0.087616  0  0.921355  0  0  0.101871  0  0.985353  0  0  0.102193  0  0.986268  0  0  0.116589  0.101419  0  0.985055  0
H  H26  1  0.54368960  0.12504381  0.43423797  1  0  0.102944  0  0.973197  0  0  0.108364  0  1.040481  0  0  0.112734  0  1.036167  0  0  0.101931  0.105054  0  1.043893  0
H  H27  1  0.10953549  0.37463444  0.56550892  1  0  0.103106  0  0.973303  0  0  0.10848  0  1.040689  0  0  0.112907  0  1.036277  0  0  0.101931  0.105187  0  1.044061  0
H  H28  1  0.45631288  0.87495536  0.56576358  1  0  0.102955  0  0.973194  0  0  0.10837  0  1.04048  0  0  0.112743  0  1.036166  0  0  0.10194  0.105059  0  1.043895  0
H  H29  1  0.89046522  0.62536765  0.43449220  1  0  0.103064  0  0.973371  0  0  0.108481  0  1.040711  0  0  0.112909  0  1.036297  0  0  0.101932  0.105181  0  1.044085  0
H  H30  1  0.77918813  0.27893976  0.56096800  1  0  0.110988  0  0.972907  0  0  0.117849  0  1.039259  0  0  0.121121  0  1.038513  0  0  0.100719  0.115447  0  1.039945  0
H  H31  1  0.21830741  0.22057671  0.43877949  1  0  0.110943  0  0.972874  0  0  0.117865  0  1.039306  0  0  0.121126  0  1.038557  0  0  0.10045  0.11546  0  1.040011  0
H  H32  1  0.22081451  0.72106038  0.43903309  1  0  0.111006  0  0.972914  0  0  0.117871  0  1.039261  0  0  0.121142  0  1.038518  0  0  0.100722  0.115466  0  1.039949  0
H  H33  1  0.78169427  0.77942442  0.56122083  1  0  0.110933  0  0.972859  0  0  0.117851  0  1.039295  0  0  0.12111  0  1.038546  0  0  0.100431  0.115441  0  1.040004  0
H  H34  1  0.59433653  0.54949603  0.38158306  1  0  0.107725  0  0.957945  0  0  0.117588  0  1.020329  0  0  0.120335  0  1.021026  0  0  0.100406  0.115671  0  1.019994  0
H  H35  1  0.21293662  0.95032992  0.61853289  1  0  0.107153  0  0.957647  0  0  0.117263  0  1.020047  0  0  0.120031  0  1.020663  0  0  0.100264  0.115375  0  1.019653  0
H  H36  1  0.40566498  0.45050410  0.61842006  1  0  0.107769  0  0.957924  0  0  0.117623  0  1.020311  0  0  0.120372  0  1.021003  0  0  0.100435  0.115706  0  1.019983  0
H  H37  1  0.78706376  0.04967025  0.38146602  1  0  0.107148  0  0.957644  0  0  0.117259  0  1.020043  0  0  0.120028  0  1.020658  0  0  0.100261  0.115372  0  1.019646  0
H  H38  1  0.35661311  0.39267699  0.25187069  1  0  0.095468  0  0.990389  0  0  0.104079  0  1.056671  0  0  0.107602  0  1.053283  0  0  0.099078  0.10145  0  1.059204  0
H  H39  1  0.10504090  0.10737387  0.74830199  1  0  0.095047  0  0.990566  0  0  0.104465  0  1.055824  0  0  0.108012  0  1.052385  0  0  0.099231  0.101789  0  1.058469  0
H  H40  1  0.64338937  0.60732217  0.74813085  1  0  0.095515  0  0.990387  0  0  0.104126  0  1.056663  0  0  0.107647  0  1.053276  0  0  0.099083  0.101494  0  1.059197  0
H  H41  1  0.89495688  0.89262434  0.25169642  1  0  0.09504  0  0.990568  0  0  0.104455  0  1.055831  0  0  0.108002  0  1.052391  0  0  0.099222  0.101778  0  1.058477  0
H  H42  1  0.12761894  0.93487468  0.19279909  1  0  0.41326  0  0.898889  0  0  0.379196  0  0.96776  0  0  0.390984  0  0.950554  0  0  0.282058  0.37089  0  0.979847  0
H  H43  1  0.93487584  0.56507030  0.80711822  1  0  0.413476  0  0.89859  0  0  0.37985  0  0.96671  0  0  0.391633  0  0.949502  0  0  0.282412  0.371559  0  0.978779  0
H  H44  1  0.87238160  0.06512643  0.80720248  1  0  0.413282  0  0.89886  0  0  0.379219  0  0.967729  0  0  0.391009  0  0.950521  0  0  0.282077  0.370914  0  0.979818  0
H  H45  1  0.06512357  0.43493084  0.19288149  1  0  0.413418  0  0.898682  0  0  0.379825  0  0.966755  0  0  0.391609  0  0.949547  0  0  0.282403  0.371533  0  0.978826  0
H  H46  1  0.00357735  0.80473744  0.13657592  1  0  0.434383  0  0.863963  0  0  0.403353  0  0.926785  0  0  0.414445  0  0.910643  0  0  0.288569  0.39552  0  0.938152  0
H  H47  1  0.86699682  0.69514451  0.86343303  1  0  0.434534  0  0.86373  0  0  0.403561  0  0.926354  0  0  0.414635  0  0.910252  0  0  0.288948  0.395733  0  0.937715  0
H  H48  1  0.99642449  0.19526467  0.86342395  1  0  0.434398  0  0.86397  0  0  0.403365  0  0.926794  0  0  0.414458  0  0.910651  0  0  0.288567  0.395534  0  0.93816  0
H  H49  1  0.13300356  0.30485565  0.13656666  1  0  0.434543  0  0.863714  0  0  0.403552  0  0.926373  0  0  0.414628  0  0.910268  0  0  0.288939  0.395725  0  0.937731  0
C  C50  1  0.67696670  0.10445723  0.98831650  1  0  0.153762  0  3.674498  0  0  0.089272  0  3.952885  0  0  0.10316  0  3.965624  0  0  0.135535  0.080404  0  3.943992  0
C  C51  1  0.68873502  0.39534435  0.01147318  1  0  0.152412  0  3.673664  0  0  0.08778  0  3.952459  0  0  0.101676  0  3.96521  0  0  0.135058  0.078932  0  3.943551  0
C  C52  1  0.32303028  0.89554294  0.01168226  1  0  0.15371  0  3.674511  0  0  0.08923  0  3.952891  0  0  0.103122  0  3.96563  0  0  0.13554  0.080374  0  3.943994  0
C  C53  1  0.31126439  0.60465678  0.98852731  1  0  0.15242  0  3.673684  0  0  0.087801  0  3.952472  0  0  0.101691  0  3.965228  0  0  0.135069  0.078944  0  3.943573  0
C  C54  1  0.68010952  0.18177903  0.17287824  1  0  -0.079592  0  3.673019  0  0  -0.116712  0  3.929214  0  0  -0.115569  0  3.949414  0  0  -0.004398  -0.11742  0  3.91546  0
C  C55  1  0.50737975  0.31808124  0.82696831  1  0  -0.079706  0  3.672104  0  0  -0.117265  0  3.928033  0  0  -0.116058  0  3.948208  0  0  -0.004044  -0.117967  0  3.914292  0
C  C56  1  0.31988552  0.81822307  0.82712210  1  0  -0.079491  0  3.672759  0  0  -0.116599  0  3.928948  0  0  -0.115457  0  3.949147  0  0  -0.004283  -0.117303  0  3.915186  0
C  C57  1  0.49261981  0.68191405  0.17302897  1  0  -0.079837  0  3.672264  0  0  -0.117393  0  3.928196  0  0  -0.116186  0  3.948369  0  0  -0.004059  -0.118096  0  3.914446  0
C  C58  1  0.82170047  0.14933032  0.17773114  1  0  0.017233  0  3.736966  0  0  -0.01372  0  3.997285  0  0  -0.011592  0  4.016839  0  0  0.002353  -0.015005  0  3.983942  0
C  C59  1  0.64410741  0.35044024  0.82203597  1  0  0.016024  0  3.737141  0  0  -0.015307  0  3.997819  0  0  -0.013104  0  4.017351  0  0  0.001564  -0.016695  0  3.984503  0
C  C60  1  0.17829910  0.85067178  0.82226967  1  0  0.017099  0  3.737057  0  0  -0.013843  0  3.997379  0  0  -0.011713  0  4.016932  0  0  0.00228  -0.015129  0  3.984037  0
C  C61  1  0.35589459  0.64955602  0.17796226  1  0  0.016021  0  3.737404  0  0  -0.015296  0  3.998073  0  0  -0.013091  0  4.017606  0  0  0.001573  -0.016674  0  3.984739  0
C  C62  1  0.43381468  0.18008062  0.99970802  1  0  -0.020941  0  3.600146  0  0  -0.084316  0  3.856809  0  0  -0.080549  0  3.867141  0  0  -0.047958  -0.086776  0  3.850115  0
C  C63  1  0.43418843  0.31999187  0.00023127  1  0  -0.020172  0  3.59882  0  0  -0.082231  0  3.853842  0  0  -0.078456  0  3.864305  0  0  -0.047812  -0.08474  0  3.847136  0
C  C64  1  0.56618246  0.81992052  0.00029106  1  0  -0.020972  0  3.6002  0  0  -0.084291  0  3.856808  0  0  -0.080526  0  3.867142  0  0  -0.047966  -0.086756  0  3.850113  0
C  C65  1  0.56580984  0.68000927  0.99976812  1  0  -0.020345  0  3.598836  0  0  -0.082472  0  3.853972  0  0  -0.078706  0  3.864418  0  0  -0.047868  -0.084976  0  3.847253  0
C  C66  1  0.43298918  0.24618022  0.33224574  1  0  -0.140015  0  3.825148  0  0  -0.1215  0  4.074756  0  0  -0.133712  0  4.098311  0  0  -0.048971  -0.113351  0  4.058606  0
C  C67  1  0.10092997  0.25368673  0.66770907  1  0  -0.140212  0  3.823552  0  0  -0.122863  0  4.074672  0  0  -0.13511  0  4.09827  0  0  -0.04896  -0.114669  0  4.058521  0
C  C68  1  0.56701346  0.75381992  0.66775613  1  0  -0.140034  0  3.825165  0  0  -0.121497  0  4.074739  0  0  -0.13371  0  4.098295  0  0  -0.048955  -0.113352  0  4.058591  0
C  C69  1  0.89906928  0.74631343  0.33228952  1  0  -0.140121  0  3.823547  0  0  -0.122789  0  4.074696  0  0  -0.135036  0  4.098296  0  0  -0.048929  -0.11459  0  4.058538  0
C  C70  1  0.55296857  0.21794607  0.42213621  1  0  -0.04528  0  3.775235  0  0  -0.070583  0  4.028499  0  0  -0.06538  0  4.04528  0  0  -0.089718  -0.073738  0  4.016901  0
C  C71  1  0.13092463  0.28176694  0.57767289  1  0  -0.044442  0  3.774078  0  0  -0.069404  0  4.027433  0  0  -0.064219  0  4.04423  0  0  -0.089178  -0.072567  0  4.015853  0
C  C72  1  0.44703278  0.78205309  0.57786503  1  0  -0.045297  0  3.775219  0  0  -0.0706  0  4.028461  0  0  -0.0654  0  4.045244  0  0  -0.08977  -0.073755  0  4.016865  0
C  C73  1  0.86907559  0.71823225  0.42232647  1  0  -0.04445  0  3.774126  0  0  -0.069439  0  4.027481  0  0  -0.064256  0  4.044277  0  0  -0.089189  -0.072594  0  4.015888  0
C  C74  1  0.68657651  0.30509636  0.49428708  1  0  -0.232573  0  3.751792  0  0  -0.246848  0  4.000998  0  0  -0.256074  0  4.021054  0  0  -0.115164  -0.240351  0  3.987114  0
C  C75  1  0.19236647  0.19451054  0.50551620  1  0  -0.232923  0  3.751131  0  0  -0.247375  0  4.000128  0  0  -0.256596  0  4.020228  0  0  -0.115055  -0.240928  0  3.98633  0
C  C76  1  0.31342484  0.69490282  0.50571338  1  0  -0.232615  0  3.751855  0  0  -0.246907  0  4.001049  0  0  -0.25613  0  4.02111  0  0  -0.11516  -0.240408  0  3.987159  0
C  C77  1  0.80763277  0.80548962  0.49448318  1  0  -0.232939  0  3.751068  0  0  -0.247384  0  4.000081  0  0  -0.256603  0  4.020179  0  0  -0.11507  -0.240936  0  3.98628  0
C  C78  1  0.70316312  0.42514918  0.47927434  1  0  0.362883  0  3.818817  0  0  0.354412  0  4.074433  0  0  0.369453  0  4.089041  0  0  0.091879  0.344082  0  4.064247  0
C  C79  1  0.22400940  0.07452411  0.52065131  1  0  0.362875  0  3.81802  0  0  0.355048  0  4.072904  0  0  0.370055  0  4.087528  0  0  0.092022  0.344749  0  4.062711  0
C  C80  1  0.29683952  0.57485095  0.52072832  1  0  0.36298  0  3.818949  0  0  0.354534  0  4.074531  0  0  0.369569  0  4.089146  0  0  0.091899  0.344207  0  4.064341  0
C  C81  1  0.77599211  0.92547606  0.47934791  1  0  0.362895  0  3.817977  0  0  0.355084  0  4.072861  0  0  0.370091  0  4.087484  0  0  0.09205  0.344782  0  4.062669  0
C  C82  1  0.58209535  0.45544993  0.39119248  1  0  -0.205838  0  3.736971  0  0  -0.222368  0  3.988491  0  0  -0.231703  0  4.00973  0  0  -0.109548  -0.216407  0  3.974484  0
C  C83  1  0.19105584  0.04433112  0.60882643  1  0  -0.205201  0  3.734387  0  0  -0.222412  0  3.986552  0  0  -0.231731  0  4.007822  0  0  -0.109527  -0.216463  0  3.972493  0
C  C84  1  0.41790600  0.54454923  0.60880875  1  0  -0.205884  0  3.737  0  0  -0.222415  0  3.988526  0  0  -0.231746  0  4.009765  0  0  -0.109552  -0.216464  0  3.974529  0
C  C85  1  0.80894324  0.95566806  0.39117262  1  0  -0.205215  0  3.734352  0  0  -0.22242  0  3.986508  0  0  -0.231739  0  4.007776  0  0  -0.109543  -0.216471  0  3.972446  0
C  C86  1  0.44957119  0.36720178  0.31894724  1  0  -0.054015  0  3.7755  0  0  -0.079603  0  4.028532  0  0  -0.074572  0  4.046236  0  0  -0.092168  -0.082784  0  4.016607  0
C  C87  1  0.13082750  0.13270072  0.68109487  1  0  -0.054233  0  3.773198  0  0  -0.079866  0  4.026418  0  0  -0.074828  0  4.04411  0  0  -0.092533  -0.083073  0  4.014606  0
C  C88  1  0.55043130  0.63279738  0.68105430  1  0  -0.054051  0  3.775451  0  0  -0.079657  0  4.028486  0  0  -0.074625  0  4.046191  0  0  -0.092177  -0.082828  0  4.016556  0
C  C89  1  0.86917158  0.86729847  0.31890340  1  0  -0.054262  0  3.773186  0  0  -0.079888  0  4.026409  0  0  -0.074851  0  4.044101  0  0  -0.092528  -0.0831  0  4.014599  0
C  C90  1  0.29827930  0.14535137  0.25003378  1  0  0.653611  0  3.895761  0  0  0.594644  0  4.20191  0  0  0.629905  0  4.193604  0  0  0.206062  0.57075  0  4.206897  0
C  C91  1  0.04840397  0.35459511  0.74989884  1  0  0.654427  0  3.894656  0  0  0.596052  0  4.200566  0  0  0.631318  0  4.192246  0  0  0.20687  0.572118  0  4.205631  0
C  C92  1  0.70172222  0.85464879  0.74996544  1  0  0.653509  0  3.895745  0  0  0.594568  0  4.201861  0  0  0.62983  0  4.193556  0  0  0.206035  0.57068  0  4.206848  0
C  C93  1  0.95159738  0.64540407  0.25010084  1  0  0.654373  0  3.894673  0  0  0.596002  0  4.200591  0  0  0.631268  0  4.19227  0  0  0.206838  0.572062  0  4.205662  0
N  N94  1  0.81788586  0.10130442  0.06219051  1  0  -0.395675  0  3.265572  0  0  -0.323185  0  3.5549  0  0  -0.34405  0  3.572102  0  0  -0.358646  -0.309038  0  3.54265  0
N  N95  1  0.75579479  0.39843753  0.93756200  1  0  -0.394821  0  3.265923  0  0  -0.322113  0  3.555067  0  0  -0.342976  0  3.572273  0  0  -0.358379  -0.307948  0  3.542832  0
N  N96  1  0.18211015  0.89869673  0.93780826  1  0  -0.395571  0  3.265605  0  0  -0.323083  0  3.554918  0  0  -0.343948  0  3.572116  0  0  -0.358588  -0.308942  0  3.542676  0
N  N97  1  0.24420672  0.60156262  0.06243878  1  0  -0.394814  0  3.266042  0  0  -0.322121  0  3.55519  0  0  -0.342982  0  3.572397  0  0  -0.358407  -0.307958  0  3.542961  0
N  N98  1  0.58885417  0.15123914  0.05175960  1  0  -0.076297  0  3.592261  0  0  0.016417  0  3.815337  0  0  0.001731  0  3.841598  0  0  -0.250416  0.026076  0  3.797701  0
N  N99  1  0.53720926  0.34865294  0.94809850  1  0  -0.074287  0  3.589236  0  0  0.01793  0  3.812641  0  0  0.003251  0  3.838888  0  0  -0.250049  0.027608  0  3.794953  0
N  N100  1  0.41114265  0.84876005  0.94823882  1  0  -0.076374  0  3.592207  0  0  0.016324  0  3.81531  0  0  0.001636  0  3.841571  0  0  -0.250523  0.025978  0  3.797676  0
N  N101  1  0.46279112  0.65134722  0.05190041  1  0  -0.074182  0  3.589141  0  0  0.018048  0  3.812553  0  0  0.003367  0  3.838802  0  0  -0.250033  0.027721  0  3.794872  0
O  O102  1  0.19824902  0.16422176  0.15832987  1  0  -0.670096  0  2.040107  0  0  -0.592758  0  2.28469  0  0  -0.62101  0  2.272416  0  0  -0.323193  -0.573123  0  2.29259  0
O  O103  1  0.03983761  0.33576363  0.84156835  1  0  -0.670115  0  2.039854  0  0  -0.593519  0  2.285244  0  0  -0.621804  0  2.273013  0  0  -0.32376  -0.573839  0  2.293104  0
O  O104  1  0.80175476  0.83577839  0.84166998  1  0  -0.670046  0  2.040063  0  0  -0.592738  0  2.284646  0  0  -0.620989  0  2.272373  0  0  -0.323198  -0.573106  0  2.292551  0
O  O105  1  0.96016244  0.66423458  0.15843069  1  0  -0.670098  0  2.03992  0  0  -0.593506  0  2.285311  0  0  -0.62179  0  2.273077  0  0  -0.323732  -0.573828  0  2.293179  0
O  O106  1  0.28953827  0.03922665  0.27039104  1  0  -0.656968  0  2.040771  0  0  -0.590668  0  2.262724  0  0  -0.615806  0  2.251017  0  0  -0.318527  -0.573138  0  2.270366  0
O  O107  1  0.01946680  0.46074549  0.72954189  1  0  -0.656704  0  2.039295  0  0  -0.59071  0  2.260707  0  0  -0.615892  0  2.249109  0  0  -0.318634  -0.573169  0  2.268334  0
O  O108  1  0.71046324  0.96077351  0.72960896  1  0  -0.6569  0  2.040786  0  0  -0.59061  0  2.26272  0  0  -0.615749  0  2.251014  0  0  -0.31849  -0.573079  0  2.270358  0
O  O109  1  0.98053357  0.53925466  0.27045858  1  0  -0.65667  0  2.039302  0  0  -0.590705  0  2.260708  0  0  -0.615888  0  2.249108  0  0  -0.318636  -0.573162  0  2.268334  0
O  O110  1  0.83069956  0.51296652  0.54556183  1  0  -0.511733  0  2.104648  0  0  -0.458002  0  2.309588  0  0  -0.478336  0  2.300087  0  0  -0.345771  -0.443494  0  2.315923  0
O  O111  1  0.28527549  0.98666750  0.45434985  1  0  -0.51204  0  2.102932  0  0  -0.458309  0  2.308354  0  0  -0.478621  0  2.298938  0  0  -0.34598  -0.443816  0  2.314657  0
O  O112  1  0.16930292  0.48703264  0.45444050  1  0  -0.511823  0  2.104688  0  0  -0.458125  0  2.309581  0  0  -0.478459  0  2.30008  0  0  -0.345834  -0.443609  0  2.3159  0
O  O113  1  0.71472732  0.01333363  0.54565079  1  0  -0.512035  0  2.10288  0  0  -0.458355  0  2.308313  0  0  -0.478668  0  2.298907  0  0  -0.346001  -0.443862  0  2.314622  0
O  O114  1  0.02166877  0.89287345  0.13472026  1  0  -0.862608  0  1.86479  0  0  -0.799438  0  2.062873  0  0  -0.821022  0  2.027242  0  0  -0.605747  -0.783998  0  2.087581  0
O  O115  1  0.88683435  0.60694328  0.86513411  1  0  -0.862747  0  1.864604  0  0  -0.799812  0  2.062454  0  0  -0.821337  0  2.026756  0  0  -0.606275  -0.784439  0  2.087176  0
O  O116  1  0.97833193  0.10712865  0.86528164  1  0  -0.862656  0  1.864796  0  0  -0.799485  0  2.062886  0  0  -0.821069  0  2.027252  0  0  -0.605762  -0.784044  0  2.087595  0
O  O117  1  0.11316620  0.39305786  0.13486590  1  0  -0.86269  0  1.864667  0  0  -0.799778  0  2.062481  0  0  -0.821303  0  2.02678  0  0  -0.606251  -0.784407  0  2.087203  0
