# generated using pymatgen
data_ZnH24C17N3O7
_symmetry_space_group_name_H-M   'P 1'
_cell_length_a   7.01156673
_cell_length_b   9.25093939
_cell_length_c   16.29760000
_cell_angle_alpha   81.37785257
_cell_angle_beta   87.40857770
_cell_angle_gamma   69.68127048
_symmetry_Int_Tables_number   1
_chemical_formula_structural   ZnH24C17N3O7
_chemical_formula_sum   'Zn2 H48 C34 N6 O14'
_cell_volume   980.11148077
_cell_formula_units_Z   2
loop_
 _symmetry_equiv_pos_site_id
 _symmetry_equiv_pos_as_xyz
  1  'x, y, z'
loop_
 _atom_site_type_symbol
 _atom_site_label
 _atom_site_symmetry_multiplicity
 _atom_site_fract_x
 _atom_site_fract_y
 _atom_site_fract_z
 _atom_site_occupancy
 _atom_site_pbe_bader_charge
 _atom_site_pbe_bader_spin_density
 _atom_site_pbe_cm5_charge
 _atom_site_pbe_ddec_charge
 _atom_site_pbe_ddec_spin_density
 _atom_site_pbe_ddec_sum_bond_order
 _atom_site_pbe_magmom
Zn  Zn0  1  0.96899167  0.31346967  0.12988961  1  1.271212  0  0.68259  0.835278  0  2.318482  0
Zn  Zn1  1  0.03100909  0.68652489  0.87010807  1  1.271194  0  0.682616  0.835334  0  2.318344  0
H  H2  1  0.23508931  0.36623582  0.01492111  1  0.665212  0  0.291244  0.39514  0  0.938735  0
H  H3  1  0.76492896  0.63376106  0.98507727  1  0.665302  0  0.291266  0.395138  0  0.938725  0
H  H4  1  0.29275319  0.19229061  0.07290881  1  0.672814  0  0.297045  0.389569  0  0.937925  0
H  H5  1  0.70727523  0.80770278  0.92709335  1  0.672821  0  0.297114  0.389643  0  0.937792  0
H  H6  1  0.91574083  0.21544044  0.44474616  1  0.165716  0  0.115056  0.131475  0  1.032342  0
H  H7  1  0.08423960  0.78457391  0.55525208  1  0.16613  0  0.115073  0.13153  0  1.03233  0
H  H8  1  0.81749817  0.23779827  0.29693464  1  0.12316  0  0.126458  0.103575  0  0.988245  0
H  H9  1  0.18249954  0.76221259  0.70306111  1  0.12315  0  0.126468  0.10361  0  0.988124  0
H  H10  1  0.33209402  0.33497842  0.21053261  1  0.178128  0  0.122482  0.105433  0  1.02087  0
H  H11  1  0.66791845  0.66500914  0.78947403  1  0.178057  0  0.122468  0.105515  0  1.020732  0
H  H12  1  0.45064959  0.32020753  0.35394952  1  0.128778  0  0.117894  0.12953  0  1.011958  0
H  H13  1  0.54936656  0.67977188  0.64605836  1  0.128664  0  0.117885  0.12946  0  1.012204  0
H  H14  1  0.60449787  0.41149540  0.57631860  1  0.07236  0  0.096513  0.151251  0  1.036165  0
H  H15  1  0.39550627  0.58849799  0.42369139  1  0.07237  0  0.096558  0.15131  0  1.036206  0
H  H16  1  0.46772127  0.43632941  0.67074408  1  0.065997  0  0.095276  0.145344  0  1.009336  0
H  H17  1  0.53227131  0.56366747  0.32925848  1  0.066031  0  0.095284  0.145307  0  1.009252  0
H  H18  1  0.33314849  0.49690380  0.57390851  1  0.024307  0  0.08924  0.12369  0  1.047695  0
H  H19  1  0.66686431  0.50309891  0.42609991  1  0.024242  0  0.089312  0.123764  0  1.047519  0
H  H20  1  0.64776828  0.00507931  0.65327239  1  0.04807  0  0.086696  0.121097  0  1.060605  0
H  H21  1  0.35219222  0.99492223  0.34673101  1  0.048435  0  0.086698  0.121074  0  1.060625  0
H  H22  1  0.63145915  0.13743496  0.72399931  1  0.060481  0  0.096374  0.145978  0  0.999571  0
H  H23  1  0.36850659  0.86255494  0.27600804  1  0.060769  0  0.096394  0.145973  0  0.999626  0
H  H24  1  0.77643890  0.14183874  0.63136306  1  0.066164  0  0.092557  0.131692  0  1.036586  0
H  H25  1  0.22354383  0.85815465  0.36864244  1  0.065929  0  0.09249  0.131572  0  1.036758  0
H  H26  1  0.12831883  0.46115760  0.68553231  1  0.051868  0  0.089598  0.122741  0  1.070482  0
H  H27  1  0.87166250  0.53885792  0.31446458  1  0.052022  0  0.089539  0.122615  0  1.070638  0
H  H28  1  0.23126598  0.30031424  0.76445093  1  0.053857  0  0.100269  0.148878  0  0.977176  0
H  H29  1  0.76870288  0.69970361  0.23554907  1  0.054696  0  0.100307  0.1489  0  0.977196  0
H  H30  1  0.98999852  0.33499939  0.71917953  1  0.075286  0  0.096666  0.135309  0  1.025056  0
H  H31  1  0.00997290  0.66502545  0.28081369  1  0.0755  0  0.096633  0.135327  0  1.02502  0
H  H32  1  0.09146317  0.07217493  0.68185664  1  0.020069  0  0.094639  0.137271  0  1.010342  0
H  H33  1  0.90849060  0.92785107  0.31814481  1  0.020634  0  0.094601  0.137281  0  1.010305  0
H  H34  1  0.33244937  0.02121990  0.72989142  1  0.06152  0  0.101198  0.154306  0  0.977138  0
H  H35  1  0.66751612  0.97879911  0.27011162  1  0.047093  0  0.101236  0.154337  0  0.977186  0
H  H36  1  0.31740418  0.99184855  0.62466035  1  0.076419  0  0.088649  0.124701  0  1.060812  0
H  H37  1  0.68257106  0.00816464  0.37534422  1  0.075881  0  0.08856  0.124627  0  1.060998  0
H  H38  1  0.39510177  0.66299070  0.02066371  1  0.048508  0  0.104135  0.128901  0  0.975097  0
H  H39  1  0.60492358  0.33701900  0.97932853  1  0.048445  0  0.104124  0.128865  0  0.974993  0
H  H40  1  0.47421627  0.77681227  0.07913076  1  0.096418  0  0.103364  0.130241  0  1.000027  0
H  H41  1  0.52580771  0.22318462  0.92086750  1  0.096279  0  0.103307  0.130042  0  1.000051  0
H  H42  1  0.27885466  0.70056667  0.20256589  1  -0.001092  0  0.086217  0.071997  0  1.01118  0
H  H43  1  0.72117503  0.29943022  0.79742858  1  -0.001109  0  0.086201  0.071976  0  1.011269  0
H  H44  1  0.18734174  0.59901768  0.14013567  1  0.009769  0  0.089753  0.082336  0  0.995102  0
H  H45  1  0.81269448  0.40097106  0.85985999  1  0.009666  0  0.089718  0.08231  0  0.995119  0
H  H46  1  0.03397761  0.84879385  0.04079098  1  0.054709  0  0.101496  0.121906  0  1.001491  0
H  H47  1  0.96603563  0.15119837  0.95920605  1  0.054793  0  0.101457  0.121865  0  1.001505  0
H  H48  1  0.92204660  0.85122112  0.13938713  1  0.063621  0  0.096339  0.110904  0  0.998831  0
H  H49  1  0.07797849  0.14876063  0.86060811  1  0.063641  0  0.096298  0.110813  0  0.998942  0
C  C50  1  0.19256175  0.26775935  0.41175296  1  0.01794  0  0.022478  0.089514  0  4.009797  0
C  C51  1  0.80744038  0.73224802  0.58825097  1  0.018151  0  0.022379  0.089475  0  4.009568  0
C  C52  1  0.01276342  0.24200754  0.39510657  1  -0.041099  0  -0.07061  -0.15317  0  3.899845  0
C  C53  1  0.98723624  0.75800215  0.60489415  1  -0.041703  0  -0.070645  -0.153301  0  3.900129  0
C  C54  1  0.95759415  0.25313754  0.31305870  1  0.497348  0  0.053742  0.095134  0  3.929406  0
C  C55  1  0.04240151  0.74686517  0.68693778  1  0.497484  0  0.05377  0.095189  0  3.92938  0
C  C56  1  0.24433234  0.30883295  0.26405844  1  0.465842  0  0.05619  0.100864  0  3.902266  0
C  C57  1  0.75567690  0.69115229  0.73594539  1  0.466141  0  0.056315  0.100824  0  3.902255  0
C  C58  1  0.31007688  0.30037364  0.34430583  1  -0.023081  0  -0.067742  -0.147771  0  3.904551  0
C  C59  1  0.68993198  0.69960927  0.65569698  1  -0.023447  0  -0.067754  -0.147655  0  3.904712  0
C  C60  1  0.25581856  0.25896227  0.49652784  1  0.903502  0  0.219616  0.076383  0  3.938707  0
C  C61  1  0.74417058  0.74104859  0.50346930  1  0.903762  0  0.219733  0.076585  0  3.939137  0
C  C62  1  0.45499654  0.24447324  0.61241065  1  0.263715  0  0.0861  0.203268  0  3.743562  0
C  C63  1  0.54499009  0.75551782  0.38758884  1  0.264116  0  0.086115  0.203425  0  3.743388  0
C  C64  1  0.46433327  0.40875134  0.60771771  1  -0.073931  0  -0.247852  -0.458856  0  3.858853  0
C  C65  1  0.53566207  0.59123623  0.39228742  1  -0.074116  0  -0.247982  -0.458986  0  3.858635  0
C  C66  1  0.63870198  0.12391963  0.65802322  1  -0.079237  0  -0.24656  -0.438859  0  3.895135  0
C  C67  1  0.36128323  0.87607143  0.34198182  1  -0.079751  0  -0.246546  -0.43878  0  3.895266  0
C  C68  1  0.24522518  0.23556435  0.64271736  1  0.261615  0  0.084362  0.192432  0  3.759048  0
C  C69  1  0.75474254  0.76444651  0.35728020  1  0.261176  0  0.08432  0.19257  0  3.758652  0
C  C70  1  0.14229379  0.34023594  0.70654788  1  -0.080015  0  -0.244043  -0.436745  0  3.900395  0
C  C71  1  0.85767755  0.65977958  0.29344921  1  -0.081117  0  -0.244003  -0.43668  0  3.900362  0
C  C72  1  0.24833559  0.06900109  0.67110540  1  -0.087999  0  -0.243137  -0.449198  0  3.876855  0
C  C73  1  0.75162365  0.93101909  0.32889828  1  -0.073543  0  -0.242984  -0.449129  0  3.87699  0
C  C74  1  0.60771718  0.53324634  0.11676724  1  1.514363  0  0.205904  0.62185  0  4.140628  0
C  C75  1  0.39231204  0.46673890  0.88322946  1  1.514643  0  0.205886  0.621768  0  4.140964  0
C  C76  1  0.42805317  0.67355115  0.08455703  1  -0.041217  0  -0.170052  -0.313266  0  3.937575  0
C  C77  1  0.57197886  0.32644690  0.91543485  1  -0.040926  0  -0.169983  -0.312949  0  3.937618  0
C  C78  1  0.23895214  0.69895004  0.13823874  1  0.050335  0  -0.165284  -0.09382  0  3.96338  0
C  C79  1  0.76107575  0.30104451  0.86175413  1  0.049987  0  -0.165245  -0.093798  0  3.963765  0
C  C80  1  0.06374927  0.84761633  0.10680345  1  -0.041826  0  -0.167017  -0.296492  0  3.905363  0
C  C81  1  0.93627433  0.15237823  0.89319134  1  -0.041953  0  -0.166925  -0.296304  0  3.905409  0
C  C82  1  0.09694950  0.00005940  0.11211301  1  1.526812  0  0.206139  0.628841  0  4.138074  0
C  C83  1  0.90305593  0.99993748  0.88788684  1  1.527112  0  0.206207  0.628843  0  4.137905  0
N  N84  1  0.06949155  0.28733933  0.24853018  1  -1.252769  0  -0.328988  -0.2403  0  3.584957  0
N  N85  1  0.93051088  0.71266104  0.75146698  1  -1.25277  0  -0.329065  -0.240388  0  3.584972  0
N  N86  1  0.45076006  0.21557671  0.52351100  1  -0.432267  0  -0.10357  0.191739  0  3.800523  0
N  N87  1  0.54923237  0.78442367  0.47649311  1  -0.433314  0  -0.1036  0.191505  0  3.800683  0
N  N88  1  0.12758342  0.29085094  0.56160043  1  -0.451487  0  -0.10369  0.190597  0  3.812317  0
N  N89  1  0.87240435  0.70914711  0.43840397  1  -0.451398  0  -0.103657  0.190439  0  3.812457  0
O  O90  1  0.61218442  0.16722016  0.48069122  1  -0.525036  0  -0.178554  -0.362212  0  1.931697  0
O  O91  1  0.38780096  0.83278953  0.51931223  1  -0.524343  0  -0.178581  -0.362248  0  1.931783  0
O  O92  1  0.93357952  0.34734418  0.55833714  1  -0.492128  0  -0.17233  -0.359734  0  1.974209  0
O  O93  1  0.06641848  0.65265969  0.44166103  1  -0.492062  0  -0.172409  -0.359788  0  1.973968  0
O  O94  1  0.60450061  0.44297526  0.18161940  1  -1.186554  0  -0.310911  -0.54441  0  2.131899  0
O  O95  1  0.39551452  0.55702861  0.81837353  1  -1.186678  0  -0.310854  -0.544451  0  2.131852  0
O  O96  1  0.77443168  0.51105856  0.07224782  1  -1.18031  0  -0.333867  -0.578433  0  2.297091  0
O  O97  1  0.22560701  0.48892785  0.92774368  1  -1.180382  0  -0.333939  -0.57843  0  2.297193  0
O  O98  1  0.27312280  0.00714901  0.11264300  1  -1.18796  0  -0.323458  -0.562788  0  2.121126  0
O  O99  1  0.72688720  0.99284089  0.88736472  1  -1.187835  0  -0.323469  -0.562771  0  2.121075  0
O  O100  1  0.93047935  0.11895446  0.11408041  1  -1.168197  0  -0.346512  -0.584562  0  2.288758  0
O  O101  1  0.06953817  0.88103777  0.88591592  1  -1.168229  0  -0.346549  -0.584601  0  2.288685  0
O  O102  1  0.23713126  0.30738637  0.07216203  1  -1.3096  0  -0.572066  -0.74851  0  2.15066  0
O  O103  1  0.76289092  0.69260818  0.92783524  1  -1.309753  0  -0.572175  -0.748591  0  2.150731  0
