# generated using pymatgen
data_Cd2FeH14(C3O4)4
_symmetry_space_group_name_H-M   'P 1'
_cell_length_a   6.03738432
_cell_length_b   9.84533296
_cell_length_c   14.81602907
_cell_angle_alpha   89.99900487
_cell_angle_beta   90.00046382
_cell_angle_gamma   101.33853913
_symmetry_Int_Tables_number   1
_chemical_formula_structural   Cd2FeH14(C3O4)4
_chemical_formula_sum   'Cd4 Fe2 H28 C24 O32'
_cell_volume   863.47736790
_cell_formula_units_Z   2
loop_
 _symmetry_equiv_pos_site_id
 _symmetry_equiv_pos_as_xyz
  1  'x, y, z'
loop_
 _atom_site_type_symbol
 _atom_site_label
 _atom_site_symmetry_multiplicity
 _atom_site_fract_x
 _atom_site_fract_y
 _atom_site_fract_z
 _atom_site_occupancy
 _atom_site_hle17_ddec_charge
 _atom_site_hle17_ddec_spin_density
 _atom_site_hle17_ddec_sum_bond_order
 _atom_site_hle17_magmom
 _atom_site_hse06_10hf_bader_charge
 _atom_site_hse06_10hf_bader_spin_density
 _atom_site_hse06_10hf_ddec_charge
 _atom_site_hse06_10hf_ddec_spin_density
 _atom_site_hse06_10hf_ddec_sum_bond_order
 _atom_site_hse06_10hf_magmom
 _atom_site_hse06_ddec_charge
 _atom_site_hse06_ddec_spin_density
 _atom_site_hse06_ddec_sum_bond_order
 _atom_site_hse06_magmom
 _atom_site_pbe_cm5_charge
 _atom_site_pbe_ddec_charge
 _atom_site_pbe_ddec_spin_density
 _atom_site_pbe_ddec_sum_bond_order
 _atom_site_pbe_magmom
Cd  Cd0  1  0.58796357  0.83436412  0.40242518  1  1.227114  0.000261  1.508136  0.0  1.331534  0.000211  1.04347  0.000186  1.94288  0.0  1.107008  4e-05  1.882842  0.0  0.779917  0.996789  -0.000258  1.985159  0.0
Cd  Cd1  1  0.41203334  0.66563787  0.90242421  1  1.227179  0.000261  1.507987  0.0  1.331563  0.000211  1.043545  0.000187  1.94271  0.0  1.107082  3.9e-05  1.882674  0.0  0.779941  0.996863  0.000258  1.98499  0.0
Cd  Cd2  1  0.41203841  0.16563927  0.59757617  1  1.22715  0.000261  1.508135  0.0  1.331616  0.000211  1.043509  0.000186  1.942899  0.0  1.107045  3.9e-05  1.882858  0.0  0.779906  0.996823  -0.000258  1.985175  0.0
Cd  Cd3  1  0.58796301  0.33436346  0.09757445  1  1.227193  0.000261  1.507977  0.0  1.331535  0.000211  1.043568  0.000186  1.942703  0.0  1.107104  3.9e-05  1.882665  0.0  0.77995  0.996884  0.000258  1.984981  0.0
Fe  Fe4  1  0.99999893  0.50000100  0.50000049  1  0.851005  0.006804  2.350259  0.012  1.278207  -0.004148  0.784982  -0.002985  2.846284  -0.003  0.882094  -0.003943  2.747379  -0.004  0.563162  0.726333  0.001414  2.91  0.001
Fe  Fe5  1  0.00000080  0.99999857  0.99999767  1  0.85108  0.006797  2.350126  0.012  1.278158  -0.004153  0.784913  -0.002991  2.846277  -0.003  0.882097  -0.003942  2.747278  -0.004  0.563061  0.726245  -0.001418  2.910077  -0.001
H  H6  1  0.19149315  0.88068369  0.46713525  1  0.441175  3e-06  0.841817  0.0  0.66436  1.8e-05  0.410227  3e-05  0.911774  0.0  0.420671  5.5e-05  0.896639  0.0  0.30386  0.402689  -9e-06  0.922746  0.0
H  H7  1  0.80850752  0.61932084  0.96713343  1  0.441211  3e-06  0.841769  0.0  0.664358  1.8e-05  0.410274  3e-05  0.911712  0.0  0.42072  5.5e-05  0.896573  0.0  0.303898  0.402736  9e-06  0.922686  0.0
H  H8  1  0.80851016  0.11931867  0.53286340  1  0.441226  3e-06  0.841808  0.0  0.664337  1.8e-05  0.410296  3e-05  0.911691  0.0  0.420743  5.5e-05  0.896553  0.0  0.303896  0.402757  -9e-06  0.922667  0.0
H  H9  1  0.19148948  0.38067737  0.03286253  1  0.441149  3e-06  0.84193  0.0  0.664293  1.8e-05  0.410223  3e-05  0.911801  0.0  0.420671  5.5e-05  0.896659  0.0  0.30387  0.402685  9e-06  0.922776  0.0
H  H10  1  0.27944592  0.01545849  0.41367397  1  0.430629  2.6e-05  0.870482  0.0  0.66251  -5e-06  0.39859  -8e-06  0.935916  0.0  0.409414  -2.8e-05  0.920422  0.0  0.295623  0.390769  -0.0  0.947119  0.0
H  H11  1  0.72055395  0.48454057  0.91367641  1  0.430624  2.6e-05  0.870485  0.0  0.662517  -5e-06  0.398575  -8e-06  0.935935  0.0  0.409398  -2.8e-05  0.920444  0.0  0.295624  0.390755  0.0  0.947137  0.0
H  H12  1  0.72055706  0.98454283  0.58632536  1  0.430645  2.6e-05  0.870463  0.0  0.662478  -5e-06  0.398589  -8e-06  0.935924  0.0  0.409412  -2.8e-05  0.920432  0.0  0.295616  0.39077  -0.0  0.947125  0.0
H  H13  1  0.27943709  0.51545454  0.08632224  1  0.43054  2.6e-05  0.870599  0.0  0.662492  -5e-06  0.398459  -8e-06  0.936109  0.0  0.409284  -2.8e-05  0.920615  0.0  0.29554  0.39064  0.0  0.94731  0.0
H  H14  1  0.82730570  0.83675144  0.73053912  1  0.130589  -0.000121  0.948269  0.0  0.094569  -0.000117  0.143463  -4.1e-05  1.009915  0.0  0.14509  -4.3e-05  1.010227  0.0  0.111431  0.142595  8.9e-05  1.009469  0.0
H  H15  1  0.17269877  0.66324858  0.23054069  1  0.13059  -0.000121  0.948058  0.0  0.094688  -0.000118  0.143463  -4.1e-05  1.009704  0.0  0.145087  -4.3e-05  1.01002  0.0  0.111432  0.142595  -9e-05  1.009267  0.0
H  H16  1  0.17270092  0.16325092  0.26946088  1  0.130641  -0.000121  0.948178  0.0  0.094528  -0.000117  0.143496  -4.1e-05  1.009854  0.0  0.145122  -4.3e-05  1.010165  0.0  0.111467  0.142628  8.9e-05  1.009412  0.0
H  H17  1  0.82729592  0.33675275  0.76946269  1  0.130619  -0.000121  0.948092  0.0  0.094658  -0.000118  0.143509  -4.1e-05  1.009693  0.0  0.145132  -4.3e-05  1.010005  0.0  0.11148  0.14264  -9e-05  1.009254  0.0
H  H18  1  0.05930638  0.76707219  0.76524998  1  0.149027  1.4e-05  0.912414  0.0  0.141647  -9.9e-05  0.162274  -6.3e-05  0.971349  0.0  0.165499  -4.8e-05  0.969394  0.0  0.11705  0.159952  3.7e-05  0.972918  0.0
H  H19  1  0.94069221  0.73292801  0.26525262  1  0.149104  1.4e-05  0.912319  0.0  0.14155  -9.8e-05  0.162316  -6.3e-05  0.971266  0.0  0.165541  -4.9e-05  0.969312  0.0  0.117059  0.159997  -3.7e-05  0.97283  0.0
H  H20  1  0.94070653  0.23292913  0.23474935  1  0.149048  1.4e-05  0.912349  0.0  0.141667  -9.9e-05  0.162313  -6.3e-05  0.971261  0.0  0.165538  -4.8e-05  0.969306  0.0  0.117063  0.159991  3.7e-05  0.972832  0.0
H  H21  1  0.05930149  0.26707539  0.73474739  1  0.149126  1.4e-05  0.912334  0.0  0.141583  -9.9e-05  0.162341  -6.3e-05  0.971274  0.0  0.165566  -4.8e-05  0.96932  0.0  0.117066  0.160018  -3.7e-05  0.972842  0.0
H  H22  1  0.75799571  0.56278182  0.75496413  1  0.138578  5e-05  0.947906  0.0  0.101007  -5.3e-05  0.151452  -2.3e-05  1.009475  0.0  0.155052  -7.7e-05  1.007969  0.0  0.109583  0.14852  -9e-06  1.011027  0.0
H  H23  1  0.24201039  0.93722173  0.25496345  1  0.138558  5e-05  0.947984  0.0  0.101025  -5.2e-05  0.151436  -2.3e-05  1.00952  0.0  0.155039  -7.7e-05  1.008028  0.0  0.109596  0.148513  9e-06  1.011062  0.0
H  H24  1  0.24200561  0.43721950  0.24503790  1  0.138528  5e-05  0.947969  0.0  0.101042  -5.3e-05  0.151412  -2.3e-05  1.009515  0.0  0.155012  -7.7e-05  1.008013  0.0  0.109605  0.148483  -9e-06  1.011058  0.0
H  H25  1  0.75798596  0.06277959  0.74503588  1  0.138533  5e-05  0.947994  0.0  0.101023  -5.3e-05  0.1514  -2.3e-05  1.009544  0.0  0.155005  -7.7e-05  1.00805  0.0  0.109573  0.148472  9e-06  1.011081  0.0
H  H26  1  0.56103639  0.62692416  0.68889040  1  0.150586  -5.2e-05  0.910378  0.0  0.100121  0.000483  0.16322  0.000262  0.967456  0.0  0.167143  0.000262  0.965371  0.0  0.117097  0.160077  -0.000184  0.969517  0.0
H  H27  1  0.43897322  0.87307378  0.18888841  1  0.150509  -5.2e-05  0.910259  0.0  0.100104  0.000483  0.163132  0.000262  0.967351  0.0  0.167058  0.000262  0.965272  0.0  0.117055  0.159992  0.000184  0.969416  0.0
H  H28  1  0.43896759  0.37308027  0.31110893  1  0.150598  -5.2e-05  0.910393  0.0  0.100257  0.000483  0.163213  0.000262  0.967488  0.0  0.167133  0.000262  0.965403  0.0  0.117121  0.160068  -0.000185  0.969547  0.0
H  H29  1  0.56102611  0.12692651  0.81111024  1  0.150515  -5.2e-05  0.910289  0.0  0.100094  0.000483  0.163131  0.000262  0.967387  0.0  0.167058  0.000262  0.965311  0.0  0.117072  0.15999  0.000184  0.969449  0.0
H  H30  1  0.13177224  0.56855644  0.67593041  1  0.39954  0.001061  0.871856  0.002  0.662824  0.000965  0.375139  0.000697  0.937513  0.001  0.386569  0.000762  0.926315  0.001  0.30707  0.367376  -0.000617  0.944982  -0.001
H  H31  1  0.86824121  0.93144907  0.17592917  1  0.399613  0.00106  0.871877  0.002  0.662742  0.000965  0.375103  0.000696  0.93768  0.001  0.386529  0.000761  0.926491  0.001  0.307107  0.367353  0.000617  0.94514  0.001
H  H32  1  0.86822940  0.43144074  0.32407094  1  0.399519  0.001061  0.871787  0.002  0.6628  0.000965  0.375104  0.000697  0.937477  0.001  0.38653  0.000762  0.926284  0.001  0.307071  0.367346  -0.000617  0.944945  -0.001
H  H33  1  0.13176078  0.06855433  0.82406948  1  0.399589  0.00106  0.871942  0.002  0.662759  0.000965  0.375076  0.000697  0.937732  0.001  0.386503  0.000761  0.926544  0.001  0.307103  0.36733  0.000617  0.945192  0.001
C  C34  1  0.81912544  0.72725227  0.55069060  1  0.609596  -0.001376  3.80069  -0.001  1.564413  0.002158  0.557706  0.002005  4.095514  0.002  0.596102  0.002829  4.089155  0.003  0.212352  0.529304  -0.001082  4.101363  -0.001
C  C35  1  0.18088747  0.77273872  0.05069296  1  0.609705  -0.001376  3.801359  -0.001  1.564139  0.002157  0.558051  0.002005  4.095965  0.002  0.596388  0.002826  4.089625  0.003  0.212567  0.529652  0.001082  4.101806  0.001
C  C36  1  0.18088813  0.27275112  0.44931075  1  0.609703  -0.001376  3.800696  -0.001  1.563932  0.002157  0.557772  0.002005  4.095561  0.002  0.596177  0.002828  4.089207  0.003  0.212364  0.529373  -0.001082  4.101398  -0.001
C  C37  1  0.81911020  0.22726157  0.94930839  1  0.609871  -0.001376  3.801107  -0.001  1.56422  0.002157  0.558179  0.002005  4.095792  0.002  0.596527  0.002827  4.089435  0.003  0.212619  0.52978  0.001082  4.101633  0.001
C  C38  1  0.90607561  0.68253718  0.64055989  1  0.261891  -0.000156  3.577837  0.0  0.517847  8e-06  0.257155  -4.6e-05  3.823522  0.0  0.261431  -0.000294  3.835706  0.0  0.073077  0.25402  -0.000114  3.815556  0.0
C  C39  1  0.09394006  0.81746713  0.14055470  1  0.261951  -0.000156  3.577381  0.0  0.517575  9e-06  0.256703  -4.6e-05  3.823752  0.0  0.261156  -0.000292  3.835664  0.0  0.07296  0.253579  0.000113  3.815783  0.0
C  C40  1  0.09393266  0.31746518  0.35943944  1  0.261683  -0.000156  3.577845  0.0  0.517809  1e-05  0.257005  -4.5e-05  3.823482  0.0  0.261248  -0.000294  3.835721  0.0  0.072985  0.253861  -0.000114  3.815521  0.0
C  C41  1  0.90605695  0.18253109  0.85944531  1  0.261823  -0.000157  3.577327  0.0  0.517662  9e-06  0.256612  -4.6e-05  3.823667  0.0  0.261068  -0.000292  3.835576  0.0  0.072874  0.253491  0.000113  3.815698  0.0
C  C42  1  0.97965328  0.80361513  0.70564288  1  -0.347972  -0.000648  3.614279  -0.001  -0.096018  7.1e-05  -0.389845  -9e-06  3.851074  0.0  -0.396937  -4e-06  3.857675  0.0  -0.161519  -0.384621  8.8e-05  3.845963  0.0
C  C43  1  0.02032938  0.69638552  0.20564424  1  -0.348108  -0.000649  3.613988  -0.001  -0.096054  7.1e-05  -0.389776  -1e-05  3.850785  0.0  -0.396901  -4e-06  3.857336  0.0  -0.161483  -0.38456  -8.8e-05  3.845681  0.0
C  C44  1  0.02035567  0.19638930  0.29435645  1  -0.348008  -0.000649  3.614044  -0.001  -0.095587  7.1e-05  -0.389911  -1e-05  3.850931  0.0  -0.396992  -3e-06  3.857536  0.0  -0.161582  -0.384685  8.8e-05  3.845822  0.0
C  C45  1  0.97967028  0.30361581  0.79435644  1  -0.348114  -0.000649  3.613949  -0.001  -0.096128  7.1e-05  -0.389802  -1e-05  3.850799  0.0  -0.396921  -4e-06  3.857339  0.0  -0.161513  -0.384588  -8.8e-05  3.845693  0.0
C  C46  1  0.13716796  0.92927384  0.66851273  1  0.736561  3.2e-05  3.80892  0.0  1.596886  -5e-06  0.681794  -2.7e-05  4.111037  0.0  0.717125  -2.2e-05  4.103258  0.0  0.210892  0.657634  7.5e-05  4.115507  0.0
C  C47  1  0.86283745  0.57073289  0.16851090  1  0.736575  3.2e-05  3.809  0.0  1.596859  -5e-06  0.681832  -2.7e-05  4.11109  0.0  0.717163  -2.2e-05  4.103315  0.0  0.210832  0.657674  -7.5e-05  4.115563  0.0
C  C48  1  0.86283369  0.07072852  0.33148525  1  0.736636  3.2e-05  3.808745  0.0  1.596461  -5e-06  0.68185  -2.7e-05  4.110923  0.0  0.717183  -2.2e-05  4.103144  0.0  0.210919  0.657688  7.5e-05  4.115395  0.0
C  C49  1  0.13715988  0.42926636  0.83149248  1  0.736648  3.2e-05  3.808985  0.0  1.596991  -5e-06  0.681907  -2.7e-05  4.1111  0.0  0.717239  -2.2e-05  4.103325  0.0  0.210961  0.657746  -7.5e-05  4.11557  0.0
C  C50  1  0.71144847  0.57977531  0.68475081  1  -0.368704  -3.4e-05  3.625034  0.0  -0.043214  1.2e-05  -0.409433  4.1e-05  3.861765  0.0  -0.417847  -1.2e-05  3.866277  0.0  -0.164156  -0.403695  -3e-05  3.859926  0.0
C  C51  1  0.28854718  0.92022584  0.18475048  1  -0.368614  -3.3e-05  3.624983  0.0  -0.042937  1.2e-05  -0.409204  4.1e-05  3.861823  0.0  -0.417684  -1.2e-05  3.866324  0.0  -0.164045  -0.403481  3e-05  3.859989  0.0
C  C52  1  0.28855450  0.42022601  0.31525122  1  -0.368593  -3.3e-05  3.625123  0.0  -0.043389  1.1e-05  -0.409301  4.1e-05  3.861858  0.0  -0.417706  -1.2e-05  3.866381  0.0  -0.164133  -0.403548  -3e-05  3.859993  0.0
C  C53  1  0.71144783  0.07977134  0.81524953  1  -0.368526  -3.3e-05  3.625005  0.0  -0.042934  1.1e-05  -0.409146  4.1e-05  3.861877  0.0  -0.417637  -1.3e-05  3.866394  0.0  -0.164032  -0.403415  3e-05  3.860027  0.0
C  C54  1  0.64106711  0.43975238  0.64014846  1  0.708566  -0.001623  3.791417  -0.002  1.566433  0.000831  0.661621  0.000566  4.087542  0.0  0.701643  0.001515  4.079922  0.001  0.210302  0.632732  0.000238  4.093212  0.001
C  C55  1  0.35893414  0.06024723  0.14014644  1  0.70863  -0.001624  3.791373  -0.002  1.566565  0.000831  0.6616  0.000566  4.08758  0.0  0.701624  0.001513  4.079973  0.001  0.210238  0.632718  -0.000239  4.093257  -0.001
C  C56  1  0.35893752  0.56024894  0.35985425  1  0.708489  -0.001623  3.791212  -0.002  1.566451  0.000831  0.661488  0.000566  4.087417  0.0  0.701509  0.001515  4.079804  0.001  0.210229  0.632597  0.000238  4.093086  0.001
C  C57  1  0.64106253  0.93974995  0.85985154  1  0.708568  -0.001624  3.791441  -0.002  1.566422  0.000831  0.661586  0.000566  4.087569  0.0  0.701614  0.001515  4.079961  0.001  0.210283  0.632704  -0.000239  4.093243  -0.001
O  O58  1  0.86037013  0.66450902  0.47925286  1  -0.555855  0.004688  2.126795  0.005  -1.144783  -0.002636  -0.510409  -0.001971  2.402994  -0.003  -0.550902  -0.003019  2.388419  -0.005  -0.29457  -0.483744  0.000931  2.412901  0.002
O  O59  1  0.13962669  0.83548796  0.97924430  1  -0.556025  0.004687  2.126625  0.005  -1.144265  -0.002639  -0.510654  -0.00197  2.402815  -0.003  -0.551161  -0.003018  2.388268  -0.005  -0.294639  -0.483977  -0.00093  2.412724  -0.002
O  O60  1  0.13963251  0.33549127  0.52074917  1  -0.555876  0.004688  2.126856  0.005  -1.144373  -0.002635  -0.510436  -0.001971  2.403129  -0.003  -0.55093  -0.003019  2.388553  -0.005  -0.294541  -0.483771  0.000931  2.413029  0.002
O  O61  1  0.86036765  0.16450715  0.02075503  1  -0.556085  0.004686  2.126504  0.005  -1.144341  -0.002636  -0.510694  -0.00197  2.402718  -0.003  -0.551204  -0.003019  2.388168  -0.005  -0.294654  -0.484021  -0.00093  2.412629  -0.002
O  O62  1  0.69554048  0.81858726  0.55001290  1  -0.630099  -0.000222  2.066402  0.0  -1.189274  0.001384  -0.55788  0.000977  2.308956  0.001  -0.588531  0.001628  2.297031  0.002  -0.310335  -0.536511  -0.000495  2.317715  -0.001
O  O63  1  0.30444033  0.68141724  0.05001200  1  -0.630047  -0.000221  2.067288  0.0  -1.189577  0.001385  -0.557846  0.000977  2.30973  0.001  -0.588485  0.001628  2.297827  0.002  -0.310333  -0.536475  0.000495  2.318489  0.001
O  O64  1  0.30447077  0.18141406  0.44998913  1  -0.630091  -0.000221  2.066492  0.0  -1.189218  0.001384  -0.557892  0.000977  2.309104  0.001  -0.588545  0.001628  2.297175  0.002  -0.310317  -0.536522  -0.000495  2.317859  -0.001
O  O65  1  0.69555369  0.31858202  0.94999070  1  -0.630066  -0.000221  2.067202  0.0  -1.189668  0.001385  -0.557914  0.000977  2.30973  0.001  -0.588556  0.001629  2.29782  0.002  -0.310354  -0.53654  0.000495  2.318489  0.001
O  O66  1  0.20646302  0.93178737  0.58746344  1  -0.660528  1.2e-05  2.004392  0.0  -1.201493  4.5e-05  -0.589498  2.4e-05  2.244778  0.0  -0.619808  3.2e-05  2.233839  0.0  -0.314789  -0.567994  0.000163  2.251815  0.0
O  O67  1  0.79353478  0.56821101  0.08747290  1  -0.660387  1.2e-05  2.004838  0.0  -1.201447  4.5e-05  -0.589372  2.4e-05  2.245211  0.0  -0.619679  3.3e-05  2.23427  0.0  -0.314696  -0.567872  -0.000163  2.252257  0.0
O  O68  1  0.79354559  0.06821602  0.41253589  1  -0.660555  1.2e-05  2.004414  0.0  -1.201424  4.5e-05  -0.589516  2.4e-05  2.244813  0.0  -0.619829  3.3e-05  2.233874  0.0  -0.314787  -0.568009  0.000163  2.25185  0.0
O  O69  1  0.20645427  0.43178825  0.91253116  1  -0.660407  1.2e-05  2.004805  0.0  -1.201562  4.6e-05  -0.589409  2.4e-05  2.2452  0.0  -0.619717  3.2e-05  2.234258  0.0  -0.314765  -0.567912  -0.000163  2.252246  0.0
O  O70  1  0.19572649  0.03515030  0.71974291  1  -0.666776  0.000631  2.006757  0.001  -1.211145  0.000542  -0.597469  0.000418  2.248275  0.0  -0.628405  0.000378  2.238593  0.0  -0.316178  -0.575736  0.00048  2.254364  0.001
O  O71  1  0.80428101  0.46484837  0.21974984  1  -0.666807  0.000631  2.006248  0.001  -1.21099  0.000542  -0.597616  0.000418  2.247817  0.0  -0.628559  0.000379  2.238137  0.0  -0.316189  -0.575869  -0.000481  2.253904  -0.001
O  O72  1  0.80427516  0.96485206  0.28025440  1  -0.66677  0.00063  2.00661  0.001  -1.211046  0.000542  -0.597483  0.000418  2.248166  0.0  -0.628419  0.000378  2.238481  0.0  -0.316202  -0.575745  0.00048  2.254258  0.001
O  O73  1  0.19572394  0.53514880  0.78025286  1  -0.666879  0.000631  2.006331  0.001  -1.210944  0.000542  -0.597671  0.000418  2.247865  0.0  -0.628615  0.000379  2.238182  0.0  -0.31628  -0.57592  -0.000481  2.253949  -0.001
O  O74  1  0.72285222  0.40630757  0.56571454  1  -0.585912  0.000376  2.117911  0.002  -1.167627  0.00307  -0.535094  0.002056  2.389955  0.003  -0.577439  0.000189  2.375534  0.0  -0.301916  -0.506244  -0.002876  2.399228  -0.004
O  O75  1  0.27715013  0.09368974  0.06571051  1  -0.585935  0.000379  2.1178  0.002  -1.167579  0.003071  -0.535059  0.002057  2.389863  0.003  -0.577413  0.00019  2.375443  0.0  -0.301881  -0.506204  0.002877  2.399145  0.004
O  O76  1  0.27714446  0.59369480  0.43428682  1  -0.585848  0.000377  2.117709  0.002  -1.167689  0.003071  -0.535019  0.002057  2.389773  0.003  -0.577365  0.000189  2.375358  0.0  -0.301885  -0.506167  -0.002877  2.399045  -0.004
O  O77  1  0.72285117  0.90630641  0.93428612  1  -0.585938  0.00038  2.117821  0.002  -1.167655  0.003071  -0.535079  0.002057  2.389876  0.003  -0.577433  0.000189  2.375452  0.0  -0.30191  -0.506227  0.002877  2.39916  0.004
O  O78  1  0.49278452  0.35313982  0.68337420  1  -0.630467  -0.000681  1.97037  -0.001  -1.180478  0.00163  -0.564041  0.001162  2.219663  0.001  -0.596347  0.001683  2.208725  0.002  -0.325296  -0.540901  -0.000711  2.226842  -0.001
O  O79  1  0.50721226  0.14685354  0.18336897  1  -0.63055  -0.000681  1.970482  -0.001  -1.180637  0.00163  -0.564046  0.001162  2.219756  0.001  -0.596347  0.001683  2.208812  0.002  -0.325278  -0.540903  0.000711  2.226938  0.001
O  O80  1  0.50722176  0.64686150  0.31662918  1  -0.630471  -0.000681  1.970399  -0.001  -1.180456  0.00163  -0.564  0.001161  2.219685  0.001  -0.596304  0.001683  2.208749  0.002  -0.325293  -0.540861  -0.000711  2.226871  -0.001
O  O81  1  0.49278044  0.85314675  0.81662901  1  -0.630474  -0.000681  1.970493  -0.001  -1.1805  0.00163  -0.563997  0.001161  2.219763  0.001  -0.596298  0.001683  2.208818  0.002  -0.325279  -0.540855  0.000711  2.226944  0.001
O  O82  1  0.09189514  0.61495190  0.61886756  1  -0.536551  -0.005682  2.105986  -0.008  -1.136547  -0.006494  -0.483401  -0.004785  2.343515  -0.006  -0.512189  -0.003811  2.329164  -0.005  -0.363522  -0.461534  0.00537  2.352132  0.007
O  O83  1  0.90809576  0.88505399  0.11887643  1  -0.536717  -0.005683  2.105722  -0.008  -1.136426  -0.006494  -0.483321  -0.004785  2.343442  -0.006  -0.512163  -0.003813  2.329044  -0.005  -0.363604  -0.461457  -0.00537  2.352066  -0.007
O  O84  1  0.90811313  0.38505045  0.38113447  1  -0.536563  -0.005682  2.105893  -0.008  -1.136547  -0.0065  -0.483406  -0.004785  2.343421  -0.006  -0.512179  -0.003812  2.329083  -0.005  -0.363564  -0.461541  0.005371  2.352037  0.007
O  O85  1  0.09190555  0.11494733  0.88112290  1  -0.536706  -0.005681  2.105717  -0.008  -1.136484  -0.006493  -0.48329  -0.004784  2.343415  -0.006  -0.51214  -0.003812  2.329022  -0.005  -0.363592  -0.461435  -0.00537  2.35204  -0.007
O  O86  1  0.25422235  0.91271170  0.40759425  1  -0.82654  4.2e-05  1.867169  0.0  -1.27278  5.6e-05  -0.761522  4.3e-05  2.070263  0.0  -0.785377  -4.2e-05  2.036694  0.0  -0.577588  -0.744661  -8.1e-05  2.094349  0.0
O  O87  1  0.74577794  0.58729016  0.90759259  1  -0.826591  4.2e-05  1.867155  0.0  -1.272726  5.6e-05  -0.761579  4.3e-05  2.070224  0.0  -0.785434  -4.2e-05  2.036656  0.0  -0.577594  -0.744714  8.1e-05  2.094308  0.0
O  O88  1  0.74577897  0.08728962  0.59240440  1  -0.826636  4.1e-05  1.867139  0.0  -1.272719  5.6e-05  -0.761618  4.3e-05  2.070167  0.0  -0.785472  -4.1e-05  2.036596  0.0  -0.57763  -0.744758  -8.1e-05  2.09425  0.0
O  O89  1  0.25421674  0.41270599  0.09240337  1  -0.826435  4.1e-05  1.867281  0.0  -1.272653  5.6e-05  -0.761419  4.3e-05  2.070273  0.0  -0.785275  -4.2e-05  2.036706  0.0  -0.577496  -0.744554  8.1e-05  2.094355  0.0
