# generated using pymatgen
data_Ag2H6C4N4O5
_symmetry_space_group_name_H-M   'P 1'
_cell_length_a   6.96023468
_cell_length_b   11.26544838
_cell_length_c   11.91531924
_cell_angle_alpha   89.99983792
_cell_angle_beta   90.00000026
_cell_angle_gamma   103.94648649
_symmetry_Int_Tables_number   1
_chemical_formula_structural   Ag2H6C4N4O5
_chemical_formula_sum   'Ag8 H24 C16 N16 O20'
_cell_volume   906.74067709
_cell_formula_units_Z   4
loop_
 _symmetry_equiv_pos_site_id
 _symmetry_equiv_pos_as_xyz
  1  'x, y, z'
loop_
 _atom_site_type_symbol
 _atom_site_label
 _atom_site_symmetry_multiplicity
 _atom_site_fract_x
 _atom_site_fract_y
 _atom_site_fract_z
 _atom_site_occupancy
 _atom_site_hle17_bader_spin_density
 _atom_site_hle17_ddec_charge
 _atom_site_hle17_ddec_spin_density
 _atom_site_hle17_ddec_sum_bond_order
 _atom_site_hle17_magmom
 _atom_site_hse06_10hf_bader_spin_density
 _atom_site_hse06_10hf_ddec_charge
 _atom_site_hse06_10hf_ddec_spin_density
 _atom_site_hse06_10hf_ddec_sum_bond_order
 _atom_site_hse06_10hf_magmom
 _atom_site_hse06_bader_spin_density
 _atom_site_hse06_ddec_charge
 _atom_site_hse06_ddec_spin_density
 _atom_site_hse06_ddec_sum_bond_order
 _atom_site_hse06_magmom
 _atom_site_pbe_bader_spin_density
 _atom_site_pbe_cm5_charge
 _atom_site_pbe_ddec_charge
 _atom_site_pbe_ddec_spin_density
 _atom_site_pbe_ddec_sum_bond_order
 _atom_site_pbe_magmom
Ag  Ag0  1  0.41190025  0.72054077  0.09216947  1  0  0.558177  0  1.394325  0  0  0.425804  0  1.841693  0  0  0.456784  0  1.788112  0  0  0.428832  0.403566  0  1.879658  0
Ag  Ag1  1  0.08810339  0.77946040  0.59217026  1  0  0.558193  0  1.3943  0  0  0.425796  0  1.841674  0  0  0.456773  0  1.788095  0  0  0.428835  0.403556  0  1.879638  0
Ag  Ag2  1  0.58809261  0.27945642  0.90783012  1  0  0.558165  0  1.394294  0  0  0.425768  0  1.841681  0  0  0.456748  0  1.788099  0  0  0.428816  0.403528  0  1.879644  0
Ag  Ag3  1  0.91189869  0.22054235  0.40783270  1  0  0.558191  0  1.394291  0  0  0.425824  0  1.841675  0  0  0.456805  0  1.788093  0  0  0.428839  0.403583  0  1.879641  0
Ag  Ag4  1  0.07948591  0.71862847  0.23222782  1  0  0.480489  0  1.552884  0  0  0.341404  0  2.007184  0  0  0.364028  0  1.965135  0  0  0.463832  0.326578  0  2.035865  0
Ag  Ag5  1  0.42051076  0.78136945  0.73222862  1  0  0.480534  0  1.553008  0  0  0.341434  0  2.007321  0  0  0.364058  0  1.965271  0  0  0.463858  0.326612  0  2.036  0
Ag  Ag6  1  0.92051161  0.28136968  0.76777178  1  0  0.4805  0  1.552947  0  0  0.341433  0  2.007258  0  0  0.364055  0  1.965206  0  0  0.463839  0.326607  0  2.035936  0
Ag  Ag7  1  0.57948288  0.21862592  0.26777266  1  0  0.480481  0  1.553002  0  0  0.341405  0  2.007327  0  0  0.364029  0  1.965278  0  0  0.463846  0.326579  0  2.036007  0
H  H8  1  0.71561806  0.61197456  0.03654543  1  0  0.429701  0  0.86336  0  0  0.400212  0  0.929084  0  0  0.409928  0  0.914861  0  0  0.298241  0.393162  0  0.939419  0
H  H9  1  0.78438203  0.88802692  0.53654678  1  0  0.429738  0  0.863321  0  0  0.400251  0  0.929028  0  0  0.409967  0  0.914806  0  0  0.298231  0.3932  0  0.939364  0
H  H10  1  0.28437835  0.38802449  0.96345584  1  0  0.429686  0  0.86334  0  0  0.400183  0  0.929119  0  0  0.4099  0  0.914893  0  0  0.298198  0.393132  0  0.939455  0
H  H11  1  0.21561860  0.11197582  0.46345450  1  0  0.4297  0  0.863375  0  0  0.40021  0  0.929093  0  0  0.409927  0  0.914868  0  0  0.298207  0.393159  0  0.939429  0
H  H12  1  0.56574436  0.52308192  0.11810106  1  0  0.427771  0  0.857906  0  0  0.399651  0  0.924994  0  0  0.408778  0  0.911696  0  0  0.299755  0.393053  0  0.934631  0
H  H13  1  0.93425595  0.97692020  0.61810134  1  0  0.427795  0  0.857917  0  0  0.399677  0  0.924962  0  0  0.408804  0  0.911664  0  0  0.29977  0.39308  0  0.934599  0
H  H14  1  0.43424995  0.47691528  0.88190021  1  0  0.427717  0  0.85805  0  0  0.399655  0  0.924948  0  0  0.408772  0  0.911671  0  0  0.299783  0.39306  0  0.934582  0
H  H15  1  0.06574712  0.02308529  0.38189742  1  0  0.427783  0  0.857946  0  0  0.399677  0  0.924954  0  0  0.4088  0  0.911663  0  0  0.299748  0.39308  0  0.934591  0
H  H16  1  0.16242167  0.37169533  0.52785696  1  0  0.046369  0  0.966598  0  0  0.062836  0  1.043378  0  0  0.063562  0  1.040422  0  0  0.085441  0.062104  0  1.045689  0
H  H17  1  0.33758233  0.12830826  0.02786061  1  0  0.046373  0  0.96666  0  0  0.06282  0  1.043425  0  0  0.063544  0  1.040472  0  0  0.085439  0.062089  0  1.045736  0
H  H18  1  0.83758806  0.62830476  0.47214432  1  0  0.046428  0  0.966749  0  0  0.062939  0  1.043476  0  0  0.063671  0  1.040517  0  0  0.085475  0.062203  0  1.045794  0
H  H19  1  0.66242163  0.87169178  0.97214402  1  0  0.046446  0  0.966692  0  0  0.06291  0  1.043444  0  0  0.063635  0  1.040489  0  0  0.085465  0.062178  0  1.045756  0
H  H20  1  0.35466525  0.39129822  0.62941695  1  0  0.070098  0  0.915443  0  0  0.089544  0  0.972588  0  0  0.089062  0  0.973625  0  0  0.101785  0.089711  0  0.97207  0
H  H21  1  0.14534082  0.10870325  0.12941813  1  0  0.070125  0  0.915598  0  0  0.08955  0  0.972719  0  0  0.089067  0  0.973759  0  0  0.101795  0.089718  0  0.9722  0
H  H22  1  0.64534115  0.60870458  0.37058432  1  0  0.07008  0  0.915457  0  0  0.08955  0  0.97261  0  0  0.089067  0  0.97365  0  0  0.101787  0.089732  0  0.972075  0
H  H23  1  0.85466059  0.89129767  0.87058315  1  0  0.07009  0  0.915491  0  0  0.089538  0  0.972641  0  0  0.089058  0  0.973677  0  0  0.101778  0.089714  0  0.972113  0
H  H24  1  0.47051460  0.59614541  0.56184988  1  0  0.075401  0  0.953009  0  0  0.095717  0  1.011334  0  0  0.095111  0  1.012285  0  0  0.10144  0.096032  0  1.010795  0
H  H25  1  0.02948830  0.90385767  0.06184943  1  0  0.0754  0  0.953017  0  0  0.095723  0  1.011342  0  0  0.095117  0  1.012292  0  0  0.10146  0.096039  0  1.010804  0
H  H26  1  0.52948747  0.40385734  0.43814804  1  0  0.075387  0  0.953012  0  0  0.095704  0  1.011332  0  0  0.095099  0  1.012281  0  0  0.101434  0.096019  0  1.010793  0
H  H27  1  0.97050811  0.09614138  0.93814849  1  0  0.075406  0  0.953028  0  0  0.095686  0  1.011383  0  0  0.095079  0  1.012335  0  0  0.10145  0.096001  0  1.010844  0
H  H28  1  0.25559703  0.58185592  0.47688280  1  0  0.069747  0  0.938479  0  0  0.085689  0  1.003109  0  0  0.085298  0  1.003648  0  0  0.095526  0.085836  0  1.002896  0
H  H29  1  0.24440452  0.91814764  0.97688071  1  0  0.069796  0  0.93844  0  0  0.085737  0  1.003087  0  0  0.085347  0  1.003625  0  0  0.09555  0.085884  0  1.002876  0
H  H30  1  0.74440482  0.41814227  0.52312015  1  0  0.069735  0  0.938336  0  0  0.085662  0  1.003003  0  0  0.085272  0  1.003541  0  0  0.095502  0.085807  0  1.002795  0
H  H31  1  0.75559578  0.08185418  0.02311889  1  0  0.069808  0  0.938414  0  0  0.085745  0  1.003043  0  0  0.085355  0  1.003583  0  0  0.095554  0.085892  0  1.002833  0
C  C32  1  0.97991815  0.58409239  0.80153211  1  0  -0.077014  0  3.580402  0  0  -0.140814  0  3.88041  0  0  -0.149267  0  3.890992  0  0  0.159298  -0.136142  0  3.874252  0
C  C33  1  0.52008379  0.91590643  0.30153331  1  0  -0.076896  0  3.580197  0  0  -0.140834  0  3.880388  0  0  -0.149288  0  3.890969  0  0  0.159335  -0.136162  0  3.874229  0
C  C34  1  0.02008115  0.41590668  0.19846496  1  0  -0.076936  0  3.580202  0  0  -0.140853  0  3.880373  0  0  -0.149294  0  3.890938  0  0  0.159303  -0.13618  0  3.874213  0
C  C35  1  0.47991518  0.08409173  0.69846713  1  0  -0.077002  0  3.580374  0  0  -0.140793  0  3.880381  0  0  -0.149222  0  3.890925  0  0  0.159316  -0.136121  0  3.874223  0
C  C36  1  0.10030078  0.54819244  0.71070788  1  0  0.351808  0  3.92042  0  0  0.321194  0  4.169738  0  0  0.344707  0  4.186038  0  0  0.214777  0.305475  0  4.158408  0
C  C37  1  0.39969959  0.95180377  0.21070732  1  0  0.351777  0  3.920303  0  0  0.321174  0  4.169677  0  0  0.344687  0  4.185979  0  0  0.214734  0.305455  0  4.158347  0
C  C38  1  0.89969475  0.45181207  0.28929171  1  0  0.351742  0  3.92034  0  0  0.321135  0  4.169726  0  0  0.344642  0  4.186024  0  0  0.214814  0.305414  0  4.158401  0
C  C39  1  0.60030093  0.04819077  0.78928976  1  0  0.351907  0  3.92032  0  0  0.321234  0  4.169699  0  0  0.344743  0  4.185993  0  0  0.214808  0.305514  0  4.158371  0
C  C40  1  0.23530935  0.43056789  0.59704428  1  0  0.042118  0  3.585109  0  0  -0.009384  0  3.82897  0  0  -0.005253  0  3.843663  0  0  -0.066787  -0.011897  0  3.818943  0
C  C41  1  0.26469023  0.06943544  0.09704473  1  0  0.041974  0  3.585356  0  0  -0.009433  0  3.829097  0  0  -0.005298  0  3.843785  0  0  -0.06685  -0.011947  0  3.819073  0
C  C42  1  0.76469450  0.56943579  0.40295699  1  0  0.04203  0  3.585113  0  0  -0.009591  0  3.829076  0  0  -0.005464  0  3.843768  0  0  -0.06685  -0.012112  0  3.819051  0
C  C43  1  0.73530830  0.93056545  0.90295738  1  0  0.042057  0  3.585282  0  0  -0.009477  0  3.829153  0  0  -0.005344  0  3.843839  0  0  -0.066817  -0.011997  0  3.81913  0
C  C44  1  0.30907185  0.56563658  0.56072531  1  0  0.016731  0  3.57966  0  0  -0.040039  0  3.819711  0  0  -0.035033  0  3.834899  0  0  -0.080511  -0.043327  0  3.809315  0
C  C45  1  0.19092784  0.93436557  0.06072395  1  0  0.016767  0  3.579609  0  0  -0.040047  0  3.819714  0  0  -0.035042  0  3.834901  0  0  -0.080528  -0.043333  0  3.809316  0
C  C46  1  0.69092745  0.43436250  0.43927344  1  0  0.016769  0  3.579464  0  0  -0.039936  0  3.819527  0  0  -0.034934  0  3.834722  0  0  -0.080467  -0.043224  0  3.809131  0
C  C47  1  0.80907035  0.06563441  0.93927481  1  0  0.01673  0  3.579601  0  0  -0.039983  0  3.819633  0  0  -0.03498  0  3.834824  0  0  -0.080528  -0.043272  0  3.809243  0
N  N48  1  0.78277629  0.58161174  0.77903334  1  0  0.45002  0  4.035039  0  0  0.498297  0  4.316152  0  0  0.52088  0  4.324104  0  0  0.014792  0.483184  0  4.311367  0
N  N49  1  0.71722846  0.91839084  0.27903622  1  0  0.450093  0  4.03488  0  0  0.49843  0  4.315923  0  0  0.521013  0  4.323876  0  0  0.014891  0.483317  0  4.311139  0
N  N50  1  0.21722368  0.41838917  0.22096625  1  0  0.450012  0  4.035063  0  0  0.49833  0  4.316154  0  0  0.520912  0  4.32411  0  0  0.014816  0.483217  0  4.311368  0
N  N51  1  0.28277439  0.08161010  0.72096841  1  0  0.449971  0  4.034996  0  0  0.498274  0  4.316057  0  0  0.520851  0  4.324009  0  0  0.014762  0.483161  0  4.311273  0
N  N52  1  0.06747700  0.62048680  0.90379535  1  0  0.465397  0  3.989556  0  0  0.512402  0  4.255967  0  0  0.533991  0  4.269343  0  0  0.011362  0.497943  0  4.246834  0
N  N53  1  0.43252654  0.87951429  0.40379583  1  0  0.465391  0  3.989703  0  0  0.51241  0  4.256165  0  0  0.534002  0  4.269543  0  0  0.011337  0.497949  0  4.247029  0
N  N54  1  0.93252408  0.37951321  0.09620256  1  0  0.465362  0  3.989779  0  0  0.512366  0  4.256246  0  0  0.533954  0  4.269627  0  0  0.011328  0.497906  0  4.247111  0
N  N55  1  0.56747165  0.12048569  0.59620461  1  0  0.465327  0  3.989689  0  0  0.512331  0  4.256101  0  0  0.533916  0  4.269479  0  0  0.011323  0.497871  0  4.246963  0
N  N56  1  0.09244458  0.43338269  0.68790882  1  0  -0.418983  0  3.214459  0  0  -0.326302  0  3.505074  0  0  -0.353438  0  3.520597  0  0  -0.406729  -0.307933  0  3.493993  0
N  N57  1  0.40755465  0.06661578  0.18790928  1  0  -0.418909  0  3.214422  0  0  -0.326193  0  3.504951  0  0  -0.353332  0  3.520477  0  0  -0.406672  -0.307825  0  3.493872  0
N  N58  1  0.90755339  0.56661273  0.31208826  1  0  -0.41885  0  3.214542  0  0  -0.326077  0  3.505097  0  0  -0.353212  0  3.520626  0  0  -0.406678  -0.307712  0  3.494022  0
N  N59  1  0.59244576  0.93338239  0.81209116  1  0  -0.419101  0  3.214482  0  0  -0.326332  0  3.505041  0  0  -0.353471  0  3.520566  0  0  -0.406758  -0.307965  0  3.493968  0
N  N60  1  0.22301659  0.63452038  0.64656681  1  0  -0.513323  0  3.308349  0  0  -0.389847  0  3.581465  0  0  -0.423267  0  3.597896  0  0  -0.466512  -0.366966  0  3.56955  0
N  N61  1  0.27698808  0.86547972  0.14656396  1  0  -0.513347  0  3.308284  0  0  -0.389905  0  3.581472  0  0  -0.423326  0  3.597899  0  0  -0.466481  -0.367024  0  3.569561  0
N  N62  1  0.77698304  0.36547961  0.35343362  1  0  -0.513279  0  3.308201  0  0  -0.389885  0  3.581422  0  0  -0.423307  0  3.597856  0  0  -0.466518  -0.367002  0  3.569505  0
N  N63  1  0.72301166  0.13451663  0.85343396  1  0  -0.513368  0  3.308291  0  0  -0.389912  0  3.581447  0  0  -0.423333  0  3.597876  0  0  -0.466497  -0.36703  0  3.569535  0
O  O64  1  0.66638058  0.60378779  0.85331248  1  0  -0.425612  0  1.84326  0  0  -0.406205  0  2.068659  0  0  -0.418049  0  2.058835  0  0  -0.166446  -0.397897  0  2.075853  0
O  O65  1  0.83362052  0.89621269  0.35331626  1  0  -0.425695  0  1.843443  0  0  -0.406234  0  2.068783  0  0  -0.41808  0  2.058952  0  0  -0.166449  -0.397925  0  2.075978  0
O  O66  1  0.33362083  0.39621313  0.14668628  1  0  -0.425634  0  1.843242  0  0  -0.406201  0  2.06865  0  0  -0.418045  0  2.058804  0  0  -0.166445  -0.39789  0  2.075841  0
O  O67  1  0.16638122  0.10378915  0.64668837  1  0  -0.425612  0  1.843256  0  0  -0.406169  0  2.068626  0  0  -0.41803  0  2.058826  0  0  -0.166427  -0.39786  0  2.075819  0
O  O68  1  0.72647318  0.55569869  0.67940617  1  0  -0.396088  0  1.788024  0  0  -0.390108  0  2.017785  0  0  -0.402217  0  2.011502  0  0  -0.156171  -0.381468  0  2.022164  0
O  O69  1  0.77353692  0.94431063  0.17941066  1  0  -0.396137  0  1.787844  0  0  -0.390204  0  2.017615  0  0  -0.402313  0  2.01133  0  0  -0.156285  -0.381567  0  2.021995  0
O  O70  1  0.27352567  0.44430311  0.32059175  1  0  -0.396104  0  1.788088  0  0  -0.390127  0  2.01783  0  0  -0.402238  0  2.011547  0  0  -0.15622  -0.38149  0  2.022212  0
O  O71  1  0.22647048  0.05569491  0.82059314  1  0  -0.39607  0  1.788006  0  0  -0.390116  0  2.017766  0  0  -0.402224  0  2.011485  0  0  -0.156192  -0.381479  0  2.02215  0
O  O72  1  0.97846551  0.65306845  0.98583174  1  0  -0.414252  0  1.85794  0  0  -0.396494  0  2.089025  0  0  -0.410318  0  2.08313  0  0  -0.161229  -0.386787  0  2.092893  0
O  O73  1  0.52153496  0.84693432  0.48583564  1  0  -0.414224  0  1.85796  0  0  -0.396461  0  2.089067  0  0  -0.410274  0  2.083145  0  0  -0.161169  -0.386751  0  2.092933  0
O  O74  1  0.02153524  0.34693064  0.01416534  1  0  -0.414276  0  1.857995  0  0  -0.396493  0  2.089103  0  0  -0.410304  0  2.083173  0  0  -0.161209  -0.386783  0  2.092969  0
O  O75  1  0.47846356  0.15306657  0.51416648  1  0  -0.414181  0  1.857972  0  0  -0.396432  0  2.089073  0  0  -0.410255  0  2.083181  0  0  -0.161183  -0.386724  0  2.092938  0
O  O76  1  0.25214862  0.62280410  0.91050856  1  0  -0.442438  0  1.875692  0  0  -0.412612  0  2.132222  0  0  -0.429783  0  2.121351  0  0  -0.182756  -0.400737  0  2.139936  0
O  O77  1  0.24785457  0.87719605  0.41050903  1  0  -0.442511  0  1.875806  0  0  -0.412659  0  2.132329  0  0  -0.429831  0  2.121461  0  0  -0.1828  -0.400782  0  2.14004  0
O  O78  1  0.74785212  0.37719499  0.08948852  1  0  -0.44247  0  1.875857  0  0  -0.412611  0  2.132377  0  0  -0.429785  0  2.12151  0  0  -0.182785  -0.400735  0  2.140087  0
O  O79  1  0.75214284  0.12280574  0.58949140  1  0  -0.442452  0  1.875808  0  0  -0.412606  0  2.132328  0  0  -0.42978  0  2.121466  0  0  -0.182762  -0.400729  0  2.140038  0
O  O80  1  0.62677355  0.60951452  0.10158524  1  0  -0.796149  0  1.991393  0  0  -0.721006  0  2.218781  0  0  -0.745562  0  2.185765  0  0  -0.587967  -0.703551  0  2.242202  0
O  O81  1  0.87322645  0.89048674  0.60158658  1  0  -0.796182  0  1.991354  0  0  -0.721037  0  2.218688  0  0  -0.745592  0  2.185674  0  0  -0.587968  -0.703582  0  2.242112  0
O  O82  1  0.37321965  0.39048358  0.89841268  1  0  -0.796044  0  1.991526  0  0  -0.72089  0  2.218912  0  0  -0.745445  0  2.185898  0  0  -0.587936  -0.703438  0  2.242331  0
O  O83  1  0.12677807  0.10951877  0.39841302  1  0  -0.796153  0  1.991432  0  0  -0.72101  0  2.218784  0  0  -0.745565  0  2.185772  0  0  -0.587926  -0.703555  0  2.242207  0
