# generated using pymatgen
data_CdHC2O3
_symmetry_space_group_name_H-M   'P 1'
_cell_length_a   5.91164128
_cell_length_b   6.96349859
_cell_length_c   15.85023616
_cell_angle_alpha   90.00025559
_cell_angle_beta   90.00002783
_cell_angle_gamma   90.00069692
_symmetry_Int_Tables_number   1
_chemical_formula_structural   CdHC2O3
_chemical_formula_sum   'Cd8 H8 C16 O24'
_cell_volume   652.48615767
_cell_formula_units_Z   8
loop_
 _symmetry_equiv_pos_site_id
 _symmetry_equiv_pos_as_xyz
  1  'x, y, z'
loop_
 _atom_site_type_symbol
 _atom_site_label
 _atom_site_symmetry_multiplicity
 _atom_site_fract_x
 _atom_site_fract_y
 _atom_site_fract_z
 _atom_site_occupancy
 _atom_site_hle17_bader_spin_density
 _atom_site_hle17_ddec_charge
 _atom_site_hle17_ddec_spin_density
 _atom_site_hle17_ddec_sum_bond_order
 _atom_site_hle17_magmom
 _atom_site_hse06_10hf_bader_spin_density
 _atom_site_hse06_10hf_ddec_charge
 _atom_site_hse06_10hf_ddec_spin_density
 _atom_site_hse06_10hf_ddec_sum_bond_order
 _atom_site_hse06_10hf_magmom
 _atom_site_hse06_bader_spin_density
 _atom_site_hse06_ddec_charge
 _atom_site_hse06_ddec_spin_density
 _atom_site_hse06_ddec_sum_bond_order
 _atom_site_hse06_magmom
 _atom_site_pbe_bader_spin_density
 _atom_site_pbe_cm5_charge
 _atom_site_pbe_ddec_charge
 _atom_site_pbe_ddec_spin_density
 _atom_site_pbe_ddec_sum_bond_order
 _atom_site_pbe_magmom
Cd  Cd0  1  0.02764168  0.60176441  0.69218397  1  0  1.284123  0  1.672535  0  0  1.118934  0  2.120427  0  0  1.173288  0  2.061828  0  0  0.740884  1.079179  0  2.161434  0
Cd  Cd1  1  0.97235071  0.89822979  0.19218676  1  0  1.284024  0  1.672683  0  0  1.118839  0  2.120627  0  0  1.173187  0  2.06203  0  0  0.740819  1.079088  0  2.16163  0
Cd  Cd2  1  0.52764695  0.39823054  0.80781554  1  0  1.284104  0  1.672634  0  0  1.118911  0  2.120506  0  0  1.173262  0  2.061906  0  0  0.740855  1.079157  0  2.161515  0
Cd  Cd3  1  0.47235195  0.10177039  0.30781323  1  0  1.284123  0  1.672489  0  0  1.118902  0  2.120445  0  0  1.173256  0  2.061843  0  0  0.740885  1.079143  0  2.161452  0
Cd  Cd4  1  0.97235058  0.39823028  0.30781168  1  0  1.284059  0  1.672607  0  0  1.11888  0  2.12053  0  0  1.173235  0  2.061929  0  0  0.74086  1.079122  0  2.161535  0
Cd  Cd5  1  0.02764155  0.10176921  0.80781330  1  0  1.284141  0  1.672582  0  0  1.11895  0  2.120474  0  0  1.173302  0  2.061873  0  0  0.740879  1.079196  0  2.161479  0
Cd  Cd6  1  0.47235039  0.60177277  0.19218705  1  0  1.284089  0  1.672542  0  0  1.118901  0  2.120481  0  0  1.173253  0  2.061878  0  0  0.740864  1.079148  0  2.161489  0
Cd  Cd7  1  0.52764031  0.89822861  0.69218368  1  0  1.284136  0  1.672433  0  0  1.118943  0  2.120353  0  0  1.173296  0  2.061754  0  0  0.740902  1.079185  0  2.161361  0
H  H8  1  0.29610618  0.72919522  0.82157210  1  0  0.399017  0  0.915393  0  0  0.368861  0  0.980068  0  0  0.378887  0  0.965865  0  0  0.270775  0.361605  0  0.990318  0
H  H9  1  0.70388128  0.77080892  0.32156449  1  0  0.398989  0  0.915481  0  0  0.368872  0  0.980084  0  0  0.378894  0  0.965888  0  0  0.270821  0.361615  0  0.990334  0
H  H10  1  0.79610102  0.27079676  0.67842557  1  0  0.398938  0  0.915508  0  0  0.368794  0  0.980166  0  0  0.378822  0  0.96596  0  0  0.270718  0.361536  0  0.990417  0
H  H11  1  0.20388251  0.22919136  0.17843355  1  0  0.398996  0  0.915455  0  0  0.368879  0  0.980062  0  0  0.378901  0  0.965864  0  0  0.270787  0.361623  0  0.990312  0
H  H12  1  0.70387593  0.27080808  0.17843175  1  0  0.39901  0  0.91544  0  0  0.368874  0  0.980083  0  0  0.3789  0  0.965881  0  0  0.270783  0.361617  0  0.990335  0
H  H13  1  0.29610591  0.22920014  0.67842485  1  0  0.399003  0  0.915383  0  0  0.368834  0  0.980083  0  0  0.378864  0  0.965874  0  0  0.270708  0.361575  0  0.990337  0
H  H14  1  0.20388278  0.72919650  0.32156755  1  0  0.39904  0  0.915388  0  0  0.368902  0  0.980028  0  0  0.378927  0  0.965826  0  0  0.270762  0.361644  0  0.99028  0
H  H15  1  0.79610298  0.77079759  0.82157282  1  0  0.399005  0  0.915387  0  0  0.368852  0  0.980064  0  0  0.37888  0  0.965857  0  0  0.270706  0.361593  0  0.990317  0
C  C16  1  0.58428374  0.56979843  0.54856721  1  0  0.232327  0  3.80965  0  0  0.205589  0  4.088311  0  0  0.219747  0  4.099332  0  0  0.10707  0.195724  0  4.080817  0
C  C17  1  0.41574233  0.93021871  0.04856552  1  0  0.232671  0  3.808604  0  0  0.205978  0  4.087248  0  0  0.220142  0  4.098246  0  0  0.107173  0.196106  0  4.079773  0
C  C18  1  0.08428645  0.43020716  0.95143988  1  0  0.232693  0  3.80907  0  0  0.20588  0  4.087837  0  0  0.220037  0  4.098847  0  0  0.107168  0.196013  0  4.080355  0
C  C19  1  0.91572275  0.06980242  0.45142877  1  0  0.232255  0  3.809723  0  0  0.205547  0  4.088361  0  0  0.219702  0  4.099387  0  0  0.10702  0.195684  0  4.08086  0
C  C20  1  0.41573559  0.43021924  0.45143096  1  0  0.232406  0  3.809019  0  0  0.205664  0  4.087735  0  0  0.21981  0  4.098765  0  0  0.106996  0.195809  0  4.080232  0
C  C21  1  0.58427700  0.06978890  0.95144147  1  0  0.232696  0  3.808809  0  0  0.205933  0  4.087542  0  0  0.220092  0  4.098545  0  0  0.107187  0.196064  0  4.080063  0
C  C22  1  0.91574641  0.56978466  0.04856649  1  0  0.232562  0  3.80876  0  0  0.205853  0  4.087408  0  0  0.220012  0  4.098414  0  0  0.107136  0.195985  0  4.079924  0
C  C23  1  0.08427797  0.93020376  0.54856624  1  0  0.232296  0  3.809441  0  0  0.205517  0  4.088161  0  0  0.219657  0  4.099204  0  0  0.106999  0.195661  0  4.080648  0
C  C24  1  0.37158905  0.45935569  0.54198862  1  0  0.223876  0  3.827461  0  0  0.200299  0  4.106291  0  0  0.213146  0  4.118157  0  0  0.104837  0.191478  0  4.098185  0
C  C25  1  0.62839433  0.04064683  0.04198749  1  0  0.223298  0  3.82761  0  0  0.199754  0  4.106448  0  0  0.212599  0  4.118306  0  0  0.10461  0.190936  0  4.098353  0
C  C26  1  0.87161005  0.54063851  0.95801032  1  0  0.223718  0  3.827288  0  0  0.200148  0  4.106109  0  0  0.212998  0  4.117965  0  0  0.10478  0.191325  0  4.098015  0
C  C27  1  0.12842154  0.95934549  0.45800674  1  0  0.223682  0  3.827931  0  0  0.20014  0  4.106729  0  0  0.212981  0  4.118604  0  0  0.104838  0.191322  0  4.098615  0
C  C28  1  0.62840152  0.54065193  0.45800323  1  0  0.223549  0  3.82757  0  0  0.200014  0  4.106384  0  0  0.212855  0  4.118255  0  0  0.10482  0.191198  0  4.098275  0
C  C29  1  0.37160808  0.95936510  0.95801130  1  0  0.223682  0  3.826906  0  0  0.200035  0  4.105831  0  0  0.212887  0  4.11768  0  0  0.104732  0.191215  0  4.097743  0
C  C30  1  0.12840420  0.45934756  0.04198974  1  0  0.223336  0  3.827477  0  0  0.19979  0  4.106348  0  0  0.212633  0  4.11821  0  0  0.104629  0.190973  0  4.098252  0
C  C31  1  0.87160117  0.04064921  0.54199647  1  0  0.223636  0  3.827792  0  0  0.200086  0  4.106594  0  0  0.212924  0  4.118471  0  0  0.104824  0.19127  0  4.098477  0
O  O32  1  0.68760256  0.65505526  0.60765538  1  0  -0.57901  0  2.221317  0  0  -0.505058  0  2.490254  0  0  -0.532599  0  2.482726  0  0  -0.31928  -0.485226  0  2.494685  0
O  O33  1  0.31237959  0.84494382  0.10766802  1  0  -0.579305  0  2.220218  0  0  -0.505275  0  2.489021  0  0  -0.53283  0  2.481491  0  0  -0.319339  -0.485445  0  2.49348  0
O  O34  1  0.18762090  0.34493129  0.89233911  1  0  -0.579388  0  2.220612  0  0  -0.505306  0  2.489405  0  0  -0.532858  0  2.481876  0  0  -0.319413  -0.485476  0  2.493856  0
O  O35  1  0.81240515  0.15504896  0.39234266  1  0  -0.579047  0  2.221512  0  0  -0.505058  0  2.490425  0  0  -0.5326  0  2.482904  0  0  -0.31931  -0.485228  0  2.494852  0
O  O36  1  0.31237955  0.34494804  0.39233017  1  0  -0.579413  0  2.220538  0  0  -0.505349  0  2.489385  0  0  -0.53291  0  2.481868  0  0  -0.319376  -0.4855  0  2.493794  0
O  O37  1  0.68761606  0.15506523  0.89233645  1  0  -0.579352  0  2.220278  0  0  -0.505268  0  2.48906  0  0  -0.532822  0  2.481531  0  0  -0.319373  -0.485433  0  2.493505  0
O  O38  1  0.81238827  0.65505335  0.10766726  1  0  -0.579298  0  2.220358  0  0  -0.505275  0  2.489192  0  0  -0.532828  0  2.481664  0  0  -0.319347  -0.485447  0  2.493648  0
O  O39  1  0.18760910  0.84493424  0.60766434  1  0  -0.579352  0  2.220971  0  0  -0.505276  0  2.489763  0  0  -0.532832  0  2.482248  0  0  -0.319453  -0.485445  0  2.494212  0
O  O40  1  0.21728806  0.40571688  0.59188624  1  0  -0.538273  0  2.111  0  0  -0.474339  0  2.35269  0  0  -0.499122  0  2.34788  0  0  -0.311433  -0.456735  0  2.355655  0
O  O41  1  0.78271906  0.09429189  0.09189407  1  0  -0.538065  0  2.110414  0  0  -0.474202  0  2.352133  0  0  -0.49899  0  2.347331  0  0  -0.311354  -0.456588  0  2.355076  0
O  O42  1  0.71728948  0.59427860  0.90810826  1  0  -0.538144  0  2.110685  0  0  -0.47426  0  2.352358  0  0  -0.499045  0  2.347547  0  0  -0.311363  -0.456657  0  2.355329  0
O  O43  1  0.28270823  0.90571638  0.40811533  1  0  -0.537968  0  2.111328  0  0  -0.474075  0  2.353025  0  0  -0.498849  0  2.348219  0  0  -0.311319  -0.45648  0  2.355998  0
O  O44  1  0.78271435  0.59428643  0.40810877  1  0  -0.537956  0  2.110733  0  0  -0.474127  0  2.352447  0  0  -0.498909  0  2.347645  0  0  -0.311391  -0.456521  0  2.355397  0
O  O45  1  0.21727321  0.90572290  0.90810977  1  0  -0.53815  0  2.11027  0  0  -0.474242  0  2.351979  0  0  -0.499031  0  2.347174  0  0  -0.311365  -0.456619  0  2.3549  0
O  O46  1  0.28272139  0.40571035  0.09189369  1  0  -0.538024  0  2.110436  0  0  -0.474154  0  2.352167  0  0  -0.49894  0  2.347366  0  0  -0.311341  -0.456538  0  2.355106  0
O  O47  1  0.71729757  0.09428262  0.59188914  1  0  -0.53802  0  2.111136  0  0  -0.474158  0  2.352846  0  0  -0.498938  0  2.348039  0  0  -0.311393  -0.456559  0  2.35582  0
O  O48  1  0.34401962  0.66489850  0.76910279  1  0  -1.021897  0  1.871368  0  0  -0.914155  0  2.140439  0  0  -0.953196  0  2.105735  0  0  -0.592796  -0.885899  0  2.164264  0
O  O49  1  0.65597623  0.83509792  0.26910287  1  0  -1.021848  0  1.871588  0  0  -0.914107  0  2.140629  0  0  -0.953146  0  2.105924  0  0  -0.592826  -0.885852  0  2.164456  0
O  O50  1  0.84401883  0.33509541  0.73089741  1  0  -1.021773  0  1.871488  0  0  -0.914073  0  2.140539  0  0  -0.953119  0  2.105836  0  0  -0.59271  -0.885815  0  2.164364  0
O  O51  1  0.15596984  0.16490616  0.23089958  1  0  -1.02182  0  1.871551  0  0  -0.914104  0  2.140602  0  0  -0.953143  0  2.1059  0  0  -0.592767  -0.88585  0  2.164427  0
O  O52  1  0.65596756  0.33509619  0.23089916  1  0  -1.021862  0  1.871476  0  0  -0.91413  0  2.140498  0  0  -0.953172  0  2.105794  0  0  -0.592777  -0.885876  0  2.164323  0
O  O53  1  0.34402279  0.16489533  0.73089972  1  0  -1.02185  0  1.871374  0  0  -0.914103  0  2.140455  0  0  -0.953148  0  2.10575  0  0  -0.592699  -0.885844  0  2.164279  0
O  O54  1  0.15596836  0.66491220  0.26910012  1  0  -1.021852  0  1.871478  0  0  -0.91414  0  2.140555  0  0  -0.953181  0  2.105849  0  0  -0.592718  -0.885885  0  2.16438  0
O  O55  1  0.84402243  0.83509427  0.76909796  1  0  -1.021814  0  1.871316  0  0  -0.914124  0  2.140402  0  0  -0.953168  0  2.105698  0  0  -0.592684  -0.885867  0  2.164226  0
