# generated using pymatgen
data_CuH5C2SIN
_symmetry_space_group_name_H-M   'P 1'
_cell_length_a   7.95322081
_cell_length_b   11.66988848
_cell_length_c   11.67002261
_cell_angle_alpha   119.99950763
_cell_angle_beta   89.99877683
_cell_angle_gamma   90.00107881
_symmetry_Int_Tables_number   1
_chemical_formula_structural   CuH5C2SIN
_chemical_formula_sum   'Cu6 H30 C12 S6 I6 N6'
_cell_volume   938.02460382
_cell_formula_units_Z   6
loop_
 _symmetry_equiv_pos_site_id
 _symmetry_equiv_pos_as_xyz
  1  'x, y, z'
loop_
 _atom_site_type_symbol
 _atom_site_label
 _atom_site_symmetry_multiplicity
 _atom_site_fract_x
 _atom_site_fract_y
 _atom_site_fract_z
 _atom_site_occupancy
 _atom_site_pbe_bader_charge
 _atom_site_pbe_bader_spin_density
 _atom_site_pbe_cm5_charge
 _atom_site_pbe_ddec_charge
 _atom_site_pbe_ddec_spin_density
 _atom_site_pbe_ddec_sum_bond_order
 _atom_site_pbe_magmom
Cu  Cu0  1  0.48830957  0.68301147  0.14170125  1  0.398642  0  0.255827  0.261684  0  2.755827  0
Cu  Cu1  1  0.48830774  0.45868951  0.31699050  1  0.396449  0  0.255839  0.261646  0  2.756241  0
Cu  Cu2  1  0.48829696  0.85829256  0.54131008  1  0.397626  0  0.255819  0.26159  0  2.755947  0
Cu  Cu3  1  0.98829962  0.31699341  0.45869191  1  0.396491  0  0.255821  0.261652  0  2.756112  0
Cu  Cu4  1  0.98830327  0.54130528  0.85828149  1  0.397744  0  0.255873  0.261686  0  2.755903  0
Cu  Cu5  1  0.98830120  0.14170063  0.68300305  1  0.398563  0  0.255836  0.261641  0  2.755807  0
H  H6  1  0.48664256  0.21461227  0.47671206  1  0.072791  0  0.090243  0.150146  0  1.015297  0
H  H7  1  0.48667345  0.26208614  0.78540184  1  0.071909  0  0.090274  0.150177  0  1.015176  0
H  H8  1  0.48665941  0.52329596  0.73791203  1  0.067659  0  0.090208  0.150038  0  1.015275  0
H  H9  1  0.98667033  0.78539317  0.26208287  1  0.071557  0  0.090208  0.150049  0  1.015369  0
H  H10  1  0.98665890  0.73792149  0.52329830  1  0.067488  0  0.090244  0.150084  0  1.01549  0
H  H11  1  0.98664224  0.47670536  0.21459588  1  0.072738  0  0.090223  0.150122  0  1.015472  0
H  H12  1  0.59954126  0.12781659  0.54376178  1  0.089663  0  0.087794  0.149848  0  1.026537  0
H  H13  1  0.59955148  0.41595097  0.87220567  1  0.089018  0  0.087773  0.149797  0  1.026457  0
H  H14  1  0.59954170  0.45622392  0.58404881  1  0.10661  0  0.087745  0.149764  0  1.026504  0
H  H15  1  0.09953061  0.87219153  0.41595164  1  0.090442  0  0.087786  0.149851  0  1.026578  0
H  H16  1  0.09953594  0.58405976  0.45623476  1  0.106914  0  0.087772  0.149838  0  1.026445  0
H  H17  1  0.09955042  0.54376170  0.12781426  1  0.088665  0  0.087765  0.149783  0  1.026516  0
H  H18  1  0.37707662  0.13447117  0.55158966  1  0.090556  0  0.088666  0.148197  0  1.033629  0
H  H19  1  0.37708190  0.41710161  0.86553939  1  0.091068  0  0.088655  0.148186  0  1.033384  0
H  H20  1  0.37704947  0.44840835  0.58290213  1  0.100703  0  0.088601  0.148025  0  1.033406  0
H  H21  1  0.87703575  0.86551415  0.41709262  1  0.09044  0  0.088581  0.148059  0  1.033355  0
H  H22  1  0.87704741  0.58290363  0.44840824  1  0.098891  0  0.088635  0.14811  0  1.033412  0
H  H23  1  0.87707436  0.55158493  0.13446152  1  0.090877  0  0.088635  0.148113  0  1.03348  0
H  H24  1  0.39985522  0.10013482  0.26391304  1  0.489404  0  0.270293  0.288092  0  1.009547  0
H  H25  1  0.39985156  0.16377162  0.89988150  1  0.484838  0  0.270361  0.288119  0  1.009653  0
H  H26  1  0.39985087  0.73608687  0.83622983  1  0.48901  0  0.270318  0.288149  0  1.009629  0
H  H27  1  0.89986559  0.89986810  0.16376942  1  0.484999  0  0.270397  0.288221  0  1.00954  0
H  H28  1  0.89985497  0.83623742  0.73609187  1  0.488937  0  0.270399  0.288166  0  1.009729  0
H  H29  1  0.89984572  0.26390771  0.10013022  1  0.489408  0  0.270398  0.288172  0  1.009501  0
H  H30  1  0.40747506  0.92587083  0.16767775  1  0.472607  0  0.273681  0.284293  0  1.003486  0
H  H31  1  0.40746929  0.24179223  0.07413968  1  0.47854  0  0.273635  0.284248  0  1.003283  0
H  H32  1  0.40746817  0.83232953  0.75819651  1  0.477471  0  0.273669  0.284297  0  1.003434  0
H  H33  1  0.90748118  0.07413977  0.24179514  1  0.478521  0  0.273645  0.284334  0  1.003119  0
H  H34  1  0.90747790  0.75821057  0.83232576  1  0.47775  0  0.273704  0.284334  0  1.003245  0
H  H35  1  0.90746211  0.16766112  0.92585799  1  0.472419  0  0.273599  0.284221  0  1.003409  0
C  C36  1  0.47374316  0.00325329  0.36079259  1  0.460361  0  0.156808  0.446206  0  3.915303  0
C  C37  1  0.47378801  0.35752027  0.99675699  1  0.481736  0  0.156897  0.446317  0  3.915533  0
C  C38  1  0.47374169  0.63920953  0.64246178  1  0.482306  0  0.156802  0.446135  0  3.91522  0
C  C39  1  0.97377401  0.99675526  0.35752302  1  0.481742  0  0.156899  0.446202  0  3.915362  0
C  C40  1  0.97377309  0.64248673  0.63921379  1  0.481949  0  0.156772  0.446139  0  3.915245  0
C  C41  1  0.97374948  0.36078430  0.00323726  1  0.460037  0  0.156785  0.44606  0  3.915384  0
C  C42  1  0.48606552  0.12830194  0.49050737  1  -0.080215  0  -0.245585  -0.46876  0  3.884513  0
C  C43  1  0.48607932  0.36219622  0.87171112  1  -0.091582  0  -0.245616  -0.468801  0  3.88423  0
C  C44  1  0.48607784  0.50948782  0.63780897  1  -0.114226  0  -0.245497  -0.468389  0  3.883829  0
C  C45  1  0.98607363  0.87168187  0.36218580  1  -0.092147  0  -0.245515  -0.468537  0  3.883884  0
C  C46  1  0.98606066  0.63781762  0.50948727  1  -0.112483  0  -0.245508  -0.468553  0  3.884321  0
C  C47  1  0.98608317  0.49049925  0.12829954  1  -0.079443  0  -0.245542  -0.468583  0  3.884418  0
S  S48  1  0.51459808  0.85420316  0.34845644  1  -0.190438  0  -0.223249  -0.32699  0  3.26983  0
S  S49  1  0.51461999  0.49424506  0.14580296  1  -0.2012  0  -0.223365  -0.327199  0  3.269956  0
S  S50  1  0.51461518  0.65153438  0.50575192  1  -0.193716  0  -0.22323  -0.326981  0  3.270077  0
S  S51  1  0.01460867  0.14579711  0.49424802  1  -0.201047  0  -0.223326  -0.327116  0  3.270058  0
S  S52  1  0.01460840  0.50575110  0.65154041  1  -0.193898  0  -0.223363  -0.327234  0  3.269756  0
S  S53  1  0.01462264  0.34846378  0.85421502  1  -0.190261  0  -0.223161  -0.32685  0  3.269942  0
I  I54  1  0.73546380  0.69989166  0.98939359  1  -0.5056  0  -0.215012  -0.434827  0  1.960263  0
I  I55  1  0.73545582  0.28950856  0.30011467  1  -0.505889  0  -0.215034  -0.43481  0  1.960333  0
I  I56  1  0.73546158  0.01060186  0.71047996  1  -0.504918  0  -0.215027  -0.434823  0  1.960481  0
I  I57  1  0.23545591  0.30011274  0.28950730  1  -0.506014  0  -0.215026  -0.434787  0  1.960348  0
I  I58  1  0.23546174  0.71049779  0.01061043  1  -0.505034  0  -0.21502  -0.434814  0  1.960168  0
I  I59  1  0.23545991  0.98939823  0.69988855  1  -0.505517  0  -0.215022  -0.43479  0  1.96031  0
N  N60  1  0.43060649  0.01062742  0.25564962  1  -1.298075  0  -0.539458  -0.497842  0  3.39197  0
N  N61  1  0.43060449  0.24501439  0.98938020  1  -1.296022  0  -0.539406  -0.497715  0  3.392157  0
N  N62  1  0.43060363  0.74435360  0.75498421  1  -1.307116  0  -0.539433  -0.497871  0  3.39206  0
N  N63  1  0.93060849  0.98936685  0.24500890  1  -1.296133  0  -0.539497  -0.497911  0  3.39213  0
N  N64  1  0.93059733  0.75499770  0.74434721  1  -1.306855  0  -0.539488  -0.497775  0  3.392273  0
N  N65  1  0.93059982  0.25564224  0.01063530  1  -1.297708  0  -0.539508  -0.497835  0  3.391676  0
