# generated using pymatgen
data_AgH12C6SN2O3
_symmetry_space_group_name_H-M   'P 1'
_cell_length_a   6.84728827
_cell_length_b   10.78691661
_cell_length_c   13.58363663
_cell_angle_alpha   102.64188076
_cell_angle_beta   97.27886249
_cell_angle_gamma   88.09062218
_symmetry_Int_Tables_number   1
_chemical_formula_structural   AgH12C6SN2O3
_chemical_formula_sum   'Ag4 H48 C24 S4 N8 O12'
_cell_volume   971.07415260
_cell_formula_units_Z   4
loop_
 _symmetry_equiv_pos_site_id
 _symmetry_equiv_pos_as_xyz
  1  'x, y, z'
loop_
 _atom_site_type_symbol
 _atom_site_label
 _atom_site_symmetry_multiplicity
 _atom_site_fract_x
 _atom_site_fract_y
 _atom_site_fract_z
 _atom_site_occupancy
 _atom_site_hle17_bader_spin_density
 _atom_site_hle17_ddec_charge
 _atom_site_hle17_ddec_spin_density
 _atom_site_hle17_ddec_sum_bond_order
 _atom_site_hle17_magmom
 _atom_site_hse06_10hf_bader_spin_density
 _atom_site_hse06_10hf_ddec_charge
 _atom_site_hse06_10hf_ddec_spin_density
 _atom_site_hse06_10hf_ddec_sum_bond_order
 _atom_site_hse06_10hf_magmom
 _atom_site_hse06_bader_spin_density
 _atom_site_hse06_ddec_charge
 _atom_site_hse06_ddec_spin_density
 _atom_site_hse06_ddec_sum_bond_order
 _atom_site_hse06_magmom
 _atom_site_pbe_bader_spin_density
 _atom_site_pbe_cm5_charge
 _atom_site_pbe_ddec_charge
 _atom_site_pbe_ddec_spin_density
 _atom_site_pbe_ddec_sum_bond_order
 _atom_site_pbe_magmom
Ag  Ag0  1  0.13710199  0.74044265  0.98828643  1  0  0.512297  0  1.291349  0  0  0.369398  0  1.673921  0  0  0.40292  0  1.632867  0  0  0.490332  0.342508  0  1.705344  0
Ag  Ag1  1  0.87349478  0.24878997  0.00583066  1  0  0.506549  0  1.304328  0  0  0.364918  0  1.690521  0  0  0.398155  0  1.649168  0  0  0.487032  0.338399  0  1.722045  0
Ag  Ag2  1  0.01225968  0.74246774  0.40304080  1  0  0.501162  0  1.356577  0  0  0.350914  0  1.75815  0  0  0.378436  0  1.720297  0  0  0.484201  0.327996  0  1.786848  0
Ag  Ag3  1  0.99689257  0.27770177  0.60509675  1  0  0.482776  0  1.386127  0  0  0.331974  0  1.795734  0  0  0.360163  0  1.758513  0  0  0.482979  0.310296  0  1.823434  0
H  H4  1  0.47436466  0.68489986  0.09633966  1  0  0.127206  0  0.956796  0  0  0.137802  0  1.023596  0  0  0.141171  0  1.020864  0  0  0.103487  0.135403  0  1.0255  0
H  H5  1  0.52388657  0.30632128  0.90437143  1  0  0.130791  0  0.955166  0  0  0.143103  0  1.018637  0  0  0.146302  0  1.016359  0  0  0.104636  0.14085  0  1.020211  0
H  H6  1  0.55516380  0.57000283  0.17132847  1  0  0.140528  0  0.939616  0  0  0.151736  0  0.997751  0  0  0.154751  0  0.996742  0  0  0.107622  0.149352  0  0.9989  0
H  H7  1  0.43444770  0.41370858  0.82458266  1  0  0.137392  0  0.955041  0  0  0.148131  0  1.01559  0  0  0.150921  0  1.015175  0  0  0.105457  0.145707  0  1.016626  0
H  H8  1  0.23915118  0.54217090  0.20970082  1  0  0.062494  0  0.948451  0  0  0.079104  0  1.01192  0  0  0.079233  0  1.012288  0  0  0.101402  0.079133  0  1.011507  0
H  H9  1  0.74654009  0.44449431  0.78254610  1  0  0.069192  0  0.930601  0  0  0.085307  0  0.995415  0  0  0.086209  0  0.994597  0  0  0.100809  0.084684  0  0.995944  0
H  H10  1  0.17018832  0.70448759  0.21414895  1  0  0.067139  0  0.942786  0  0  0.079798  0  1.017106  0  0  0.081744  0  1.013957  0  0  0.101678  0.078418  0  1.019482  0
H  H11  1  0.81929641  0.28341726  0.77901414  1  0  0.05621  0  0.969602  0  0  0.069301  0  1.046394  0  0  0.070244  0  1.04456  0  0  0.098333  0.068649  0  1.047747  0
H  H12  1  0.86059871  0.65074318  0.12838156  1  0  0.098585  0  0.958791  0  0  0.115582  0  1.018054  0  0  0.116511  0  1.018163  0  0  0.109724  0.114836  0  1.018169  0
H  H13  1  0.13241486  0.34058365  0.86250598  1  0  0.09307  0  0.972847  0  0  0.109184  0  1.035195  0  0  0.110228  0  1.035015  0  0  0.107383  0.108381  0  1.035481  0
H  H14  1  0.92005008  0.48930456  0.12942081  1  0  0.069099  0  0.957492  0  0  0.084494  0  1.028569  0  0  0.085392  0  1.027236  0  0  0.096745  0.08382  0  1.029671  0
H  H15  1  0.07018997  0.50253992  0.86315428  1  0  0.074315  0  0.946955  0  0  0.08966  0  1.01616  0  0  0.091091  0  1.01419  0  0  0.098806  0.088671  0  1.017638  0
H  H16  1  0.21153721  0.39265346  0.05118819  1  0  0.065731  0  0.949233  0  0  0.077082  0  1.027996  0  0  0.07854  0  1.025207  0  0  0.097583  0.075678  0  1.031172  0
H  H17  1  0.78385744  0.59576373  0.93963593  1  0  0.065914  0  0.96535  0  0  0.077039  0  1.044109  0  0  0.078595  0  1.04139  0  0  0.098218  0.075633  0  1.047016  0
H  H18  1  0.35064747  0.48585571  0.99284018  1  0  0.079441  0  0.948061  0  0  0.097454  0  1.009838  0  0  0.097585  0  1.010386  0  0  0.108848  0.097339  0  1.009601  0
H  H19  1  0.64281408  0.50430634  0.99872697  1  0  0.079462  0  0.944944  0  0  0.098453  0  1.005506  0  0  0.098462  0  1.006149  0  0  0.10963  0.098386  0  1.00526  0
H  H20  1  0.44524474  0.92505611  0.81757684  1  0  0.144464  0  0.936649  0  0  0.15707  0  0.994062  0  0  0.159991  0  0.993306  0  0  0.110598  0.154708  0  0.995246  0
H  H21  1  0.58229827  0.06083639  0.17189414  1  0  0.140084  0  0.924615  0  0  0.155162  0  0.979103  0  0  0.157802  0  0.978477  0  0  0.111114  0.153105  0  0.980021  0
H  H22  1  0.35246770  0.81901558  0.70546257  1  0  0.119904  0  0.915768  0  0  0.138709  0  0.967659  0  0  0.141051  0  0.966195  0  0  0.108933  0.136961  0  0.969089  0
H  H23  1  0.67720779  0.15689897  0.28870195  1  0  0.119819  0  0.931883  0  0  0.138461  0  0.985287  0  0  0.140289  0  0.985125  0  0  0.107782  0.13714  0  0.985641  0
H  H24  1  0.09283519  0.95086383  0.77106241  1  0  0.061149  0  0.965111  0  0  0.081622  0  1.026916  0  0  0.080968  0  1.028175  0  0  0.102882  0.082174  0  1.025987  0
H  H25  1  0.94485534  0.03190502  0.21851057  1  0  0.071503  0  0.93137  0  0  0.090261  0  0.990199  0  0  0.09047  0  0.990999  0  0  0.106745  0.09019  0  0.989535  0
H  H26  1  0.04306505  0.78874833  0.76868653  1  0  0.07406  0  0.929024  0  0  0.090711  0  0.992401  0  0  0.091357  0  0.992311  0  0  0.107387  0.090283  0  0.992476  0
H  H27  1  0.98664411  0.19567720  0.22567108  1  0  0.072681  0  0.932362  0  0  0.090087  0  0.993974  0  0  0.090362  0  0.994167  0  0  0.10759  0.089942  0  0.993872  0
H  H28  1  0.18688895  0.09531936  0.93432340  1  0  0.066211  0  0.929086  0  0  0.08047  0  1.003413  0  0  0.081827  0  1.00075  0  0  0.097465  0.079239  0  1.006255  0
H  H29  1  0.84157306  0.89358566  0.05686510  1  0  0.064741  0  0.930927  0  0  0.079754  0  1.00401  0  0  0.081307  0  1.000927  0  0  0.097689  0.078388  0  1.007141  0
H  H30  1  0.36454439  0.98993033  0.97929422  1  0  0.087165  0  0.939656  0  0  0.104831  0  0.998185  0  0  0.105363  0  0.998534  0  0  0.111489  0.104517  0  0.997936  0
H  H31  1  0.66358236  0.99918244  0.01285922  1  0  0.086746  0  0.937492  0  0  0.10384  0  0.996921  0  0  0.104346  0  0.99724  0  0  0.111179  0.103525  0  0.996722  0
H  H32  1  0.79541307  0.85446149  0.86817799  1  0  0.091167  0  0.967263  0  0  0.105137  0  1.032008  0  0  0.106327  0  1.031501  0  0  0.108626  0.104228  0  1.032487  0
H  H33  1  0.23209263  0.13710452  0.12304112  1  0  0.092493  0  0.964846  0  0  0.106934  0  1.029286  0  0  0.108061  0  1.028853  0  0  0.108475  0.106068  0  1.029721  0
H  H34  1  0.84669096  0.01714218  0.87342889  1  0  0.057839  0  0.957103  0  0  0.071991  0  1.034832  0  0  0.07296  0  1.032573  0  0  0.094996  0.071366  0  1.036458  0
H  H35  1  0.18324523  0.97491855  0.12021674  1  0  0.065638  0  0.941898  0  0  0.079903  0  1.01634  0  0  0.081509  0  1.013316  0  0  0.096748  0.078735  0  1.018631  0
H  H36  1  0.16570599  0.45860825  0.31422420  1  0  0.117612  0  0.952028  0  0  0.130012  0  1.012589  0  0  0.132206  0  1.009907  0  0  0.120827  0.128567  0  1.01423  0
H  H37  1  0.82151567  0.56123032  0.64145602  1  0  0.099144  0  0.91936  0  0  0.12047  0  0.971978  0  0  0.120415  0  0.972322  0  0  0.115617  0.120409  0  0.97176  0
H  H38  1  0.01257120  0.35699088  0.36954340  1  0  0.08335  0  0.940406  0  0  0.09818  0  1.00782  0  0  0.09976  0  1.005073  0  0  0.112053  0.096018  0  1.011987  0
H  H39  1  0.99960479  0.65504904  0.60650943  1  0  0.054942  0  0.940066  0  0  0.071612  0  1.010757  0  0  0.071889  0  1.009493  0  0  0.101782  0.070828  0  1.013042  0
H  H40  1  0.77203589  0.43502376  0.45774043  1  0  0.064572  0  0.922525  0  0  0.082244  0  0.987368  0  0  0.08304  0  0.98555  0  0  0.10512  0.081807  0  0.98861  0
H  H41  1  0.30630662  0.59015089  0.60845664  1  0  0.088187  0  0.933976  0  0  0.102208  0  0.998816  0  0  0.104013  0  0.995547  0  0  0.114847  0.10073  0  1.001557  0
H  H42  1  0.70557643  0.59931514  0.47165601  1  0  0.10209  0  0.914312  0  0  0.124751  0  0.962628  0  0  0.124825  0  0.962906  0  0  0.117212  0.124654  0  0.962418  0
H  H43  1  0.37635132  0.42243864  0.62086699  1  0  0.121742  0  0.952829  0  0  0.13699  0  1.008177  0  0  0.139075  0  1.005627  0  0  0.120591  0.135349  0  1.010169  0
H  H44  1  0.83663693  0.98395164  0.33367450  1  0  0.09459  0  0.972137  0  0  0.111527  0  1.031426  0  0  0.111751  0  1.031809  0  0  0.114097  0.111228  0  1.031317  0
H  H45  1  0.93019372  0.08748050  0.73507506  1  0  0.106918  0  0.965271  0  0  0.118709  0  1.030928  0  0  0.120565  0  1.027423  0  0  0.116975  0.117175  0  1.033834  0
H  H46  1  0.97361227  0.11995717  0.40883197  1  0  0.039502  0  0.954872  0  0  0.057045  0  1.030251  0  0  0.057115  0  1.028547  0  0  0.094383  0.056025  0  1.033756  0
H  H47  1  0.78898145  0.94995478  0.64934247  1  0  0.100151  0  0.913576  0  0  0.120338  0  0.965796  0  0  0.121588  0  0.963501  0  0  0.120595  0.119075  0  0.968273  0
H  H48  1  0.37885541  0.91646510  0.45155358  1  0  0.111155  0  0.967162  0  0  0.121722  0  1.031896  0  0  0.123969  0  1.028896  0  0  0.117442  0.120226  0  1.033922  0
H  H49  1  0.64736160  0.09500297  0.46495054  1  0  0.086176  0  0.907815  0  0  0.109229  0  0.960596  0  0  0.108388  0  0.961574  0  0  0.115953  0.109807  0  0.959849  0
H  H50  1  0.28582565  0.08127141  0.44373361  1  0  0.096341  0  0.92251  0  0  0.113026  0  0.982726  0  0  0.114996  0  0.979502  0  0  0.115517  0.11156  0  0.985535  0
H  H51  1  0.71757092  0.94124551  0.48608960  1  0  0.063398  0  0.945787  0  0  0.079944  0  1.015127  0  0  0.080318  0  1.013967  0  0  0.104105  0.079775  0  1.015965  0
C  C52  1  0.45742915  0.65170467  0.16593603  1  0  -0.344083  0  3.60793  0  0  -0.375701  0  3.852526  0  0  -0.382479  0  3.860452  0  0  -0.167658  -0.370708  0  3.847075  0
C  C53  1  0.53457577  0.33368906  0.83174366  1  0  -0.349641  0  3.603597  0  0  -0.383004  0  3.850923  0  0  -0.389751  0  3.858384  0  0  -0.170727  -0.378022  0  3.845896  0
C  C54  1  0.24381710  0.62163107  0.17115368  1  0  0.018259  0  3.643117  0  0  -0.042408  0  3.898398  0  0  -0.038103  0  3.912453  0  0  -0.075538  -0.045048  0  3.887875  0
C  C55  1  0.74607265  0.36578386  0.82247231  1  0  0.01938  0  3.635166  0  0  -0.040985  0  3.889663  0  0  -0.036263  0  3.902922  0  0  -0.076637  -0.044013  0  3.880048  0
C  C56  1  0.91996439  0.56314481  0.08440865  1  0  -0.059243  0  3.646741  0  0  -0.1187  0  3.89588  0  0  -0.116529  0  3.910737  0  0  -0.085145  -0.120183  0  3.885429  0
C  C57  1  0.07257988  0.42751256  0.90714505  1  0  -0.06409  0  3.652457  0  0  -0.12332  0  3.901204  0  0  -0.121281  0  3.915927  0  0  -0.088681  -0.124705  0  3.890847  0
C  C58  1  0.20159658  0.46856193  0.00761692  1  0  -0.029118  0  3.633726  0  0  -0.086152  0  3.879872  0  0  -0.083048  0  3.894505  0  0  -0.079475  -0.088246  0  3.870079  0
C  C59  1  0.79214998  0.52104725  0.98402196  1  0  -0.030101  0  3.639725  0  0  -0.0897  0  3.888164  0  0  -0.08644  0  3.902374  0  0  -0.081106  -0.091717  0  3.878218  0
C  C60  1  0.34945662  0.84223430  0.78821912  1  0  -0.331413  0  3.632783  0  0  -0.370533  0  3.892866  0  0  -0.376164  0  3.900217  0  0  -0.163165  -0.36653  0  3.887974  0
C  C61  1  0.68091797  0.14101877  0.20629446  1  0  -0.33113  0  3.620927  0  0  -0.370232  0  3.877566  0  0  -0.376099  0  3.885621  0  0  -0.162328  -0.366166  0  3.872138  0
C  C62  1  0.13664218  0.87029637  0.80671581  1  0  0.018839  0  3.648549  0  0  -0.044813  0  3.907615  0  0  -0.040054  0  3.921474  0  0  -0.073152  -0.047905  0  3.897458  0
C  C63  1  0.89382221  0.11437101  0.18617816  1  0  0.017159  0  3.647235  0  0  -0.043742  0  3.906003  0  0  -0.03921  0  3.919882  0  0  -0.071416  -0.046698  0  3.895841  0
C  C64  1  0.20805737  0.01539126  0.97374305  1  0  -0.027963  0  3.640631  0  0  -0.087743  0  3.893545  0  0  -0.08428  0  3.906957  0  0  -0.076681  -0.089779  0  3.883611  0
C  C65  1  0.82026421  0.97427446  0.01819958  1  0  -0.029885  0  3.652518  0  0  -0.089185  0  3.904626  0  0  -0.085609  0  3.917652  0  0  -0.077379  -0.091488  0  3.895404  0
C  C66  1  0.87992530  0.93722730  0.91210187  1  0  -0.053524  0  3.653057  0  0  -0.111813  0  3.901942  0  0  -0.109428  0  3.916774  0  0  -0.084307  -0.113403  0  3.891397  0
C  C67  1  0.14870818  0.05340231  0.07988399  1  0  -0.055404  0  3.649369  0  0  -0.114558  0  3.901502  0  0  -0.112002  0  3.91534  0  0  -0.083045  -0.11608  0  3.891296  0
C  C68  1  0.05266614  0.45206178  0.36268786  1  0  0.07254  0  3.499395  0  0  0.004762  0  3.732038  0  0  0.015936  0  3.742823  0  0  0.03361  -0.002884  0  3.724964  0
C  C69  1  0.93108184  0.56033513  0.58873558  1  0  -0.017858  0  3.671754  0  0  -0.075686  0  3.925332  0  0  -0.072395  0  3.940771  0  0  -0.064241  -0.07762  0  3.914609  0
C  C70  1  0.82901684  0.53295398  0.47906276  1  0  -0.018526  0  3.662155  0  0  -0.076205  0  3.9132  0  0  -0.073012  0  3.927972  0  0  -0.064023  -0.078019  0  3.902147  0
C  C71  1  0.26303820  0.49427028  0.61151085  1  0  0.077417  0  3.498584  0  0  0.009626  0  3.726711  0  0  0.022522  0  3.736307  0  0  0.028821  0.000644  0  3.720419  0
C  C72  1  0.91691330  0.02495805  0.40820151  1  0  -0.034311  0  3.717917  0  0  -0.096339  0  3.97213  0  0  -0.0931  0  3.987496  0  0  -0.076904  -0.097754  0  3.960623  0
C  C73  1  0.85897946  0.04257307  0.66025676  1  0  0.072124  0  3.547919  0  0  -0.002654  0  3.793202  0  0  0.012257  0  3.800258  0  0  0.02049  -0.0134  0  3.789213  0
C  C74  1  0.25605659  0.98119223  0.44141951  1  0  0.06761  0  3.509108  0  0  -0.00356  0  3.744051  0  0  0.008914  0  3.753307  0  0  0.028328  -0.012165  0  3.737182  0
C  C75  1  0.77314999  0.03610166  0.48615816  1  0  -0.012468  0  3.697396  0  0  -0.072241  0  3.952729  0  0  -0.069017  0  3.968521  0  0  -0.065654  -0.07397  0  3.940752  0
S  S76  1  0.55139112  0.77957866  0.26795731  1  0  1.329268  0  5.619398  0  0  1.248974  0  6.12772  0  0  1.293814  0  6.10901  0  0  0.48509  1.217868  0  6.139377  0
S  S77  1  0.43992932  0.19864580  0.73655766  1  0  1.324617  0  5.634409  0  0  1.240986  0  6.146168  0  0  1.287102  0  6.126629  0  0  0.482793  1.208907  0  6.158074  0
S  S78  1  0.46352696  0.70998085  0.83424489  1  0  1.304312  0  5.645987  0  0  1.217706  0  6.162784  0  0  1.263265  0  6.143244  0  0  0.478022  1.186158  0  6.174523  0
S  S79  1  0.56952744  0.28233616  0.17215665  1  0  1.302446  0  5.659591  0  0  1.218701  0  6.177563  0  0  1.264849  0  6.156182  0  0  0.474456  1.186826  0  6.190587  0
N  N80  1  0.12554717  0.58678045  0.06946064  1  0  -0.203926  0  3.275465  0  0  -0.084507  0  3.506978  0  0  -0.106384  0  3.531573  0  0  -0.358858  -0.068189  0  3.48898  0
N  N81  1  0.86839198  0.40232958  0.92300918  1  0  -0.203786  0  3.275761  0  0  -0.08351  0  3.506042  0  0  -0.105449  0  3.530582  0  0  -0.359683  -0.067409  0  3.488158  0
N  N82  1  0.09279451  0.90421910  0.91374020  1  0  -0.206218  0  3.264518  0  0  -0.088415  0  3.494713  0  0  -0.110024  0  3.519218  0  0  -0.356831  -0.07239  0  3.476719  0
N  N83  1  0.93521980  0.08505502  0.07881983  1  0  -0.206072  0  3.269126  0  0  -0.08909  0  3.500687  0  0  -0.110491  0  3.525011  0  0  -0.358232  -0.073116  0  3.482744  0
N  N84  1  0.97019961  0.55091580  0.41085113  1  0  -0.238103  0  3.343622  0  0  -0.137036  0  3.626618  0  0  -0.158802  0  3.647588  0  0  -0.357801  -0.121188  0  3.611394  0
N  N85  1  0.08143679  0.46377826  0.60252731  1  0  -0.255155  0  3.356071  0  0  -0.151624  0  3.63836  0  0  -0.17473  0  3.659988  0  0  -0.367474  -0.135559  0  3.623012  0
N  N86  1  0.08011443  0.93895023  0.42579324  1  0  -0.240879  0  3.346392  0  0  -0.135601  0  3.622168  0  0  -0.158063  0  3.643679  0  0  -0.362247  -0.118897  0  3.606302  0
N  N87  1  0.86530341  0.09763839  0.58663258  1  0  -0.246909  0  3.372359  0  0  -0.142933  0  3.649426  0  0  -0.165441  0  3.670175  0  0  -0.372741  -0.127442  0  3.634946  0
O  O88  1  0.43231172  0.89253476  0.25570009  1  0  -0.684321  0  1.870489  0  0  -0.633336  0  2.107865  0  0  -0.655987  0  2.097129  0  0  -0.365287  -0.617233  0  2.11506  0
O  O89  1  0.56398885  0.09031898  0.75619276  1  0  -0.679141  0  1.944201  0  0  -0.620727  0  2.189723  0  0  -0.645726  0  2.179362  0  0  -0.346303  -0.602478  0  2.196504  0
O  O90  1  0.53422318  0.74024899  0.36402542  1  0  -0.712254  0  1.876117  0  0  -0.66589  0  2.118824  0  0  -0.685886  0  2.103334  0  0  -0.374738  -0.651328  0  2.12887  0
O  O91  1  0.45397046  0.22829202  0.63672638  1  0  -0.702585  0  1.906068  0  0  -0.655732  0  2.153193  0  0  -0.677134  0  2.139167  0  0  -0.367448  -0.640138  0  2.162209  0
O  O92  1  0.75931803  0.79128890  0.25109526  1  0  -0.696925  0  1.961057  0  0  -0.634242  0  2.216937  0  0  -0.656119  0  2.201655  0  0  -0.365122  -0.618223  0  2.226587  0
O  O93  1  0.23426982  0.18597050  0.75527168  1  0  -0.700931  0  1.973631  0  0  -0.642638  0  2.234768  0  0  -0.665672  0  2.220617  0  0  -0.361946  -0.625744  0  2.243586  0
O  O94  1  0.51287775  0.75630832  0.94509950  1  0  -0.686869  0  1.939305  0  0  -0.623781  0  2.189495  0  0  -0.647008  0  2.177141  0  0  -0.355274  -0.607008  0  2.19736  0
O  O95  1  0.52048244  0.24919528  0.06001604  1  0  -0.694122  0  1.944727  0  0  -0.629617  0  2.199044  0  0  -0.652716  0  2.18552  0  0  -0.363499  -0.612968  0  2.207805  0
O  O96  1  0.31419412  0.60837511  0.80895858  1  0  -0.69128  0  1.962371  0  0  -0.629014  0  2.211837  0  0  -0.653045  0  2.200993  0  0  -0.349731  -0.611232  0  2.218725  0
O  O97  1  0.72090937  0.38154930  0.20642860  1  0  -0.686922  0  1.935728  0  0  -0.632703  0  2.182092  0  0  -0.654823  0  2.169718  0  0  -0.357001  -0.61659  0  2.190059  0
O  O98  1  0.63759891  0.67694391  0.78012431  1  0  -0.682834  0  1.883614  0  0  -0.638159  0  2.126341  0  0  -0.65868  0  2.113144  0  0  -0.365817  -0.623177  0  2.134595  0
O  O99  1  0.39333728  0.30760382  0.22514220  1  0  -0.680864  0  1.87878  0  0  -0.636313  0  2.115824  0  0  -0.656773  0  2.101915  0  0  -0.370033  -0.621533  0  2.124754  0
