# generated using pymatgen
data_Zn2H14C22N10O9
_symmetry_space_group_name_H-M   'P 1'
_cell_length_a   15.06804291
_cell_length_b   16.87520161
_cell_length_c   16.65681544
_cell_angle_alpha   89.93395668
_cell_angle_beta   89.85409410
_cell_angle_gamma   78.19539947
_symmetry_Int_Tables_number   1
_chemical_formula_structural   Zn2H14C22N10O9
_chemical_formula_sum   'Zn8 H56 C88 N40 O36'
_cell_volume   4145.84314904
_cell_formula_units_Z   4
loop_
 _symmetry_equiv_pos_site_id
 _symmetry_equiv_pos_as_xyz
  1  'x, y, z'
loop_
 _atom_site_type_symbol
 _atom_site_label
 _atom_site_symmetry_multiplicity
 _atom_site_fract_x
 _atom_site_fract_y
 _atom_site_fract_z
 _atom_site_occupancy
 _atom_site_pbe_bader_charge
 _atom_site_pbe_bader_spin_density
 _atom_site_pbe_cm5_charge
 _atom_site_pbe_ddec_charge
 _atom_site_pbe_ddec_spin_density
 _atom_site_pbe_ddec_sum_bond_order
 _atom_site_pbe_magmom
Zn  Zn0  1  0.00055643  0.99795260  0.35701160  1  1.217268  0  0.758151  0.673759  0  2.354853  0
Zn  Zn1  1  0.50272878  0.50323089  0.85636521  1  1.215895  0  0.759736  0.669643  0  2.373982  0
Zn  Zn2  1  0.99557189  0.00013306  0.63437758  1  1.186733  0  0.744815  0.598437  0  2.535  0
Zn  Zn3  1  0.50560221  0.50075545  0.13466592  1  1.187564  0  0.746369  0.601932  0  2.529192  0
Zn  Zn4  1  0.82956003  0.01638368  0.50538539  1  1.236859  0  0.727456  0.658412  0  2.483742  0
Zn  Zn5  1  0.16454712  0.98121866  0.50781631  1  1.234601  0  0.729196  0.658081  0  2.493856  0
Zn  Zn6  1  0.33893939  0.51110612  0.00750576  1  1.236274  0  0.726322  0.656608  0  2.492537  0
Zn  Zn7  1  0.67184584  0.48254890  0.00502780  1  1.233937  0  0.728876  0.657772  0  2.482294  0
H  H8  1  0.96616924  0.18630447  0.66995146  1  0.117757  0  0.117304  0.10938  0  1.018057  0
H  H9  1  0.03869128  0.81295663  0.66295028  1  0.113581  0  0.117768  0.110017  0  1.017436  0
H  H10  1  0.46257149  0.68804416  0.16073613  1  0.106412  0  0.117227  0.108732  0  1.017539  0
H  H11  1  0.54039138  0.31478352  0.17656829  1  0.129113  0  0.117184  0.108933  0  1.019836  0
H  H12  1  0.88416436  0.08594239  0.79287860  1  0.063257  0  0.111715  0.097094  0  1.00741  0
H  H13  1  0.10342309  0.91158357  0.79438435  1  0.061268  0  0.112864  0.102746  0  1.003236  0
H  H14  1  0.39367630  0.59364216  0.29115370  1  0.081187  0  0.112279  0.101976  0  1.008146  0
H  H15  1  0.61647540  0.41782014  0.29387115  1  0.08745  0  0.113577  0.102992  0  1.001796  0
H  H16  1  0.12637778  0.08766747  0.20726281  1  0.095451  0  0.125363  0.119322  0  0.989967  0
H  H17  1  0.87981495  0.90839237  0.20581396  1  0.071755  0  0.124461  0.118385  0  0.991113  0
H  H18  1  0.62467238  0.59215811  0.70695863  1  0.076493  0  0.125412  0.11972  0  0.989378  0
H  H19  1  0.38091631  0.41854082  0.70042283  1  0.110027  0  0.126108  0.120175  0  0.985812  0
H  H20  1  0.18707157  0.17019635  0.49944883  1  0.133125  0  0.110366  0.101452  0  1.048032  0
H  H21  1  0.80960176  0.82473648  0.50280031  1  0.130821  0  0.111521  0.101956  0  1.042847  0
H  H22  1  0.69463987  0.67264936  0.00237236  1  0.115538  0  0.111578  0.101723  0  1.039602  0
H  H23  1  0.32330419  0.31975186  0.00513536  1  0.12083  0  0.110503  0.10227  0  1.048511  0
H  H24  1  0.75128555  0.58323328  0.61419909  1  0.056022  0  0.103347  0.10225  0  0.996416  0
H  H25  1  0.23949914  0.42394594  0.61397167  1  0.069503  0  0.103886  0.102837  0  0.992715  0
H  H26  1  0.25930267  0.08088543  0.11974180  1  0.042582  0  0.103696  0.102989  0  0.994839  0
H  H27  1  0.75269736  0.91535447  0.11374458  1  0.054322  0  0.103157  0.101165  0  0.996637  0
H  H28  1  0.81817532  0.67726859  0.53576721  1  0.08804  0  0.104956  0.109185  0  1.003371  0
H  H29  1  0.16923675  0.33229988  0.53498405  1  0.081532  0  0.10545  0.111046  0  0.999995  0
H  H30  1  0.32968890  0.17350887  0.04264107  1  0.091688  0  0.103075  0.108695  0  1.015794  0
H  H31  1  0.68506547  0.82251793  0.03480128  1  0.079357  0  0.105128  0.109716  0  1.001175  0
H  H32  1  0.45917049  0.11814776  0.38106224  1  0.17346  0  0.121286  0.125641  0  1.019408  0
H  H33  1  0.53710320  0.88628279  0.36774438  1  0.175573  0  0.121351  0.126682  0  1.018513  0
H  H34  1  0.97148269  0.60498331  0.86532638  1  0.166003  0  0.122606  0.128775  0  1.002157  0
H  H35  1  0.07605316  0.34606781  0.88563575  1  0.15523  0  0.124151  0.129021  0  0.993409  0
H  H36  1  0.77771471  0.18516210  0.87501659  1  0.029651  0  0.088333  0.081486  0  1.018082  0
H  H37  1  0.21218886  0.81052107  0.87652649  1  0.059637  0  0.088586  0.079462  0  1.021842  0
H  H38  1  0.28227500  0.68383550  0.37654907  1  0.02243  0  0.088281  0.079269  0  1.02181  0
H  H39  1  0.72178451  0.31521489  0.37466715  1  0.022277  0  0.088418  0.079968  0  1.021092  0
H  H40  1  0.11743344  0.66347885  0.27484381  1  0.007146  0  0.101628  0.098395  0  1.007125  0
H  H41  1  0.89005546  0.33165457  0.27505231  1  0.026681  0  0.10183  0.097608  0  1.009038  0
H  H42  1  0.60984237  0.16797027  0.77596485  1  0.027582  0  0.102316  0.099354  0  1.006209  0
H  H43  1  0.37957287  0.83729612  0.78132119  1  -0.002586  0  0.101574  0.097248  0  1.008899  0
H  H44  1  0.92928505  0.22369438  0.25983647  1  0.612504  0  0.324952  0.3606  0  0.912282  0
H  H45  1  0.07530599  0.77212171  0.26006665  1  0.623924  0  0.324499  0.359595  0  0.91298  0
H  H46  1  0.42662644  0.73070244  0.76469057  1  0.60629  0  0.324581  0.361028  0  0.910292  0
H  H47  1  0.57262846  0.27655029  0.75990228  1  0.640356  0  0.324204  0.360073  0  0.91294  0
H  H48  1  0.57913858  0.23153356  0.34214216  1  0.59118  0  0.328649  0.366404  0  0.879022  0
H  H49  1  0.41418148  0.77546697  0.32275962  1  0.602177  0  0.328923  0.367472  0  0.878179  0
H  H50  1  0.09622843  0.71588813  0.81876709  1  0.600934  0  0.32802  0.36656  0  0.882158  0
H  H51  1  0.96948610  0.22291706  0.84896146  1  0.612592  0  0.333127  0.367323  0  0.873738  0
H  H52  1  0.37347198  0.32237903  0.32693044  1  0.626997  0  0.31615  0.370023  0  0.920624  0
H  H53  1  0.61815678  0.68087621  0.31897577  1  0.625133  0  0.31563  0.369616  0  0.925287  0
H  H54  1  0.89264169  0.81171796  0.82232890  1  0.644204  0  0.314805  0.368624  0  0.927991  0
H  H55  1  0.17417219  0.15227162  0.79464807  1  0.6483  0  0.327896  0.383325  0  0.88546  0
H  H56  1  0.64085150  0.07365163  0.57523954  1  0.65604  0  0.318606  0.368372  0  0.934218  0
H  H57  1  0.35148165  0.92997335  0.58147667  1  0.661316  0  0.317231  0.368304  0  0.93978  0
H  H58  1  0.15084574  0.55836379  0.08051557  1  0.660076  0  0.318305  0.367332  0  0.936391  0
H  H59  1  0.86042986  0.42352030  0.07388341  1  0.647921  0  0.31839  0.367621  0  0.939202  0
H  H60  1  0.74193918  0.27093247  0.51604679  1  0.622454  0  0.344731  0.376114  0  0.862684  0
H  H61  1  0.25902492  0.72721192  0.51764521  1  0.597065  0  0.345503  0.377548  0  0.861472  0
H  H62  1  0.23038915  0.76369714  0.01623356  1  0.605104  0  0.344751  0.376513  0  0.862366  0
H  H63  1  0.75387185  0.22770121  0.01812358  1  0.5997  0  0.345087  0.376182  0  0.863013  0
C  C64  1  0.91701211  0.17093150  0.35846652  1  1.02203  0  0.183366  0.377235  0  4.107003  0
C  C65  1  0.08483659  0.82502598  0.35882953  1  1.02258  0  0.183187  0.377023  0  4.108904  0
C  C66  1  0.41454130  0.67481356  0.86152431  1  1.068492  0  0.182854  0.375663  0  4.108563  0
C  C67  1  0.58376424  0.32962464  0.85828604  1  1.025824  0  0.183549  0.376328  0  4.111635  0
C  C68  1  0.01719553  0.16976345  0.62341011  1  0.419592  0  0.015257  -0.025789  0  3.939486  0
C  C69  1  0.98452770  0.82837109  0.61932527  1  0.409755  0  0.016496  -0.022717  0  3.928951  0
C  C70  1  0.51713672  0.67177232  0.11739027  1  0.43349  0  0.016526  -0.021144  0  3.930296  0
C  C71  1  0.48943599  0.32875905  0.12989446  1  0.429606  0  0.016255  -0.024614  0  3.933622  0
C  C72  1  0.72268019  0.08220289  0.66228695  1  1.057141  0  0.183074  0.36879  0  4.106588  0
C  C73  1  0.26760987  0.91961060  0.66681415  1  1.05554  0  0.18211  0.367328  0  4.11411  0
C  C74  1  0.23236087  0.57577962  0.16472586  1  1.012115  0  0.183093  0.369266  0  4.109709  0
C  C75  1  0.77820014  0.41740208  0.16167282  1  1.048078  0  0.183649  0.37002  0  4.105165  0
C  C76  1  0.25975862  0.02707659  0.35854211  1  0.814492  0  0.179901  0.078415  0  3.993271  0
C  C77  1  0.74014739  0.97192292  0.35258936  1  0.794984  0  0.180074  0.079812  0  3.991124  0
C  C78  1  0.76415053  0.52467826  0.85235488  1  0.763116  0  0.179203  0.077814  0  3.990763  0
C  C79  1  0.24931069  0.46116995  0.85663431  1  0.768652  0  0.179724  0.077697  0  3.991558  0
C  C80  1  0.83791417  0.08031880  0.74423383  1  0.413575  0  0.002203  -0.048207  0  4.026098  0
C  C81  1  0.15063619  0.91868341  0.74678464  1  0.465493  0  0.003951  -0.044645  0  4.01277  0
C  C82  1  0.34751670  0.58318809  0.24414364  1  0.384077  0  0.002851  -0.048965  0  4.019703  0
C  C83  1  0.66280477  0.42224395  0.24473132  1  0.401008  0  0.002457  -0.051295  0  4.022833  0
C  C84  1  0.16369346  0.06257206  0.26015986  1  0.462026  0  0.018325  -0.050324  0  3.921628  0
C  C85  1  0.84035512  0.93436077  0.25741565  1  0.431487  0  0.018218  -0.049949  0  3.926728  0
C  C86  1  0.66384041  0.56520137  0.75822640  1  0.431016  0  0.018764  -0.050816  0  3.927612  0
C  C87  1  0.34382685  0.43775978  0.75524799  1  0.42827  0  0.018969  -0.049149  0  3.923045  0
C  C88  1  0.12884451  0.16227023  0.53478424  1  0.412827  0  0.01292  -0.028152  0  3.937179  0
C  C89  1  0.86859418  0.83398947  0.53603990  1  0.399262  0  0.015316  -0.02593  0  3.930283  0
C  C90  1  0.63470377  0.66444393  0.03511293  1  0.407423  0  0.0153  -0.027491  0  3.936073  0
C  C91  1  0.37960611  0.33088722  0.04094781  1  0.400342  0  0.014458  -0.025985  0  3.936105  0
C  C92  1  0.82545114  0.18756706  0.46218646  1  0.991451  0  0.177545  0.359098  0  4.127345  0
C  C93  1  0.17472827  0.80944627  0.46330399  1  1.056305  0  0.17694  0.357587  0  4.133385  0
C  C94  1  0.32014080  0.68490760  0.96303241  1  1.022797  0  0.176718  0.356785  0  4.132392  0
C  C95  1  0.67292917  0.31188569  0.96324606  1  1.040015  0  0.178483  0.360727  0  4.122854  0
C  C96  1  0.84669442  0.22913652  0.39344891  1  0.094012  0  -0.07648  -0.27068  0  4.19242  0
C  C97  1  0.15559037  0.76766771  0.39412125  1  0.032816  0  -0.076611  -0.271744  0  4.197753  0
C  C98  1  0.34045709  0.72935603  0.89595295  1  0.052842  0  -0.07638  -0.271255  0  4.197003  0
C  C99  1  0.65255442  0.27071947  0.89410469  1  0.023519  0  -0.075307  -0.268946  0  4.187646  0
C  C100  1  0.08184813  0.21277986  0.59501819  1  0.007344  0  -0.03972  -0.057094  0  4.074043  0
C  C101  1  0.92126620  0.78307267  0.59310800  1  -0.01155  0  -0.038558  -0.054942  0  4.070007  0
C  C102  1  0.58212392  0.71581646  0.09195884  1  0.066513  0  -0.037926  -0.053124  0  4.073802  0
C  C103  1  0.42748121  0.28269411  0.10235528  1  0.030502  0  -0.037835  -0.05286  0  4.073777  0
C  C104  1  0.74328110  0.10734341  0.73979697  1  0.047398  0  -0.059114  -0.114761  0  4.137357  0
C  C105  1  0.24567653  0.89376739  0.74378545  1  0.003172  0  -0.060214  -0.117821  0  4.141507  0
C  C106  1  0.25228461  0.60547073  0.24050181  1  0.100774  0  -0.060709  -0.117173  0  4.143781  0
C  C107  1  0.75714484  0.39339703  0.23961144  1  0.063102  0  -0.058806  -0.114352  0  4.140755  0
C  C108  1  0.25392795  0.06348029  0.28096451  1  -0.020774  0  -0.008614  -0.03793  0  4.010523  0
C  C109  1  0.74878423  0.93535696  0.27506059  1  0.057187  0  -0.009752  -0.041397  0  4.012166  0
C  C110  1  0.75598952  0.56180756  0.77513511  1  0.07192  0  -0.011043  -0.042828  0  4.016473  0
C  C111  1  0.25592873  0.42975797  0.77685524  1  0.027222  0  -0.007705  -0.036207  0  4.011627  0
C  C112  1  0.37735617  0.14518074  0.26796861  1  -0.024654  0  -0.010549  0.015778  0  3.94923  0
C  C113  1  0.62374744  0.85628329  0.25736486  1  0.027934  0  -0.010033  0.017529  0  3.945808  0
C  C114  1  0.88304101  0.63869135  0.75682463  1  0.002426  0  -0.01116  0.016119  0  3.948545  0
C  C115  1  0.14314263  0.33877550  0.76425011  1  -0.030647  0  -0.01102  0.020175  0  3.964436  0
C  C116  1  0.31478206  0.10320398  0.23517089  1  0.062076  0  -0.010293  0.043074  0  4.037196  0
C  C117  1  0.68948229  0.89633961  0.22695808  1  0.002945  0  -0.009247  0.044255  0  4.038076  0
C  C118  1  0.81605138  0.60012122  0.72685249  1  0.014985  0  -0.009626  0.043985  0  4.041751  0
C  C119  1  0.19719174  0.38857301  0.73051965  1  0.104228  0  -0.008437  0.043357  0  4.040133  0
C  C120  1  0.79930589  0.61400649  0.64371760  1  -0.046175  0  -0.083536  -0.115078  0  3.967929  0
C  C121  1  0.20097087  0.38525544  0.64549056  1  -0.053323  0  -0.080569  -0.1097  0  3.952022  0
C  C122  1  0.30409595  0.11383915  0.15100095  1  -0.027879  0  -0.082234  -0.112604  0  3.959052  0
C  C123  1  0.70521920  0.88391426  0.14344187  1  -0.040098  0  -0.082866  -0.112795  0  3.965556  0
C  C124  1  0.83836523  0.66738099  0.59843758  1  0.011864  0  -0.082554  -0.122176  0  3.942874  0
C  C125  1  0.15981739  0.33337702  0.59996428  1  -0.0402  0  -0.081484  -0.122796  0  3.938057  0
C  C126  1  0.34537585  0.16625368  0.10643742  1  -0.009492  0  -0.082594  -0.119251  0  3.934959  0
C  C127  1  0.66580751  0.83114693  0.09787557  1  -0.007669  0  -0.082213  -0.123286  0  3.946382  0
C  C128  1  0.89916919  0.71242414  0.63163419  1  0.011005  0  0.009156  0.102594  0  4.004107  0
C  C129  1  0.10965368  0.27992882  0.63531200  1  0.032598  0  0.009837  0.105503  0  4.004315  0
C  C130  1  0.40227261  0.21383814  0.14173369  1  -0.028807  0  0.009288  0.102475  0  4.005885  0
C  C131  1  0.60551669  0.78544444  0.13114228  1  -0.038038  0  0.009807  0.102611  0  4.00785  0
C  C132  1  0.41930910  0.19690728  0.22333804  1  0.036852  0  -0.017542  -0.107565  0  3.86213  0
C  C133  1  0.58318860  0.80463584  0.21156333  1  -0.006772  0  -0.017233  -0.106443  0  3.858659  0
C  C134  1  0.92319474  0.69113202  0.71129771  1  0.013844  0  -0.017329  -0.107584  0  3.854888  0
C  C135  1  0.10094925  0.28828719  0.71881669  1  -0.001418  0  -0.018271  -0.114485  0  3.878716  0
C  C136  1  0.46296451  0.22777559  0.29627358  1  1.071707  0  0.169436  0.488835  0  3.899849  0
C  C137  1  0.53392320  0.77641963  0.28292845  1  1.139984  0  0.169394  0.485712  0  3.90483  0
C  C138  1  0.97472824  0.71673467  0.78232912  1  1.124374  0  0.169477  0.486795  0  3.906228  0
C  C139  1  0.07244824  0.24437159  0.79134996  1  1.117935  0  0.172387  0.486637  0  3.903617  0
C  C140  1  0.41357798  0.16593279  0.34806221  1  0.167904  0  -0.002213  -0.199255  0  3.725951  0
C  C141  1  0.58270283  0.83727266  0.33618717  1  0.170215  0  -0.001204  -0.197117  0  3.718273  0
C  C142  1  0.92606635  0.65518341  0.83526994  1  0.165113  0  -0.000724  -0.197538  0  3.717001  0
C  C143  1  0.12099367  0.30616074  0.84441207  1  0.174449  0  -0.001439  -0.200618  0  3.750193  0
C  C144  1  0.70631002  0.19994189  0.85670254  1  -0.013398  0  -0.118096  -0.114973  0  4.129776  0
C  C145  1  0.28402984  0.79904639  0.85911015  1  -0.144801  0  -0.121683  -0.121908  0  4.138088  0
C  C146  1  0.21123853  0.69774420  0.35701880  1  -0.068377  0  -0.1212  -0.11964  0  4.138401  0
C  C147  1  0.79318989  0.29996244  0.35603203  1  -0.055308  0  -0.120184  -0.119784  0  4.134277  0
C  C148  1  0.18866859  0.65642419  0.29262725  1  0.004589  0  -0.110152  -0.128808  0  4.084246  0
C  C149  1  0.81837436  0.34073339  0.29218660  1  -0.052651  0  -0.109342  -0.126827  0  4.080663  0
C  C150  1  0.68150379  0.15930887  0.79279121  1  -0.044179  0  -0.110601  -0.131138  0  4.080335  0
C  C151  1  0.30782337  0.84275014  0.79691256  1  0.04621  0  -0.109032  -0.125188  0  4.082117  0
N  N152  1  0.93527221  0.10286309  0.40189222  1  -0.818462  0  -0.300695  -0.299081  0  3.553872  0
N  N153  1  0.06446605  0.89286649  0.40244309  1  -0.819688  0  -0.301735  -0.29986  0  3.549059  0
N  N154  1  0.43555878  0.60603509  0.90373553  1  -0.84979  0  -0.301401  -0.297298  0  3.552503  0
N  N155  1  0.56550877  0.39772324  0.90160025  1  -0.824606  0  -0.302418  -0.300604  0  3.557047  0
N  N156  1  0.02670630  0.09920484  0.58428257  1  -0.798765  0  -0.278376  -0.169582  0  3.605447  0
N  N157  1  0.96907174  0.90035513  0.58214090  1  -0.77914  0  -0.279167  -0.173687  0  3.604652  0
N  N158  1  0.53161750  0.59989376  0.08001405  1  -0.79827  0  -0.278764  -0.175401  0  3.596162  0
N  N159  1  0.47764325  0.39863220  0.08914079  1  -0.795047  0  -0.277603  -0.168805  0  3.602948  0
N  N160  1  0.79813312  0.04430524  0.62409922  1  -0.817902  0  -0.290887  -0.317357  0  3.471489  0
N  N161  1  0.19254713  0.95603652  0.62747606  1  -0.81883  0  -0.291132  -0.317962  0  3.469409  0
N  N162  1  0.30861150  0.53973107  0.12667225  1  -0.806567  0  -0.291158  -0.318347  0  3.467239  0
N  N163  1  0.70319472  0.45625806  0.12376556  1  -0.818812  0  -0.29097  -0.318004  0  3.468462  0
N  N164  1  0.18036601  0.00830998  0.38017509  1  -0.672179  0  -0.238971  -0.213935  0  3.50299  0
N  N165  1  0.81924975  0.98900713  0.37698765  1  -0.681181  0  -0.237677  -0.212273  0  3.499182  0
N  N166  1  0.68432773  0.50947561  0.87740995  1  -0.68107  0  -0.238726  -0.210356  0  3.503211  0
N  N167  1  0.32656286  0.48353670  0.87866674  1  -0.681726  0  -0.236547  -0.213956  0  3.490785  0
N  N168  1  0.87010775  0.04274865  0.67606909  1  -0.818915  0  -0.284373  -0.170527  0  3.599107  0
N  N169  1  0.11957424  0.95582667  0.67821793  1  -0.818826  0  -0.283155  -0.167999  0  3.594587  0
N  N170  1  0.38048121  0.54403721  0.17703738  1  -0.802895  0  -0.283831  -0.169425  0  3.598252  0
N  N171  1  0.63118507  0.45976494  0.17646884  1  -0.806264  0  -0.284034  -0.168139  0  3.591955  0
N  N172  1  0.12206501  0.02897763  0.31998190  1  -0.718684  0  -0.222611  -0.103704  0  3.492601  0
N  N173  1  0.88005376  0.96718283  0.31864192  1  -0.71229  0  -0.223344  -0.103546  0  3.501534  0
N  N174  1  0.62342319  0.53310756  0.81965855  1  -0.713482  0  -0.226048  -0.103566  0  3.510558  0
N  N175  1  0.38382014  0.47014546  0.81673712  1  -0.683852  0  -0.22152  -0.100215  0  3.491233  0
N  N176  1  0.09577631  0.09414472  0.52996955  1  -0.794756  0  -0.280513  -0.18868  0  3.586943  0
N  N177  1  0.89760942  0.90400158  0.53091112  1  -0.786868  0  -0.278053  -0.184168  0  3.588386  0
N  N178  1  0.60412325  0.59525895  0.02944213  1  -0.79273  0  -0.278472  -0.184505  0  3.591931  0
N  N179  1  0.40975022  0.40027585  0.03447503  1  -0.79261  0  -0.27968  -0.187379  0  3.592255  0
N  N180  1  0.87710334  0.11305801  0.46771530  1  -0.807201  0  -0.296986  -0.293503  0  3.528983  0
N  N181  1  0.12157553  0.88323914  0.46870273  1  -0.819836  0  -0.297439  -0.292496  0  3.538592  0
N  N182  1  0.37570569  0.61221940  0.96812659  1  -0.787901  0  -0.295907  -0.291809  0  3.539747  0
N  N183  1  0.62227283  0.38687437  0.96815286  1  -0.807502  0  -0.297472  -0.294703  0  3.527468  0
N  N184  1  0.34251111  0.20638773  0.40598136  1  0.401184  0  0.047241  0.546286  0  4.15089  0
N  N185  1  0.65089076  0.79626892  0.39629758  1  0.396799  0  0.048948  0.548244  0  4.145613  0
N  N186  1  0.85918844  0.69543444  0.89707434  1  0.4165  0  0.050011  0.549229  0  4.142432  0
N  N187  1  0.19971876  0.26248324  0.89148401  1  0.390851  0  0.043033  0.543519  0  4.181384  0
N  N188  1  0.33198040  0.00008152  0.41195607  1  0.264765  0  0.049919  0.498986  0  4.199733  0
N  N189  1  0.66567753  0.00113097  0.40336953  1  0.247904  0  0.052365  0.501322  0  4.20362  0
N  N190  1  0.83864671  0.49357076  0.90250270  1  0.266632  0  0.053152  0.503239  0  4.204649  0
N  N191  1  0.17717666  0.48072173  0.91178841  1  0.261693  0  0.049231  0.497797  0  4.195126  0
O  O192  1  0.95989843  0.17423593  0.28722538  1  -1.147665  0  -0.349004  -0.457396  0  2.286021  0
O  O193  1  0.04325943  0.82121575  0.28720882  1  -1.162454  0  -0.348512  -0.456719  0  2.285017  0
O  O194  1  0.45892499  0.68168031  0.79174332  1  -1.145439  0  -0.348407  -0.457044  0  2.279004  0
O  O195  1  0.54258693  0.32677384  0.78637065  1  -1.17502  0  -0.348591  -0.456991  0  2.289756  0
O  O196  1  0.55735388  0.20543204  0.29594935  1  -1.084143  0  -0.376312  -0.504638  0  2.174231  0
O  O197  1  0.43991744  0.80158761  0.27853462  1  -1.137118  0  -0.377235  -0.505096  0  2.169581  0
O  O198  1  0.06842384  0.69059129  0.77537708  1  -1.125681  0  -0.377767  -0.505404  0  2.169525  0
O  O199  1  0.97915405  0.25678344  0.80347448  1  -1.140363  0  -0.372905  -0.50103  0  2.184859  0
O  O200  1  0.43927271  0.30969353  0.31707242  1  -1.134303  0  -0.394883  -0.558815  0  2.200734  0
O  O201  1  0.55329927  0.69476836  0.30517906  1  -1.134982  0  -0.394704  -0.560476  0  2.208493  0
O  O202  1  0.95713689  0.79765324  0.80694530  1  -1.157031  0  -0.394702  -0.5611  0  2.210346  0
O  O203  1  0.10814014  0.16163190  0.80088114  1  -1.151061  0  -0.38964  -0.552255  0  2.196336  0
O  O204  1  0.34051158  0.17621504  0.47359640  1  -0.4534  0  -0.126093  -0.325368  0  1.904034  0
O  O205  1  0.28908749  0.26910857  0.38343913  1  -0.491988  0  -0.14035  -0.358939  0  1.897613  0
O  O206  1  0.65366940  0.82913779  0.46238199  1  -0.454128  0  -0.125376  -0.325641  0  1.903355  0
O  O207  1  0.70138353  0.73073102  0.37691101  1  -0.485301  0  -0.138334  -0.356592  0  1.901245  0
O  O208  1  0.85626126  0.66094392  0.96231406  1  -0.454101  0  -0.124928  -0.324844  0  1.902716  0
O  O209  1  0.80966561  0.76204980  0.87958880  1  -0.502132  0  -0.139601  -0.358548  0  1.901624  0
O  O210  1  0.19766822  0.27157331  0.96550639  1  -0.463868  0  -0.134129  -0.341178  0  1.910784  0
O  O211  1  0.26140691  0.21625115  0.85458477  1  -0.478677  0  -0.142052  -0.3558  0  1.885054  0
O  O212  1  0.63900877  0.09634618  0.62964481  1  -1.172598  0  -0.356887  -0.465592  0  2.266242  0
O  O213  1  0.35214034  0.90711209  0.63584834  1  -1.175424  0  -0.358521  -0.468468  0  2.269522  0
O  O214  1  0.14837677  0.58427648  0.13349073  1  -1.173655  0  -0.357426  -0.465791  0  2.268878  0
O  O215  1  0.86178283  0.40136580  0.12856416  1  -1.166968  0  -0.358191  -0.466612  0  2.268883  0
O  O216  1  0.31158843  0.97639772  0.48171874  1  -0.5843  0  -0.158349  -0.384287  0  2.089535  0
O  O217  1  0.41110975  0.99728121  0.39106787  1  -0.437094  0  -0.099935  -0.292724  0  2.035438  0
O  O218  1  0.68328205  0.02424426  0.47397565  1  -0.566909  0  -0.159252  -0.384667  0  2.077588  0
O  O219  1  0.58749576  0.00636156  0.37914323  1  -0.416168  0  -0.095946  -0.286727  0  2.034574  0
O  O220  1  0.82035955  0.47196229  0.97352027  1  -0.563674  0  -0.156401  -0.382942  0  2.074768  0
O  O221  1  0.91684756  0.48555288  0.87720683  1  -0.41665  0  -0.099005  -0.285803  0  1.996889  0
O  O222  1  0.19589175  0.50446483  0.98197672  1  -0.588265  0  -0.161096  -0.384893  0  2.083877  0
O  O223  1  0.09916708  0.47702863  0.89237282  1  -0.437732  0  -0.100931  -0.292483  0  2.014448  0
O  O224  1  0.75909626  0.21212115  0.51771086  1  -1.139352  0  -0.346467  -0.452321  0  2.269255  0
O  O225  1  0.24031462  0.78590880  0.51943277  1  -1.126319  0  -0.346312  -0.451382  0  2.267859  0
O  O226  1  0.25151627  0.70519659  0.01723813  1  -1.135686  0  -0.345613  -0.450533  0  2.273505  0
O  O227  1  0.73738777  0.28653094  0.01990350  1  -1.121841  0  -0.344706  -0.449768  0  2.269871  0
