# generated using pymatgen
data_FeH22(C5N2)6
_symmetry_space_group_name_H-M   'P 1'
_cell_length_a   9.17461995
_cell_length_b   16.75801701
_cell_length_c   16.75815564
_cell_angle_alpha   116.76190496
_cell_angle_beta   100.50425415
_cell_angle_gamma   100.51420681
_symmetry_Int_Tables_number   1
_chemical_formula_structural   FeH22(C5N2)6
_chemical_formula_sum   'Fe3 H66 C90 N36'
_cell_volume   2156.84207097
_cell_formula_units_Z   3
loop_
 _symmetry_equiv_pos_site_id
 _symmetry_equiv_pos_as_xyz
  1  'x, y, z'
loop_
 _atom_site_type_symbol
 _atom_site_label
 _atom_site_symmetry_multiplicity
 _atom_site_fract_x
 _atom_site_fract_y
 _atom_site_fract_z
 _atom_site_occupancy
 _atom_site_pbe_bader_charge
 _atom_site_pbe_bader_spin_density
 _atom_site_pbe_cm5_charge
 _atom_site_pbe_ddec_charge
 _atom_site_pbe_ddec_spin_density
 _atom_site_pbe_ddec_sum_bond_order
 _atom_site_pbe_magmom
Fe  Fe0  1  0.49999968  0.00000128  0.49999973  1  1.13242  0  0.802441  0.299242  0  3.766432  0
Fe  Fe1  1  0.99999626  0.50000101  0.49999897  1  1.140161  0  0.802458  0.299777  0  3.767832  0
Fe  Fe2  1  0.50000306  0.50000113  0.00000021  1  1.125584  0  0.803333  0.299687  0  3.767131  0
H  H3  1  0.37220051  0.91896013  0.28594824  1  0.156263  0  0.119182  0.084449  0  1.093215  0
H  H4  1  0.08621587  0.71408114  0.63302559  1  0.147924  0  0.118432  0.082311  0  1.095234  0
H  H5  1  0.45344356  0.36688470  0.08086669  1  0.154498  0  0.120361  0.08575  0  1.093229  0
H  H6  1  0.62779633  0.08104120  0.71405071  1  0.156219  0  0.119174  0.084439  0  1.09325  0
H  H7  1  0.91377979  0.28592229  0.36697300  1  0.14801  0  0.118437  0.082368  0  1.095136  0
H  H8  1  0.54656103  0.63311662  0.91913244  1  0.154457  0  0.120385  0.085768  0  1.093134  0
H  H9  1  0.47221975  0.95853723  0.17469056  1  0.122223  0  0.107997  0.081871  0  1.041145  0
H  H10  1  0.29755202  0.82542692  0.78386276  1  0.107894  0  0.107544  0.080893  0  1.043044  0
H  H11  1  0.51388004  0.21596437  0.04102552  1  0.114621  0  0.107424  0.080809  0  1.042051  0
H  H12  1  0.52778367  0.04146619  0.82531238  1  0.122216  0  0.107976  0.081838  0  1.041068  0
H  H13  1  0.70244113  0.17457370  0.21613729  1  0.107985  0  0.107492  0.080852  0  1.042997  0
H  H14  1  0.48612269  0.78403765  0.95897434  1  0.114557  0  0.107458  0.08088  0  1.042071  0
H  H15  1  0.85996350  0.16395572  0.39431886  1  0.126721  0  0.118497  0.097314  0  1.016809  0
H  H16  1  0.46538554  0.60575918  0.76980467  1  0.120271  0  0.117779  0.097593  0  1.016534  0
H  H17  1  0.69610532  0.23049973  0.83571639  1  0.115717  0  0.118276  0.097197  0  1.017799  0
H  H18  1  0.14003923  0.83604630  0.60568219  1  0.126684  0  0.118518  0.09736  0  1.016863  0
H  H19  1  0.53461305  0.39424564  0.23019722  1  0.120177  0  0.117795  0.097683  0  1.016672  0
H  H20  1  0.30389816  0.76950160  0.16428382  1  0.115677  0  0.118281  0.097208  0  1.017835  0
H  H21  1  0.10879248  0.35571348  0.68105995  1  0.112001  0  0.108874  0.120584  0  1.036738  0
H  H22  1  0.42792442  0.31910050  0.67445335  1  0.107472  0  0.109047  0.120921  0  1.036141  0
H  H23  1  0.75283735  0.32564590  0.64436558  1  0.121636  0  0.109138  0.120807  0  1.036277  0
H  H24  1  0.89120680  0.64427943  0.31893666  1  0.112236  0  0.108874  0.120643  0  1.036535  0
H  H25  1  0.57208121  0.68090293  0.32554862  1  0.107569  0  0.109061  0.120899  0  1.036118  0
H  H26  1  0.24715412  0.67434911  0.35562462  1  0.121498  0  0.109131  0.12073  0  1.036439  0
H  H27  1  0.34057915  0.46983430  0.81361935  1  0.128237  0  0.119882  0.089058  0  1.030508  0
H  H28  1  0.52692359  0.18652168  0.65616043  1  0.121508  0  0.119681  0.088821  0  1.031717  0
H  H29  1  0.87044468  0.34395050  0.53018594  1  0.11466  0  0.120052  0.090008  0  1.030294  0
H  H30  1  0.65941903  0.53015861  0.18637416  1  0.128283  0  0.119843  0.08902  0  1.03034  0
H  H31  1  0.47308024  0.81348035  0.34384311  1  0.121531  0  0.119684  0.08885  0  1.031697  0
H  H32  1  0.12954551  0.65605083  0.46980638  1  0.116373  0  0.120062  0.090031  0  1.030291  0
H  H33  1  0.21840218  0.36505662  0.98239922  1  0.08657  0  0.115378  0.083314  0  1.048277  0
H  H34  1  0.23554734  0.01740831  0.38266681  1  0.095753  0  0.114642  0.083312  0  1.049103  0
H  H35  1  0.85280349  0.61752815  0.63476771  1  0.086878  0  0.115058  0.08355  0  1.048469  0
H  H36  1  0.78159902  0.63494681  0.01760171  1  0.086595  0  0.115363  0.08329  0  1.048159  0
H  H37  1  0.76444872  0.98259372  0.61733655  1  0.095676  0  0.114641  0.083292  0  1.049108  0
H  H38  1  0.14719841  0.38247667  0.36523810  1  0.086922  0  0.115054  0.083543  0  1.048498  0
H  H39  1  0.98123902  0.24545029  0.85504909  1  0.117115  0  0.104523  0.115512  0  1.028208  0
H  H40  1  0.12586988  0.14475842  0.39028197  1  0.106012  0  0.103865  0.115059  0  1.028699  0
H  H41  1  0.73512507  0.60987398  0.75437395  1  0.104345  0  0.104116  0.115797  0  1.028649  0
H  H42  1  0.01875885  0.75455314  0.14495628  1  0.11715  0  0.104576  0.115607  0  1.028053  0
H  H43  1  0.87412910  0.85524501  0.60971933  1  0.106246  0  0.103864  0.115082  0  1.028746  0
H  H44  1  0.26487852  0.39012314  0.24562856  1  0.104329  0  0.10409  0.115737  0  1.028595  0
H  H45  1  0.09084118  0.08430874  0.58829888  1  0.178288  0  0.138872  0.212283  0  0.988925  0
H  H46  1  0.50294790  0.41134801  0.49557414  1  0.186282  0  0.139283  0.212234  0  0.988909  0
H  H47  1  0.00671996  0.50378917  0.91565006  1  0.215294  0  0.139398  0.212173  0  0.989672  0
H  H48  1  0.90918136  0.91569749  0.41171321  1  0.17791  0  0.138874  0.212294  0  0.988921  0
H  H49  1  0.49703829  0.58863649  0.50442154  1  0.186069  0  0.139232  0.212187  0  0.988792  0
H  H50  1  0.99327962  0.49620654  0.08434306  1  0.215829  0  0.139415  0.212227  0  0.989654  0
H  H51  1  0.25507593  0.12952260  0.80571916  1  0.217992  0  0.14027  0.212973  0  0.988585  0
H  H52  1  0.44864765  0.19380268  0.32314335  1  0.206104  0  0.140198  0.212736  0  0.98822  0
H  H53  1  0.12554640  0.67602829  0.87044791  1  0.209385  0  0.13986  0.21252  0  0.98857  0
H  H54  1  0.74492597  0.87048223  0.19428903  1  0.218165  0  0.140312  0.21307  0  0.988497  0
H  H55  1  0.55132445  0.80618462  0.67684203  1  0.206006  0  0.140207  0.2127  0  0.988111  0
H  H56  1  0.87446250  0.32397723  0.12955713  1  0.209386  0  0.139836  0.21243  0  0.988664  0
H  H57  1  0.31161577  0.16965569  0.11017072  1  0.198386  0  0.137448  0.207537  0  1.001991  0
H  H58  1  0.20058425  0.89026484  0.05889184  1  0.219281  0  0.136771  0.207138  0  1.001546  0
H  H59  1  0.14218452  0.94120294  0.83161398  1  0.204593  0  0.136889  0.207654  0  1.001423  0
H  H60  1  0.68837138  0.83031970  0.88983170  1  0.19921  0  0.137428  0.207384  0  1.002171  0
H  H61  1  0.79940855  0.10972177  0.94109889  1  0.219398  0  0.136767  0.207165  0  1.001611  0
H  H62  1  0.85782537  0.05879347  0.16838407  1  0.20484  0  0.136905  0.2077  0  1.001403  0
H  H63  1  0.09084616  0.27964439  0.04207525  1  0.211749  0  0.130008  0.201699  0  1.023042  0
H  H64  1  0.04915568  0.95755737  0.23756301  1  0.184045  0  0.130378  0.202779  0  1.020944  0
H  H65  1  0.81207070  0.76257743  0.72017129  1  0.225593  0  0.13008  0.202375  0  1.022108  0
H  H66  1  0.90916991  0.72034221  0.95792199  1  0.211403  0  0.130012  0.201759  0  1.023053  0
H  H67  1  0.95084232  0.04244185  0.76243212  1  0.183936  0  0.130345  0.202765  0  1.020901  0
H  H68  1  0.18792006  0.23742950  0.27983076  1  0.225486  0  0.130044  0.202363  0  1.02216  0
C  C69  1  0.48177752  0.97325496  0.30974350  1  0.431426  0  0.045685  0.030234  0  3.895452  0
C  C70  1  0.17196062  0.69032058  0.66356968  1  0.463331  0  0.047139  0.032831  0  3.892693  0
C  C71  1  0.50871411  0.33643662  0.02655633  1  0.40292  0  0.044009  0.026252  0  3.897313  0
C  C72  1  0.51822369  0.02674847  0.69025683  1  0.438627  0  0.045673  0.030201  0  3.895352  0
C  C73  1  0.82803323  0.30968144  0.33643287  1  0.463379  0  0.047067  0.032617  0  3.89261  0
C  C74  1  0.49128791  0.66356401  0.97344342  1  0.402919  0  0.044051  0.026442  0  3.897111  0
C  C75  1  0.53789310  0.99699583  0.24886930  1  0.487027  0  0.035677  0.025376  0  3.989091  0
C  C76  1  0.28897305  0.75121670  0.74816319  1  0.495197  0  0.035516  0.026076  0  3.988772  0
C  C77  1  0.54113256  0.25182810  0.00269702  1  0.528996  0  0.037877  0.028972  0  3.988688  0
C  C78  1  0.46210636  0.00300409  0.75112750  1  0.479883  0  0.03569  0.025439  0  3.988981  0
C  C79  1  0.71102367  0.24878882  0.25183644  1  0.495283  0  0.035585  0.026131  0  3.988899  0
C  C80  1  0.45887384  0.74817462  0.99730412  1  0.529044  0  0.037845  0.028787  0  3.988891  0
C  C81  1  0.75043291  0.10869272  0.36842906  1  0.575857  0  0.050565  0.016523  0  3.932783  0
C  C82  1  0.38181427  0.63163852  0.74037483  1  0.525224  0  0.050786  0.01645  0  3.933991  0
C  C83  1  0.64195789  0.25984613  0.89106364  1  0.529889  0  0.050982  0.017054  0  3.935026  0
C  C84  1  0.24956357  0.89130790  0.63157132  1  0.575872  0  0.050492  0.016389  0  3.932915  0
C  C85  1  0.61817725  0.36836771  0.25962878  1  0.525043  0  0.050845  0.016469  0  3.93398  0
C  C86  1  0.35804751  0.74015239  0.10893789  1  0.530115  0  0.050916  0.016868  0  3.935163  0
C  C87  1  0.69702223  0.08651209  0.43103300  1  0.458135  0  0.12259  0.114333  0  3.975379  0
C  C88  1  0.26589032  0.56902800  0.65555210  1  0.434022  0  0.122218  0.113398  0  3.976645  0
C  C89  1  0.61074276  0.34464714  0.91338802  1  0.438188  0  0.122687  0.11531  0  3.976759  0
C  C90  1  0.30297833  0.91348783  0.56896808  1  0.458099  0  0.122603  0.11442  0  3.975385  0
C  C91  1  0.73410791  0.43097613  0.34445004  1  0.434237  0  0.122156  0.113318  0  3.976686  0
C  C92  1  0.38926183  0.65535418  0.08661409  1  0.438122  0  0.122701  0.115435  0  3.976681  0
C  C93  1  0.77082769  0.13194650  0.53004219  1  0.95065  0  0.195957  0.20342  0  4.120631  0
C  C94  1  0.24077668  0.47000889  0.60190551  1  0.989822  0  0.196586  0.204127  0  4.121251  0
C  C95  1  0.63912421  0.39835476  0.86808317  1  0.975291  0  0.196182  0.202414  0  4.119859  0
C  C96  1  0.22917241  0.86805693  0.46996042  1  0.950623  0  0.195861  0.20327  0  4.120389  0
C  C97  1  0.75922388  0.52999103  0.39809617  1  0.989593  0  0.196555  0.204108  0  4.121071  0
C  C98  1  0.36087933  0.60164446  0.13191730  1  0.97569  0  0.196162  0.202386  0  4.119978  0
C  C99  1  0.90193121  0.21575730  0.67169776  1  0.952048  0  0.20213  0.239273  0  4.0731  0
C  C100  1  0.23031172  0.32832946  0.54389143  1  0.916581  0  0.198865  0.237175  0  4.073804  0
C  C101  1  0.68605471  0.45627869  0.78428786  1  0.934515  0  0.200367  0.238531  0  4.074272  0
C  C102  1  0.09806316  0.78423912  0.32830231  1  0.951284  0  0.202072  0.239243  0  4.073346  0
C  C103  1  0.76968797  0.67167536  0.45611058  1  0.914131  0  0.198805  0.237143  0  4.073959  0
C  C104  1  0.31394848  0.54371982  0.21570867  1  0.934388  0  0.200351  0.238468  0  4.074189  0
C  C105  1  0.02617380  0.28866237  0.75507285  1  -0.041831  0  0.017004  0.076585  0  3.995075  0
C  C106  1  0.27115376  0.24496075  0.53340960  1  -0.017009  0  0.016221  0.076634  0  3.997504  0
C  C107  1  0.73715190  0.46671362  0.71133360  1  -0.015492  0  0.017878  0.078888  0  3.995698  0
C  C108  1  0.97382419  0.71133685  0.24492587  1  -0.04068  0  0.016989  0.076561  0  3.99481  0
C  C109  1  0.72885002  0.75504337  0.46658952  1  -0.015348  0  0.016216  0.076697  0  3.997528  0
C  C110  1  0.26284423  0.53328630  0.28866285  1  -0.015012  0  0.017937  0.078996  0  3.99529  0
C  C111  1  0.12876623  0.35573584  0.74691416  1  0.034673  0  -0.079296  -0.148737  0  3.920324  0
C  C112  1  0.38193407  0.25314353  0.60866795  1  0.026861  0  -0.080404  -0.150456  0  3.92134  0
C  C113  1  0.77267245  0.39143219  0.64425274  1  0.011001  0  -0.080367  -0.150117  0  3.921387  0
C  C114  1  0.87122278  0.64425427  0.25307597  1  0.03421  0  -0.07928  -0.148809  0  3.920644  0
C  C115  1  0.61806894  0.74686130  0.39133677  1  0.026941  0  -0.08046  -0.150501  0  3.921537  0
C  C116  1  0.22731709  0.60856563  0.35574389  1  0.010528  0  -0.080376  -0.150045  0  3.921614  0
C  C117  1  0.25873498  0.41979380  0.82110105  1  0.411074  0  0.041858  0.084128  0  3.912967  0
C  C118  1  0.43757984  0.17895073  0.59859386  1  0.448947  0  0.041658  0.083228  0  3.915772  0
C  C119  1  0.83860614  0.40151860  0.58019967  1  0.441174  0  0.042038  0.082387  0  3.912386  0
C  C120  1  0.74128285  0.58020962  0.17890334  1  0.410541  0  0.041842  0.084175  0  3.913326  0
C  C121  1  0.56241886  0.82104989  0.40140555  1  0.448831  0  0.041644  0.083218  0  3.915766  0
C  C122  1  0.16138859  0.59847852  0.41979359  1  0.439752  0  0.04201  0.082293  0  3.912647  0
C  C123  1  0.18971224  0.36073171  0.91437632  1  0.404907  0  0.033172  0.058056  0  3.933563  0
C  C124  1  0.27505359  0.08552185  0.44632479  1  0.383639  0  0.034976  0.059356  0  3.933709  0
C  C125  1  0.82847870  0.55383470  0.63912245  1  0.4433  0  0.032816  0.057638  0  3.93232  0
C  C126  1  0.81029334  0.63927382  0.08562958  1  0.405015  0  0.033152  0.058044  0  3.933757  0
C  C127  1  0.72494102  0.91447947  0.55367513  1  0.383598  0  0.034942  0.0594  0  3.933749  0
C  C128  1  0.17152034  0.44616662  0.36087791  1  0.443169  0  0.032814  0.057574  0  3.932569  0
C  C129  1  0.05652263  0.29462351  0.84313368  1  0.016921  0  -0.085972  -0.163  0  3.946284  0
C  C130  1  0.21320637  0.15678393  0.45139315  1  0.041698  0  -0.08533  -0.164051  0  3.947714  0
C  C131  1  0.76135232  0.54875282  0.70525921  1  -0.031281  0  -0.085296  -0.164587  0  3.945041  0
C  C132  1  0.94346591  0.70537010  0.15686037  1  0.016648  0  -0.085991  -0.163069  0  3.946437  0
C  C133  1  0.78679663  0.84322090  0.54861337  1  0.041897  0  -0.085256  -0.164108  0  3.947637  0
C  C134  1  0.23864823  0.45124710  0.29474604  1  -0.031233  0  -0.085306  -0.164539  0  3.944851  0
C  C135  1  0.14259447  0.09602482  0.65685452  1  -0.361844  0  -0.126457  -0.186335  0  3.830185  0
C  C136  1  0.48578346  0.34274730  0.43868367  1  -0.357737  0  -0.126781  -0.186368  0  3.831012  0
C  C137  1  0.04664647  0.56062371  0.90390587  1  -0.195072  0  -0.126475  -0.185827  0  3.831798  0
C  C138  1  0.85742288  0.90398211  0.34315736  1  -0.361438  0  -0.126512  -0.186369  0  3.829902  0
C  C139  1  0.51420232  0.65723861  0.56131260  1  -0.359574  0  -0.126751  -0.186375  0  3.831057  0
C  C140  1  0.95335223  0.43937691  0.09609175  1  -0.195342  0  -0.126478  -0.185949  0  3.831818  0
C  C141  1  0.20222887  0.11372101  0.73576236  1  -0.025896  0  -0.131161  -0.206497  0  3.836675  0
C  C142  1  0.46611558  0.26380198  0.37736911  1  -0.026289  0  -0.131072  -0.206085  0  3.836123  0
C  C143  1  0.08854758  0.62185325  0.88622471  1  -0.219212  0  -0.131265  -0.206435  0  3.837406  0
C  C144  1  0.79777991  0.88628872  0.26424993  1  -0.026127  0  -0.131142  -0.206582  0  3.836278  0
C  C145  1  0.53385954  0.73618252  0.62262128  1  -0.024111  0  -0.13107  -0.205964  0  3.836237  0
C  C146  1  0.91145736  0.37814877  0.11377596  1  -0.219486  0  -0.131259  -0.206293  0  3.837353  0
C  C147  1  0.23852853  0.20260361  0.08655908  1  0.095458  0  -0.133663  -0.203147  0  3.850913  0
C  C148  1  0.15157271  0.91356621  0.11568839  1  -0.523401  0  -0.12934  -0.199067  0  3.849221  0
C  C149  1  0.03637505  0.88442633  0.79813717  1  -0.384113  0  -0.132574  -0.203196  0  3.850878  0
C  C150  1  0.76146587  0.79737739  0.91344420  1  0.096188  0  -0.133609  -0.202814  0  3.851435  0
C  C151  1  0.84841554  0.08642460  0.88430437  1  -0.522725  0  -0.129306  -0.199117  0  3.849097  0
C  C152  1  0.96362918  0.11557429  0.20186399  1  -0.387116  0  -0.132547  -0.203159  0  3.850963  0
C  C153  1  0.16096059  0.24311607  0.06188710  1  -0.503069  0  -0.13376  -0.207308  0  3.867064  0
C  C154  1  0.09908518  0.93795448  0.18105750  1  0.1232  0  -0.137434  -0.211781  0  3.865054  0
C  C155  1  0.91852788  0.81906080  0.75711090  1  -0.043893  0  -0.134166  -0.207641  0  3.865741  0
C  C156  1  0.83904730  0.75687194  0.93811353  1  -0.504312  0  -0.133804  -0.20757  0  3.867649  0
C  C157  1  0.90090635  0.06203843  0.81893415  1  0.122524  0  -0.137428  -0.211742  0  3.864798  0
C  C158  1  0.08146662  0.18094473  0.24289209  1  -0.041035  0  -0.134181  -0.207713  0  3.865971  0
N  N159  1  0.56067796  0.01756946  0.40145190  1  -1.147397  0  -0.325646  -0.153158  0  3.596551  0
N  N160  1  0.15911940  0.59858870  0.61616854  1  -1.166219  0  -0.326325  -0.153204  0  3.594882  0
N  N161  1  0.54329165  0.38394961  0.98235381  1  -1.141527  0  -0.327182  -0.153116  0  3.59703  0
N  N162  1  0.43931928  0.98243046  0.59854646  1  -1.147525  0  -0.325621  -0.15313  0  3.596432  0
N  N163  1  0.84087918  0.40141613  0.38383454  1  -1.166292  0  -0.326239  -0.15294  0  3.594656  0
N  N164  1  0.45670961  0.61605172  0.01764737  1  -1.141517  0  -0.327231  -0.153273  0  3.597147  0
N  N165  1  0.67184759  0.06415731  0.27704351  1  -1.22235  0  -0.311366  -0.242279  0  3.361854  0
N  N166  1  0.39460650  0.72303112  0.78722875  1  -1.185201  0  -0.309607  -0.241512  0  3.363491  0
N  N167  1  0.60781943  0.21287819  0.93544614  1  -1.196926  0  -0.312049  -0.242968  0  3.363043  0
N  N168  1  0.32815589  0.93584401  0.72295611  1  -1.222329  0  -0.311363  -0.242293  0  3.361903  0
N  N169  1  0.60538910  0.27697441  0.21277435  1  -1.1853  0  -0.309684  -0.241601  0  3.363594  0
N  N170  1  0.39218335  0.78712173  0.06455337  1  -1.197013  0  -0.311994  -0.242825  0  3.363013  0
N  N171  1  0.69652995  0.10021553  0.57813796  1  -0.702047  0  -0.260163  -0.155191  0  3.62019  0
N  N172  1  0.11826485  0.42189397  0.52209602  1  -0.707684  0  -0.260675  -0.157838  0  3.62455  0
N  N173  1  0.59635129  0.47815817  0.89988842  1  -0.702394  0  -0.260515  -0.156236  0  3.619323  0
N  N174  1  0.30347312  0.89978720  0.42186344  1  -0.702106  0  -0.260217  -0.155227  0  3.619972  0
N  N175  1  0.88173635  0.57810946  0.47790729  1  -0.707627  0  -0.260728  -0.157802  0  3.624388  0
N  N176  1  0.40364852  0.52184245  0.10010991  1  -0.702304  0  -0.26055  -0.156325  0  3.619506  0
N  N177  1  0.78071974  0.15356135  0.66964144  1  -0.652102  0  -0.221768  -0.260184  0  3.172776  0
N  N178  1  0.11105047  0.33041884  0.48383977  1  -0.657031  0  -0.220295  -0.257331  0  3.172316  0
N  N179  1  0.62697353  0.51634812  0.84655056  1  -0.653559  0  -0.222676  -0.26136  0  3.17236  0
N  N180  1  0.21927270  0.84643787  0.33035911  1  -0.651977  0  -0.221667  -0.260104  0  3.172684  0
N  N181  1  0.88895185  0.66958458  0.51616128  1  -0.656368  0  -0.220246  -0.257353  0  3.172342  0
N  N182  1  0.37302564  0.48364900  0.15344434  1  -0.653713  0  -0.22269  -0.26133  0  3.172215  0
N  N183  1  0.89980535  0.20406911  0.58559141  1  -1.19628  0  -0.337019  -0.412451  0  3.213414  0
N  N184  1  0.31430405  0.41445137  0.61835325  1  -1.184724  0  -0.335673  -0.411148  0  3.21377  0
N  N185  1  0.69586933  0.38185793  0.79593349  1  -1.17465  0  -0.33544  -0.411285  0  3.214882  0
N  N186  1  0.10019089  0.79592660  0.41440735  1  -1.196329  0  -0.336889  -0.412314  0  3.213172  0
N  N187  1  0.68569377  0.58555415  0.38164948  1  -1.184691  0  -0.335601  -0.411149  0  3.213707  0
N  N188  1  0.30413573  0.61813988  0.20406412  1  -1.174746  0  -0.335418  -0.411242  0  3.215144  0
N  N189  1  0.29347764  0.42142832  0.90393054  1  -1.185125  0  -0.338981  -0.163856  0  3.623171  0
N  N190  1  0.38943569  0.09598948  0.51744665  1  -1.196995  0  -0.339672  -0.164096  0  3.624106  0
N  N191  1  0.87178378  0.48269381  0.57847685  1  -1.177964  0  -0.340799  -0.165144  0  3.626221  0
N  N192  1  0.70652380  0.57856669  0.09606723  1  -1.184721  0  -0.338995  -0.163873  0  3.622982  0
N  N193  1  0.61056703  0.90401254  0.48255380  1  -1.197078  0  -0.339646  -0.164067  0  3.624128  0
N  N194  1  0.12821492  0.51730681  0.42152137  1  -1.178157  0  -0.340784  -0.16509  0  3.626287  0
