# generated using pymatgen
data_ZnH16C22(NO2)2
_symmetry_space_group_name_H-M   'P 1'
_cell_length_a   10.00086547
_cell_length_b   10.26272795
_cell_length_c   10.26026432
_cell_angle_alpha   66.02031107
_cell_angle_beta   73.37915644
_cell_angle_gamma   82.19082993
_symmetry_Int_Tables_number   1
_chemical_formula_structural   ZnH16C22(NO2)2
_chemical_formula_sum   'Zn2 H32 C44 N4 O8'
_cell_volume   921.74985991
_cell_formula_units_Z   2
loop_
 _symmetry_equiv_pos_site_id
 _symmetry_equiv_pos_as_xyz
  1  'x, y, z'
loop_
 _atom_site_type_symbol
 _atom_site_label
 _atom_site_symmetry_multiplicity
 _atom_site_fract_x
 _atom_site_fract_y
 _atom_site_fract_z
 _atom_site_occupancy
 _atom_site_hle17_bader_spin_density
 _atom_site_hle17_ddec_charge
 _atom_site_hle17_ddec_spin_density
 _atom_site_hle17_ddec_sum_bond_order
 _atom_site_hle17_magmom
 _atom_site_hse06_10hf_bader_spin_density
 _atom_site_hse06_10hf_ddec_charge
 _atom_site_hse06_10hf_ddec_spin_density
 _atom_site_hse06_10hf_ddec_sum_bond_order
 _atom_site_hse06_10hf_magmom
 _atom_site_hse06_bader_spin_density
 _atom_site_hse06_ddec_charge
 _atom_site_hse06_ddec_spin_density
 _atom_site_hse06_ddec_sum_bond_order
 _atom_site_hse06_magmom
 _atom_site_pbe_bader_spin_density
 _atom_site_pbe_cm5_charge
 _atom_site_pbe_ddec_charge
 _atom_site_pbe_ddec_spin_density
 _atom_site_pbe_ddec_sum_bond_order
 _atom_site_pbe_magmom
Zn  Zn0  1  0.87524334  0.52269842  0.60805938  1  0  1.05515  0  1.837912  0  0  0.883693  0  2.306322  0  0  0.936778  0  2.240175  0  0  0.675188  0.84663  0  2.351799  0
Zn  Zn1  1  0.12475269  0.47730339  0.39193875  1  0  1.055098  0  1.838183  0  0  0.883708  0  2.306598  0  0  0.936782  0  2.24046  0  0  0.675069  0.846666  0  2.352084  0
H  H2  1  0.39234566  0.80883603  0.33315140  1  0  0.095702  0  0.953164  0  0  0.106802  0  1.014295  0  0  0.10991  0  1.012261  0  0  0.103176  0.104461  0  1.016028  0
H  H3  1  0.60764535  0.19115831  0.66685704  1  0  0.095743  0  0.95318  0  0  0.106785  0  1.014382  0  0  0.109895  0  1.012348  0  0  0.103174  0.10447  0  1.016081  0
H  H4  1  0.50299153  0.01512348  0.33028585  1  0  0.084596  0  0.977205  0  0  0.09523  0  1.039933  0  0  0.097355  0  1.040154  0  0  0.097567  0.09369  0  1.03987  0
H  H5  1  0.49700467  0.98487087  0.66971527  1  0  0.084535  0  0.977182  0  0  0.09517  0  1.039927  0  0  0.097297  0  1.040145  0  0  0.097552  0.09363  0  1.039865  0
H  H6  1  0.37004165  0.15332083  0.47764652  1  0  0.083839  0  0.965293  0  0  0.093787  0  1.029699  0  0  0.096156  0  1.02901  0  0  0.097596  0.091935  0  1.030573  0
H  H7  1  0.62996067  0.84667992  0.52235027  1  0  0.083862  0  0.96529  0  0  0.093814  0  1.029696  0  0  0.096174  0  1.029031  0  0  0.097603  0.091958  0  1.030565  0
H  H8  1  0.13021072  0.08837751  0.62794337  1  0  0.091512  0  0.9713  0  0  0.100706  0  1.033843  0  0  0.10302  0  1.033659  0  0  0.097791  0.098583  0  1.035077  0
H  H9  1  0.86979044  0.91162858  0.37205645  1  0  0.091541  0  0.971215  0  0  0.10071  0  1.033813  0  0  0.103035  0  1.033601  0  0  0.097794  0.098588  0  1.035039  0
H  H10  1  0.01980637  0.87950106  0.63286798  1  0  0.092026  0  0.96813  0  0  0.099649  0  1.035627  0  0  0.102659  0  1.033939  0  0  0.0996  0.097376  0  1.03707  0
H  H11  1  0.98019169  0.12050503  0.36714343  1  0  0.092067  0  0.968055  0  0  0.099671  0  1.035566  0  0  0.102683  0  1.033875  0  0  0.099653  0.097401  0  1.037016  0
H  H12  1  0.34641876  0.18781368  0.69935256  1  0  0.093755  0  0.96395  0  0  0.103346  0  1.02931  0  0  0.10668  0  1.026873  0  0  0.101019  0.100809  0  1.031316  0
H  H13  1  0.65358479  0.81217853  0.30064444  1  0  0.093781  0  0.963952  0  0  0.10337  0  1.029316  0  0  0.106704  0  1.02688  0  0  0.101045  0.100833  0  1.031318  0
H  H14  1  0.42721750  0.97606829  0.89582318  1  0  0.089804  0  0.976861  0  0  0.095905  0  1.045304  0  0  0.099044  0  1.044125  0  0  0.096921  0.093984  0  1.045633  0
H  H15  1  0.57278489  0.02392926  0.10417586  1  0  0.089839  0  0.976771  0  0  0.095917  0  1.04524  0  0  0.099057  0  1.044058  0  0  0.09691  0.093997  0  1.04557  0
H  H16  1  0.27314539  0.88030295  0.14869025  1  0  0.098521  0  0.960094  0  0  0.106936  0  1.023753  0  0  0.11023  0  1.021422  0  0  0.101628  0.104264  0  1.026067  0
H  H17  1  0.72685905  0.11969674  0.85131027  1  0  0.098497  0  0.960092  0  0  0.106884  0  1.023781  0  0  0.110177  0  1.021453  0  0  0.101592  0.104211  0  1.026086  0
H  H18  1  0.04613844  0.00118077  0.21135581  1  0  0.085367  0  0.978816  0  0  0.097722  0  1.038357  0  0  0.099761  0  1.038725  0  0  0.098443  0.095949  0  1.038939  0
H  H19  1  0.95386592  0.99882212  0.78864245  1  0  0.085337  0  0.978894  0  0  0.097681  0  1.03846  0  0  0.099725  0  1.038817  0  0  0.09844  0.095908  0  1.039039  0
H  H20  1  0.96547284  0.21013561  0.01538752  1  0  0.096202  0  0.957233  0  0  0.106391  0  1.018826  0  0  0.109863  0  1.016479  0  0  0.100864  0.103865  0  1.020488  0
H  H21  1  0.03453060  0.78986087  0.98460582  1  0  0.096207  0  0.95726  0  0  0.106379  0  1.018873  0  0  0.109852  0  1.016524  0  0  0.100847  0.10385  0  1.020542  0
H  H22  1  0.86628653  0.64529894  0.81797904  1  0  0.098663  0  0.92504  0  0  0.108135  0  0.984293  0  0  0.111414  0  0.980933  0  0  0.126829  0.106135  0  0.986107  0
H  H23  1  0.13371591  0.35469648  0.18201989  1  0  0.098631  0  0.925166  0  0  0.108128  0  0.98438  0  0  0.111405  0  0.981022  0  0  0.126821  0.106131  0  0.986198  0
H  H24  1  0.69351392  0.74841590  0.98572475  1  0  0.07655  0  0.985342  0  0  0.082198  0  1.052264  0  0  0.083044  0  1.054807  0  0  0.111122  0.08144  0  1.050809  0
H  H25  1  0.30648858  0.25157739  0.01427990  1  0  0.076472  0  0.985353  0  0  0.082132  0  1.052301  0  0  0.082976  0  1.054846  0  0  0.111117  0.081378  0  1.050839  0
H  H26  1  0.26247033  0.70346701  0.93567297  1  0  0.116512  0  0.93734  0  0  0.126802  0  0.997521  0  0  0.129982  0  0.99574  0  0  0.111962  0.124629  0  0.998538  0
H  H27  1  0.73753080  0.29654015  0.06432642  1  0  0.116551  0  0.937395  0  0  0.126811  0  0.997594  0  0  0.129987  0  0.995816  0  0  0.111995  0.124635  0  0.998599  0
H  H28  1  0.17602636  0.59669874  0.79428772  1  0  0.09893  0  0.935357  0  0  0.112215  0  0.988709  0  0  0.114524  0  0.988582  0  0  0.106962  0.110882  0  0.988325  0
H  H29  1  0.82397393  0.40330095  0.20572177  1  0  0.098913  0  0.935408  0  0  0.112195  0  0.988764  0  0  0.114503  0  0.988639  0  0  0.106962  0.110874  0  0.988375  0
H  H30  1  0.34367300  0.48468636  0.63774243  1  0  0.099938  0  0.957823  0  0  0.109932  0  1.018326  0  0  0.11204  0  1.018523  0  0  0.1043  0.108264  0  1.018339  0
H  H31  1  0.65632212  0.51531119  0.36226646  1  0  0.0999  0  0.957891  0  0  0.109876  0  1.018423  0  0  0.111996  0  1.018605  0  0  0.104265  0.108208  0  1.018431  0
H  H32  1  0.59885194  0.47829907  0.61736032  1  0  0.118888  0  0.972163  0  0  0.127923  0  1.034869  0  0  0.131495  0  1.032706  0  0  0.109061  0.125271  0  1.036477  0
H  H33  1  0.40114720  0.52170382  0.38263942  1  0  0.118932  0  0.972192  0  0  0.127968  0  1.034881  0  0  0.131543  0  1.032715  0  0  0.109086  0.125319  0  1.036496  0
C  C34  1  0.13108684  0.71203410  0.48291351  1  0  0.660199  0  3.881955  0  0  0.608364  0  4.170965  0  0  0.644146  0  4.163513  0  0  0.214035  0.583939  0  4.175312  0
C  C35  1  0.86888095  0.28797301  0.51711088  1  0  0.660495  0  3.881111  0  0  0.608656  0  4.170119  0  0  0.644436  0  4.16266  0  0  0.214275  0.584209  0  4.1745  0
C  C36  1  0.19920352  0.83299371  0.48278911  1  0  -0.083369  0  3.778721  0  0  -0.057177  0  4.006345  0  0  -0.066951  0  4.031258  0  0  -0.024023  -0.049921  0  3.988984  0
C  C37  1  0.80079466  0.16700597  0.51721513  1  0  -0.083363  0  3.778779  0  0  -0.057163  0  4.006379  0  0  -0.066934  0  4.031289  0  0  -0.024002  -0.049908  0  3.989038  0
C  C38  1  0.33573070  0.87065378  0.39749094  1  0  -0.075075  0  3.74811  0  0  -0.098901  0  3.993555  0  0  -0.098468  0  4.014895  0  0  -0.087076  -0.098928  0  3.978893  0
C  C39  1  0.66426233  0.12934376  0.60251952  1  0  -0.075135  0  3.74793  0  0  -0.098925  0  3.993408  0  0  -0.098495  0  4.014746  0  0  -0.087123  -0.098971  0  3.978734  0
C  C40  1  0.39693883  0.98542981  0.39593111  1  0  -0.087281  0  3.786091  0  0  -0.09785  0  4.033629  0  0  -0.101947  0  4.056743  0  0  -0.096809  -0.094499  0  4.017889  0
C  C41  1  0.60306256  0.01456668  0.60407255  1  0  -0.087154  0  3.786141  0  0  -0.097725  0  4.033676  0  0  -0.101821  0  4.056788  0  0  -0.09673  -0.09438  0  4.017939  0
C  C42  1  0.32246713  0.06317640  0.47923135  1  0  -0.050338  0  3.751647  0  0  -0.067305  0  4.001185  0  0  -0.066767  0  4.021648  0  0  -0.088659  -0.06779  0  3.988083  0
C  C43  1  0.67753003  0.93682222  0.52077361  1  0  -0.050405  0  3.751827  0  0  -0.067373  0  4.001366  0  0  -0.066834  0  4.021824  0  0  -0.08873  -0.067845  0  3.988241  0
C  C44  1  0.18702659  0.02553244  0.56508533  1  0  -0.070276  0  3.755582  0  0  -0.082576  0  4.0066  0  0  -0.086135  0  4.028344  0  0  -0.093675  -0.08136  0  3.993637  0
C  C45  1  0.81297671  0.97447152  0.43491767  1  0  -0.070416  0  3.755603  0  0  -0.082728  0  4.006679  0  0  -0.086286  0  4.028427  0  0  -0.093666  -0.081509  0  3.993707  0
C  C46  1  0.12576326  0.91031954  0.56757658  1  0  -0.073919  0  3.750828  0  0  -0.096263  0  3.994924  0  0  -0.095691  0  4.015661  0  0  -0.086798  -0.097087  0  3.981786  0
C  C47  1  0.87422759  0.08968227  0.43243471  1  0  -0.073881  0  3.751126  0  0  -0.096183  0  3.995203  0  0  -0.095615  0  4.015945  0  0  -0.086855  -0.097017  0  3.982085  0
C  C48  1  0.09650796  0.32672159  0.72503666  1  0  0.656752  0  3.885599  0  0  0.606542  0  4.175033  0  0  0.642157  0  4.167484  0  0  0.211302  0.582144  0  4.17973  0
C  C49  1  0.90347462  0.67327593  0.27497188  1  0  0.656456  0  3.885338  0  0  0.606182  0  4.17486  0  0  0.641798  0  4.167309  0  0  0.211185  0.581785  0  4.179568  0
C  C50  1  0.15085840  0.21076879  0.84552844  1  0  -0.086315  0  3.774236  0  0  -0.061015  0  4.005787  0  0  -0.070374  0  4.029815  0  0  -0.025178  -0.054638  0  3.989239  0
C  C51  1  0.84914820  0.78922664  0.15446541  1  0  -0.086157  0  3.774097  0  0  -0.060854  0  4.005661  0  0  -0.070217  0  4.029693  0  0  -0.025148  -0.054497  0  3.989143  0
C  C52  1  0.28198265  0.14593911  0.81230511  1  0  -0.078632  0  3.746253  0  0  -0.101917  0  3.9911  0  0  -0.100929  0  4.011262  0  0  -0.087356  -0.102024  0  3.977489  0
C  C53  1  0.71801872  0.85405737  0.18769271  1  0  -0.078594  0  3.746061  0  0  -0.101864  0  3.990878  0  0  -0.100873  0  4.011042  0  0  -0.087315  -0.101967  0  3.977269  0
C  C54  1  0.32669128  0.02864540  0.92127881  1  0  -0.083787  0  3.767424  0  0  -0.092282  0  4.014002  0  0  -0.095987  0  4.034664  0  0  -0.093621  -0.090131  0  3.999622  0
C  C55  1  0.67331321  0.97135108  0.07871715  1  0  -0.083859  0  3.767491  0  0  -0.092352  0  4.014091  0  0  -0.096053  0  4.034752  0  0  -0.093621  -0.090204  0  3.999709  0
C  C56  1  0.24078165  0.97503340  0.06462406  1  0  -0.047969  0  3.731962  0  0  -0.064862  0  3.98112  0  0  -0.064212  0  4.000399  0  0  -0.084086  -0.065382  0  3.968558  0
C  C57  1  0.75922072  0.02496522  0.93537456  1  0  -0.047986  0  3.731949  0  0  -0.064844  0  3.981114  0  0  -0.064194  0  4.00039  0  0  -0.084069  -0.065369  0  3.96854  0
C  C58  1  0.11236934  0.04233674  0.09942034  1  0  -0.079284  0  3.771607  0  0  -0.091294  0  4.021218  0  0  -0.095405  0  4.044188  0  0  -0.093501  -0.08853  0  4.006273  0
C  C59  1  0.88763721  0.95766081  0.90057363  1  0  -0.079246  0  3.771576  0  0  -0.091254  0  4.021184  0  0  -0.095365  0  4.044156  0  0  -0.09351  -0.088493  0  4.006233  0
C  C60  1  0.06727540  0.15951101  0.99081083  1  0  -0.073222  0  3.74657  0  0  -0.095637  0  3.990504  0  0  -0.094991  0  4.01096  0  0  -0.08603  -0.095497  0  3.976007  0
C  C61  1  0.93272593  0.84048653  0.00918364  1  0  -0.073277  0  3.746576  0  0  -0.095668  0  3.990483  0  0  -0.095022  0  4.01094  0  0  -0.086038  -0.095515  0  3.975988  0
C  C62  1  0.75458853  0.64540076  0.82896781  1  0  0.109825  0  3.643293  0  0  0.077246  0  3.894998  0  0  0.084605  0  3.908763  0  0  0.069977  0.07253  0  3.884949  0
C  C63  1  0.24541388  0.35459573  0.17103069  1  0  0.109777  0  3.643294  0  0  0.077192  0  3.894987  0  0  0.084555  0  3.908749  0  0  0.069978  0.072482  0  3.884947  0
C  C64  1  0.65704539  0.70470382  0.92159235  1  0  0.074764  0  3.718734  0  0  0.052745  0  3.980302  0  0  0.0544  0  3.997303  0  0  0.058723  0.051516  0  3.968953  0
C  C65  1  0.34295905  0.29529587  0.07840817  1  0  0.074974  0  3.718701  0  0  0.052906  0  3.980315  0  0  0.054566  0  3.997314  0  0  0.058769  0.051676  0  3.968961  0
C  C66  1  0.47796113  0.65358993  0.85378364  1  0  0.145422  0  3.788311  0  0  0.151065  0  4.029543  0  0  0.15227  0  4.052732  0  0  0.113252  0.149735  0  4.01447  0
C  C67  1  0.52204099  0.34641936  0.14621071  1  0  0.145541  0  3.788182  0  0  0.151225  0  4.029393  0  0  0.152431  0  4.05258  0  0  0.113277  0.149898  0  4.014306  0
C  C68  1  0.33346969  0.65556651  0.86389806  1  0  -0.128849  0  3.705315  0  0  -0.150242  0  3.954033  0  0  -0.153749  0  3.976214  0  0  -0.080292  -0.147779  0  3.9392  0
C  C69  1  0.66653247  0.34444172  0.13610061  1  0  -0.12898  0  3.705654  0  0  -0.15035  0  3.954377  0  0  -0.153856  0  3.976557  0  0  -0.080364  -0.147875  0  3.939521  0
C  C70  1  0.28714992  0.59601747  0.78643536  1  0  -0.049079  0  3.749833  0  0  -0.065266  0  4.003314  0  0  -0.068532  0  4.027992  0  0  -0.079482  -0.063098  0  3.986407  0
C  C71  1  0.71284924  0.40398542  0.21356828  1  0  -0.049155  0  3.750125  0  0  -0.065349  0  4.003595  0  0  -0.068612  0  4.028274  0  0  -0.079499  -0.06319  0  3.986687  0
C  C72  1  0.38298451  0.53248778  0.69659165  1  0  -0.039844  0  3.723376  0  0  -0.056184  0  3.976796  0  0  -0.058504  0  4.001408  0  0  -0.078811  -0.054335  0  3.959878  0
C  C73  1  0.61701671  0.46751618  0.30341194  1  0  -0.039683  0  3.723343  0  0  -0.05599  0  3.976717  0  0  -0.058324  0  4.001328  0  0  -0.078721  -0.05413  0  3.959791  0
C  C74  1  0.52442879  0.52937844  0.68375864  1  0  -0.138358  0  3.691986  0  0  -0.158743  0  3.941111  0  0  -0.163204  0  3.961677  0  0  -0.083694  -0.155514  0  3.927049  0
C  C75  1  0.47556923  0.47062764  0.31623816  1  0  -0.13851  0  3.692048  0  0  -0.158874  0  3.941175  0  0  -0.163336  0  3.961746  0  0  -0.083783  -0.155648  0  3.927123  0
C  C76  1  0.57470558  0.59025120  0.76141983  1  0  0.16929  0  3.747795  0  0  0.166086  0  3.984527  0  0  0.170056  0  4.007847  0  0  0.115938  0.16333  0  3.968984  0
C  C77  1  0.42529549  0.40975808  0.23857384  1  0  0.169358  0  3.747832  0  0  0.166072  0  3.984639  0  0  0.170036  0  4.007965  0  0  0.11599  0.163316  0  3.969108  0
N  N78  1  0.71495140  0.58987657  0.75003514  1  0  -0.308105  0  3.217608  0  0  -0.234294  0  3.487255  0  0  -0.251464  0  3.50044  0  0  -0.300921  -0.222362  0  3.477807  0
N  N79  1  0.28505183  0.41012952  0.24996020  1  0  -0.308021  0  3.217414  0  0  -0.234192  0  3.487082  0  0  -0.251356  0  3.500267  0  0  -0.300875  -0.222269  0  3.477651  0
N  N80  1  0.52164736  0.71050771  0.93344423  1  0  -0.276202  0  3.024141  0  0  -0.250004  0  3.288777  0  0  -0.255712  0  3.302808  0  0  -0.289466  -0.245692  0  3.279199  0
N  N81  1  0.47835488  0.28949625  0.06655128  1  0  -0.276398  0  3.023956  0  0  -0.250195  0  3.288607  0  0  -0.255907  0  3.302632  0  0  -0.289565  -0.245871  0  3.27901  0
O  O82  1  0.01005072  0.67827177  0.56923855  1  0  -0.648013  0  2.111667  0  0  -0.582212  0  2.382403  0  0  -0.611601  0  2.370163  0  0  -0.313572  -0.561467  0  2.389824  0
O  O83  1  0.98995883  0.32173220  0.43075976  1  0  -0.64847  0  2.110164  0  0  -0.582709  0  2.38096  0  0  -0.612108  0  2.368717  0  0  -0.313864  -0.561953  0  2.388396  0
O  O84  1  0.19895190  0.65188464  0.39555917  1  0  -0.634866  0  2.084137  0  0  -0.564754  0  2.346128  0  0  -0.593609  0  2.332414  0  0  -0.312625  -0.544526  0  2.355423  0
O  O85  1  0.80104193  0.34812036  0.60442562  1  0  -0.634693  0  2.08509  0  0  -0.564535  0  2.347063  0  0  -0.593381  0  2.333341  0  0  -0.312554  -0.544302  0  2.356361  0
O  O86  1  0.97885061  0.38460335  0.76232017  1  0  -0.629914  0  2.050252  0  0  -0.566343  0  2.308056  0  0  -0.594741  0  2.295113  0  0  -0.318643  -0.546492  0  2.315971  0
O  O87  1  0.02115737  0.61537607  0.23766714  1  0  -0.630011  0  2.049187  0  0  -0.56642  0  2.306997  0  0  -0.594824  0  2.294051  0  0  -0.318732  -0.546564  0  2.314919  0
O  O88  1  0.17150236  0.35603908  0.59301848  1  0  -0.649477  0  2.069196  0  0  -0.584264  0  2.339862  0  0  -0.612584  0  2.32581  0  0  -0.318872  -0.5643  0  2.349346  0
O  O89  1  0.82851040  0.64395955  0.40696454  1  0  -0.649146  0  2.069812  0  0  -0.583916  0  2.340538  0  0  -0.612233  0  2.326483  0  0  -0.318699  -0.563952  0  2.350017  0
