# generated using pymatgen
data_AlH9C18O5F
_symmetry_space_group_name_H-M   'P 1'
_cell_length_a   6.68712235
_cell_length_b   21.72278428
_cell_length_c   25.29977573
_cell_angle_alpha   95.86587684
_cell_angle_beta   89.99185472
_cell_angle_gamma   89.99015659
_symmetry_Int_Tables_number   1
_chemical_formula_structural   AlH9C18O5F
_chemical_formula_sum   'Al4 H36 C72 O20 F4'
_cell_volume   3655.87566509
_cell_formula_units_Z   4
loop_
 _symmetry_equiv_pos_site_id
 _symmetry_equiv_pos_as_xyz
  1  'x, y, z'
loop_
 _atom_site_type_symbol
 _atom_site_label
 _atom_site_symmetry_multiplicity
 _atom_site_fract_x
 _atom_site_fract_y
 _atom_site_fract_z
 _atom_site_occupancy
 _atom_site_pbe_bader_charge
 _atom_site_pbe_bader_spin_density
 _atom_site_pbe_cm5_charge
 _atom_site_pbe_ddec_charge
 _atom_site_pbe_ddec_spin_density
 _atom_site_pbe_ddec_sum_bond_order
 _atom_site_pbe_magmom
Al  Al0  1  0.19454588  0.74942572  0.74954411  1  2.501021  0  0.399338  1.641895  0  2.581525  0
Al  Al1  1  0.80546088  0.25057604  0.25045704  1  2.501067  0  0.39933  1.641769  0  2.58164  0
Al  Al2  1  0.69454526  0.75061564  0.75046471  1  2.500672  0  0.399155  1.641296  0  2.582394  0
Al  Al3  1  0.30546000  0.24938575  0.24953723  1  2.500851  0  0.399169  1.641312  0  2.582397  0
H  H4  1  0.15558452  0.61832304  0.41792537  1  0.048604  0  0.102907  0.102947  0  0.994355  0
H  H5  1  0.84443570  0.38167966  0.58207220  1  0.048646  0  0.102869  0.102908  0  0.994393  0
H  H6  1  0.65721615  0.88172530  0.08194768  1  0.052844  0  0.102731  0.103286  0  0.994778  0
H  H7  1  0.34275472  0.11828222  0.91804789  1  0.052837  0  0.102784  0.103264  0  0.994444  0
H  H8  1  0.04495043  0.63127893  0.58952612  1  0.059228  0  0.104198  0.104625  0  1.015085  0
H  H9  1  0.95505632  0.36872404  0.41046986  1  0.059252  0  0.104208  0.104617  0  1.015106  0
H  H10  1  0.54559824  0.86882003  0.91038732  1  0.060203  0  0.104231  0.104645  0  1.015904  0
H  H11  1  0.45439805  0.13118848  0.08961262  1  0.059976  0  0.104214  0.104662  0  1.015731  0
H  H12  1  0.81626816  0.54516680  0.72255213  1  0.061266  0  0.108496  0.111789  0  0.985229  0
H  H13  1  0.18373710  0.45483401  0.27744504  1  0.061133  0  0.108469  0.111781  0  0.985332  0
H  H14  1  0.31487029  0.95480483  0.77754370  1  0.06202  0  0.10858  0.111284  0  0.985871  0
H  H15  1  0.68509909  0.04519484  0.22245546  1  0.062241  0  0.108576  0.111332  0  0.985819  0
H  H16  1  0.19773338  0.55630961  0.33279824  1  0.053308  0  0.104236  0.103  0  0.992587  0
H  H17  1  0.80227039  0.44368914  0.66720092  1  0.05347  0  0.10424  0.103001  0  0.992538  0
H  H18  1  0.69945486  0.94371636  0.16708290  1  0.058335  0  0.104637  0.103414  0  0.993029  0
H  H19  1  0.30049507  0.05628230  0.83291547  1  0.058839  0  0.104561  0.10328  0  0.993226  0
H  H20  1  0.07938033  0.62681360  0.51279198  1  0.043458  0  0.101536  0.101275  0  1.014735  0
H  H21  1  0.92062942  0.37318573  0.48720440  1  0.043512  0  0.101617  0.101391  0  1.014459  0
H  H22  1  0.58056442  0.87324262  0.98711729  1  0.0432  0  0.10142  0.100848  0  1.015207  0
H  H23  1  0.41941842  0.12676071  0.01287789  1  0.043492  0  0.101406  0.100907  0  1.015224  0
H  H24  1  0.65633786  0.92916194  0.55030917  1  0.104463  0  0.106028  0.116513  0  1.008247  0
H  H25  1  0.34365245  0.07083345  0.44969636  1  0.103992  0  0.106024  0.116548  0  1.008311  0
H  H26  1  0.15631981  0.57085168  0.94967515  1  0.104633  0  0.105982  0.116554  0  1.007859  0
H  H27  1  0.84367798  0.42914695  0.05032680  1  0.104443  0  0.105996  0.116597  0  1.007961  0
H  H28  1  0.63606778  0.85888816  0.62257387  1  0.098215  0  0.109393  0.117265  0  1.002364  0
H  H29  1  0.36394347  0.14110723  0.37743166  1  0.09798  0  0.109463  0.117347  0  1.002231  0
H  H30  1  0.13617340  0.64113396  0.87742067  1  0.097492  0  0.109433  0.117382  0  1.002375  0
H  H31  1  0.86381840  0.35886549  0.12258048  1  0.097348  0  0.109436  0.117373  0  1.002437  0
H  H32  1  0.27011303  0.87872458  0.64881805  1  0.125079  0  0.119683  0.149401  0  0.987451  0
H  H33  1  0.72990569  0.12127509  0.35118111  1  0.125023  0  0.119692  0.149414  0  0.98751  0
H  H34  1  0.77025695  0.62125458  0.85118403  1  0.125073  0  0.119648  0.149384  0  0.987174  0
H  H35  1  0.22974832  0.37874480  0.14882030  1  0.124992  0  0.119638  0.149402  0  0.987227  0
H  H36  1  0.44757516  0.71288642  0.68623207  1  0.635074  0  0.354673  0.432539  0  0.849827  0
H  H37  1  0.55244207  0.28711323  0.31377067  1  0.635001  0  0.354674  0.432457  0  0.849907  0
H  H38  1  0.94739129  0.78710433  0.81380173  1  0.634208  0  0.354625  0.432305  0  0.850272  0
H  H39  1  0.05261996  0.21289716  0.18620101  1  0.634282  0  0.354623  0.432305  0  0.850225  0
C  C40  1  0.44472141  0.67985659  0.81874593  1  1.571349  0  0.26371  0.632843  0  4.109117  0
C  C41  1  0.55527488  0.32014177  0.18125761  1  1.570984  0  0.263727  0.632788  0  4.109023  0
C  C42  1  0.94463125  0.82016608  0.68125377  1  1.570038  0  0.263225  0.63236  0  4.109239  0
C  C43  1  0.05539644  0.17983195  0.31874699  1  1.570442  0  0.263382  0.632485  0  4.109057  0
C  C44  1  0.44282883  0.84584189  0.80793276  1  1.577077  0  0.276953  0.661877  0  4.073764  0
C  C45  1  0.55718091  0.15415880  0.19206719  1  1.576223  0  0.277116  0.662311  0  4.073838  0
C  C46  1  0.94307840  0.65419951  0.69206102  1  1.579752  0  0.27703  0.662154  0  4.07467  0
C  C47  1  0.05694481  0.34580215  0.30793933  1  1.579754  0  0.276881  0.661928  0  4.074901  0
C  C48  1  0.06560246  0.40637690  0.34160200  1  -0.085239  0  -0.013124  -0.0294  0  4.005779  0
C  C49  1  0.93439832  0.59362452  0.65839636  1  -0.085372  0  -0.01312  -0.029471  0  4.005553  0
C  C50  1  0.56592836  0.09358106  0.15839571  1  -0.088745  0  -0.013235  -0.030089  0  4.006092  0
C  C51  1  0.43408438  0.90642307  0.84160225  1  -0.088288  0  -0.013139  -0.029921  0  4.00595  0
C  C52  1  0.14753093  0.51486983  0.34993122  1  -0.008512  0  -0.086443  -0.125156  0  4.00284  0
C  C53  1  0.85246985  0.48512996  0.65006516  1  -0.008562  0  -0.086574  -0.125345  0  4.003014  0
C  C54  1  0.64879180  0.98513346  0.14997576  1  -0.019046  0  -0.087179  -0.126037  0  4.002884  0
C  C55  1  0.35115962  0.01486893  0.85002300  1  -0.018989  0  -0.087186  -0.126064  0  4.002905  0
C  C56  1  0.13827054  0.45888454  0.31904723  1  -0.01962  0  -0.086573  -0.105912  0  4.007261  0
C  C57  1  0.86173024  0.54111520  0.68094875  1  -0.019322  0  -0.08655  -0.105803  0  4.007149  0
C  C58  1  0.63929171  0.04110389  0.18088326  1  -0.01437  0  -0.086537  -0.105013  0  4.006922  0
C  C59  1  0.36068813  0.95889748  0.81911471  1  -0.014235  0  -0.086521  -0.104884  0  4.006851  0
C  C60  1  0.01070813  0.41023345  0.39462076  1  0.073045  0  -0.084985  -0.152287  0  3.955352  0
C  C61  1  0.98929414  0.58976869  0.60537601  1  0.07318  0  -0.084935  -0.152164  0  3.955209  0
C  C62  1  0.51064524  0.08971465  0.10541492  1  0.074916  0  -0.08496  -0.152698  0  3.95545  0
C  C63  1  0.48936152  0.91029413  0.89458343  1  0.07454  0  -0.084974  -0.152676  0  3.955838  0
C  C64  1  0.03094435  0.46619704  0.42805373  1  -0.078475  0  -0.000242  0.040778  0  3.94752  0
C  C65  1  0.96907138  0.53380239  0.57194345  1  -0.07854  0  -0.000327  0.040625  0  3.947837  0
C  C66  1  0.53113357  0.03377999  0.07195416  1  -0.076708  0  -0.000465  0.042356  0  3.944954  0
C  C67  1  0.46886421  0.96622717  0.92804220  1  -0.077088  0  -0.000346  0.042442  0  3.944928  0
C  C68  1  0.09619364  0.51982082  0.40448040  1  0.01493  0  -0.008029  0.072236  0  4.026452  0
C  C69  1  0.90381162  0.48018242  0.59551398  1  0.015239  0  -0.008004  0.072307  0  4.026635  0
C  C70  1  0.59706083  0.98019369  0.09545795  1  0.01185  0  -0.007676  0.072018  0  4.026214  0
C  C71  1  0.40290256  0.01981008  0.90454080  1  0.01144  0  -0.007817  0.071799  0  4.026063  0
C  C72  1  0.98997556  0.47096374  0.48455249  1  0.013308  0  -0.002707  0.032247  0  3.955908  0
C  C73  1  0.01004316  0.52903319  0.51544310  1  -0.058153  0  -0.002776  0.032032  0  3.955891  0
C  C74  1  0.48986334  0.02903246  0.01546431  1  0.01306  0  -0.00262  0.031684  0  3.953558  0
C  C75  1  0.51013295  0.97097240  0.98453206  1  -0.058337  0  -0.002659  0.031666  0  3.953803  0
C  C76  1  0.06821528  0.58179378  0.48976621  1  -0.038863  0  -0.092834  -0.12971  0  4.032318  0
C  C77  1  0.93179746  0.41820705  0.51022738  1  -0.039332  0  -0.093072  -0.129943  0  4.032189  0
C  C78  1  0.56903154  0.91823340  0.01016727  1  -0.039301  0  -0.092675  -0.129234  0  4.031975  0
C  C79  1  0.43094979  0.08177175  0.98983148  1  -0.039866  0  -0.092821  -0.129565  0  4.03188  0
C  C80  1  0.11026864  0.57741320  0.43662218  1  -0.001322  0  -0.091735  -0.133376  0  4.033993  0
C  C81  1  0.88974410  0.42258819  0.56337221  1  -0.001252  0  -0.091606  -0.133281  0  4.033703  0
C  C82  1  0.61129098  0.92261202  0.06330188  1  -0.002635  0  -0.091593  -0.133806  0  4.034687  0
C  C83  1  0.38866643  0.07739129  0.93669688  1  -0.002883  0  -0.091471  -0.133422  0  4.034356  0
C  C84  1  0.78949500  0.91810152  0.57218742  1  -0.003054  0  -0.077605  -0.102006  0  3.941715  0
C  C85  1  0.21050577  0.08189587  0.42781572  1  -0.002795  0  -0.077538  -0.10201  0  3.941799  0
C  C86  1  0.28952388  0.58190488  0.92780640  1  -0.003081  0  -0.07756  -0.102254  0  3.941905  0
C  C87  1  0.71047391  0.41809291  0.07219236  1  -0.002693  0  -0.077577  -0.102294  0  3.941785  0
C  C88  1  0.77809492  0.87915486  0.61233992  1  -0.021992  0  -0.084187  -0.107077  0  3.991819  0
C  C89  1  0.22191035  0.12084157  0.38766283  1  -0.021988  0  -0.084255  -0.10716  0  3.99153  0
C  C90  1  0.27818025  0.62085059  0.88765532  1  -0.020615  0  -0.08426  -0.10698  0  3.99244  0
C  C91  1  0.72181006  0.37914657  0.11234584  1  -0.020704  0  -0.084307  -0.107029  0  3.992442  0
C  C92  1  0.95092805  0.86440427  0.63981581  1  0.039776  0  -0.010451  -0.011489  0  3.978436  0
C  C93  1  0.04907721  0.13559482  0.36018614  1  0.04005  0  -0.010456  -0.011487  0  3.978263  0
C  C94  1  0.45103542  0.63561052  0.86017920  1  0.039873  0  -0.010409  -0.011612  0  3.978872  0
C  C95  1  0.54896536  0.36438922  0.13982434  1  0.040467  0  -0.010423  -0.011544  0  3.978831  0
C  C96  1  0.13561431  0.89009452  0.62758977  1  -0.022795  0  -0.092464  -0.226637  0  3.987979  0
C  C97  1  0.86439395  0.10990554  0.37241257  1  -0.02263  0  -0.092502  -0.226605  0  3.98809  0
C  C98  1  0.63570122  0.60989876  0.87240963  1  -0.024154  0  -0.092559  -0.226701  0  3.9878  0
C  C99  1  0.36429208  0.39009628  0.12759312  1  -0.023596  0  -0.092511  -0.22675  0  3.987744  0
C  C100  1  0.14316644  0.92952622  0.58820456  1  0.427448  0  0.105633  0.246237  0  4.032563  0
C  C101  1  0.85683433  0.07047379  0.41179738  1  0.427517  0  0.105606  0.246197  0  4.032533  0
C  C102  1  0.64321834  0.57046847  0.91179522  1  0.428076  0  0.105336  0.245763  0  4.032748  0
C  C103  1  0.35677645  0.42952754  0.08820793  1  0.427411  0  0.105359  0.245944  0  4.032513  0
C  C104  1  0.97387146  0.94434267  0.55884847  1  0.120039  0  -0.004099  0.035886  0  4.128636  0
C  C105  1  0.02612932  0.05565514  0.44115427  1  0.120024  0  -0.004164  0.035804  0  4.128786  0
C  C106  1  0.47388003  0.55565334  0.94114772  1  0.120336  0  -0.004075  0.036001  0  4.128187  0
C  C107  1  0.52610878  0.44434488  0.05885463  1  0.12082  0  -0.004  0.036005  0  4.12788  0
C  C108  1  0.99103202  0.98334334  0.51786861  1  -0.320382  0  -0.038357  -0.080101  0  4.120034  0
C  C109  1  0.00896278  0.01665253  0.48213334  1  0.006771  0  -0.038114  -0.079804  0  4.119949  0
C  C110  1  0.49102271  0.51665037  0.98213262  1  -0.320288  0  -0.038211  -0.07984  0  4.120003  0
C  C111  1  0.50895563  0.48335578  0.01787050  1  0.006664  0  -0.038184  -0.07994  0  4.119741  0
O  O112  1  0.61357498  0.82214777  0.79671087  1  -1.264946  0  -0.232269  -0.589354  0  2.306872  0
O  O113  1  0.38644972  0.17785198  0.20329267  1  -1.265071  0  -0.232358  -0.589457  0  2.307181  0
O  O114  1  0.11383825  0.67777397  0.70338129  1  -1.265593  0  -0.232494  -0.589807  0  2.307422  0
O  O115  1  0.88616701  0.32222929  0.29661707  1  -1.265309  0  -0.232397  -0.589669  0  2.307136  0
O  O116  1  0.27357676  0.69670180  0.80330243  1  -1.251218  0  -0.238181  -0.59246  0  2.328265  0
O  O117  1  0.72643747  0.30329516  0.19669713  1  -1.251291  0  -0.238181  -0.592434  0  2.328231  0
O  O118  1  0.77345223  0.80343593  0.69677861  1  -1.250509  0  -0.238015  -0.592136  0  2.327929  0
O  O119  1  0.22655453  0.19656466  0.30322055  1  -1.250732  0  -0.238077  -0.592152  0  2.328294  0
O  O120  1  0.27503386  0.82263747  0.79295550  1  -1.257492  0  -0.230093  -0.590701  0  2.329509  0
O  O121  1  0.72497588  0.17736026  0.20705042  1  -1.25672  0  -0.2302  -0.590986  0  2.329472  0
O  O122  1  0.77528357  0.67751704  0.70694695  1  -1.259605  0  -0.229932  -0.590718  0  2.329623  0
O  O123  1  0.22471721  0.32248328  0.29305380  1  -1.259835  0  -0.229876  -0.590598  0  2.329835  0
O  O124  1  0.11359621  0.80196199  0.69687327  1  -1.248203  0  -0.237169  -0.59331  0  2.370602  0
O  O125  1  0.88641205  0.19803766  0.30312947  1  -1.248427  0  -0.237232  -0.593396  0  2.370278  0
O  O126  1  0.61372733  0.69795911  0.80305514  1  -1.249142  0  -0.237696  -0.593579  0  2.370475  0
O  O127  1  0.38626896  0.30204391  0.19694878  1  -1.249332  0  -0.237686  -0.59356  0  2.370449  0
O  O128  1  0.44527436  0.74260549  0.71757586  1  -1.436182  0  -0.448707  -0.989313  0  2.182007  0
O  O129  1  0.55473090  0.25739258  0.28242529  1  -1.43614  0  -0.448722  -0.989225  0  2.182207  0
O  O130  1  0.94522379  0.75742460  0.78243214  1  -1.43547  0  -0.448577  -0.989072  0  2.182617  0
O  O131  1  0.05478446  0.24257771  0.21756980  1  -1.435518  0  -0.448568  -0.989017  0  2.182576  0
F  F132  1  0.32201266  0.95510554  0.57667642  1  -0.635526  0  -0.096006  -0.144238  0  1.360386  0
F  F133  1  0.67798064  0.04489418  0.42332314  1  -0.635505  0  -0.096019  -0.144284  0  1.36028  0
F  F134  1  0.82205513  0.54488116  0.92333119  1  -0.635808  0  -0.095823  -0.143995  0  1.360725  0
F  F135  1  0.17793667  0.45511583  0.07667235  1  -0.635786  0  -0.095829  -0.144047  0  1.360614  0
