# generated using pymatgen
data_CuH16C22(NO3)2
_symmetry_space_group_name_H-M   'P 1'
_cell_length_a   8.20231777
_cell_length_b   8.20231794
_cell_length_c   15.14158387
_cell_angle_alpha   76.35642849
_cell_angle_beta   76.35632717
_cell_angle_gamma   74.62470884
_symmetry_Int_Tables_number   1
_chemical_formula_structural   CuH16C22(NO3)2
_chemical_formula_sum   'Cu2 H32 C44 N4 O12'
_cell_volume   938.04397117
_cell_formula_units_Z   2
loop_
 _symmetry_equiv_pos_site_id
 _symmetry_equiv_pos_as_xyz
  1  'x, y, z'
loop_
 _atom_site_type_symbol
 _atom_site_label
 _atom_site_symmetry_multiplicity
 _atom_site_fract_x
 _atom_site_fract_y
 _atom_site_fract_z
 _atom_site_occupancy
 _atom_site_hle17_ddec_charge
 _atom_site_hle17_ddec_spin_density
 _atom_site_hle17_ddec_sum_bond_order
 _atom_site_hle17_magmom
 _atom_site_hse06_10hf_ddec_charge
 _atom_site_hse06_10hf_ddec_spin_density
 _atom_site_hse06_10hf_ddec_sum_bond_order
 _atom_site_hse06_10hf_magmom
 _atom_site_hse06_ddec_charge
 _atom_site_hse06_ddec_spin_density
 _atom_site_hse06_ddec_sum_bond_order
 _atom_site_hse06_magmom
 _atom_site_pbe_cm5_charge
 _atom_site_pbe_ddec_charge
 _atom_site_pbe_ddec_spin_density
 _atom_site_pbe_ddec_sum_bond_order
 _atom_site_pbe_magmom
Cu  Cu0  1  0.06779065  0.93220712  0.24999991  1  0.816865  0.675924  1.821252  0.495  0.794818  0.772399  2.215082  0.616  0.888136  0.837632  2.142878  0.701  0.739708  0.736836  0.727158  2.267844  0.562
Cu  Cu1  1  0.93221191  0.06779145  0.74999957  1  0.816857  0.675925  1.821265  0.495  0.79486  0.772424  2.215146  0.616  0.888138  0.837642  2.142916  0.701  0.739716  0.73682  0.727166  2.267898  0.562
H  H2  1  0.83719737  0.79053214  0.16190946  1  0.088427  0.000998  0.945601  0.002  0.096125  0.000965  1.009975  0.002  0.098135  0.000681  1.008679  0.001  0.121104  0.09449  0.001197  1.011063  0.002
H  H3  1  0.20946409  0.16280492  0.33808958  1  0.088456  0.000997  0.945613  0.002  0.096152  0.000965  1.009994  0.002  0.098162  0.00068  1.008698  0.001  0.121127  0.094519  0.001196  1.011082  0.002
H  H4  1  0.16280807  0.20947032  0.83808920  1  0.088434  0.000999  0.945578  0.002  0.096163  0.000965  1.009931  0.002  0.098173  0.000681  1.008635  0.001  0.121105  0.09453  0.001197  1.011025  0.002
H  H5  1  0.79053343  0.83719358  0.66191317  1  0.088406  0.000997  0.945598  0.002  0.096105  0.000964  1.009974  0.002  0.098115  0.00068  1.008679  0.001  0.121109  0.094471  0.001196  1.011058  0.002
H  H6  1  0.25691046  0.66904349  0.52721926  1  0.075408  0.000523  0.975044  0.001  0.082335  0.000279  1.045354  0.0  0.082206  0.000132  1.046913  0.0  0.10203  0.082615  0.000437  1.044203  0.001
H  H7  1  0.33095567  0.74308922  0.97278078  1  0.075412  0.000522  0.975057  0.001  0.08231  0.000279  1.045371  0.0  0.082183  0.000132  1.046932  0.0  0.102029  0.082593  0.000437  1.044223  0.001
H  H8  1  0.74308619  0.33095888  0.47278180  1  0.075411  0.000522  0.975092  0.001  0.082323  0.000279  1.045386  0.0  0.082201  0.000132  1.046948  0.0  0.102025  0.082602  0.000437  1.044242  0.001
H  H9  1  0.66903975  0.25691316  0.02721911  1  0.075442  0.000523  0.975078  0.001  0.082373  0.000279  1.04535  0.0  0.082248  0.000132  1.046914  0.0  0.102038  0.082656  0.000437  1.044207  0.001
H  H10  1  0.35955122  0.52356187  0.45117364  1  0.103593  -3.3e-05  0.922687  0.0  0.114772  2.9e-05  0.982231  0.0  0.116293  -2.1e-05  0.98127  0.0  0.117003  0.113742  8.3e-05  0.982961  0.0
H  H11  1  0.47643746  0.64045033  0.04882653  1  0.103616  -3.4e-05  0.922663  0.0  0.114781  2.9e-05  0.982199  0.0  0.116305  -2.1e-05  0.981239  0.0  0.117007  0.113752  8.3e-05  0.982929  0.0
H  H12  1  0.64045044  0.47644054  0.54882680  1  0.103603  -3.3e-05  0.922692  0.0  0.114771  2.9e-05  0.98223  0.0  0.116299  -2.1e-05  0.981274  0.0  0.116997  0.113742  8.2e-05  0.98296  0.0
H  H13  1  0.52355952  0.35955080  0.95117201  1  0.103608  -3.5e-05  0.922692  0.0  0.114752  2.9e-05  0.982257  0.0  0.11629  -2.1e-05  0.981288  0.0  0.116998  0.113721  8.3e-05  0.982992  0.0
H  H14  1  0.20977871  0.95186389  0.50709445  1  0.106605  -0.000119  0.956214  0.0  0.118358  -6.5e-05  1.014568  0.0  0.12107  -5.7e-05  1.013511  0.0  0.102274  0.116429  -7.1e-05  1.015374  0.0
H  H15  1  0.04813734  0.79022220  0.99290534  1  0.106624  -0.000121  0.956174  0.0  0.118378  -6.5e-05  1.014531  0.0  0.121089  -5.7e-05  1.013473  0.0  0.102275  0.116449  -7.1e-05  1.015339  0.0
H  H16  1  0.79022513  0.04813980  0.49290755  1  0.106587  -0.000121  0.956153  0.0  0.11834  -6.5e-05  1.014515  0.0  0.121052  -5.7e-05  1.013458  0.0  0.10226  0.116409  -7.1e-05  1.015323  0.0
H  H17  1  0.95186561  0.20977518  0.00708830  1  0.106575  -0.000122  0.9562  0.0  0.118331  -6.5e-05  1.014557  0.0  0.121041  -5.7e-05  1.0135  0.0  0.10225  0.116401  -7e-05  1.01537  0.0
H  H18  1  0.76566763  0.79554744  0.44285608  1  0.12495  -4e-05  0.966285  0.0  0.133078  3.2e-05  1.032521  0.0  0.136758  1.6e-05  1.029767  0.0  0.103274  0.130373  4.8e-05  1.034613  0.0
H  H19  1  0.20445547  0.23433265  0.05714044  1  0.124991  -4.1e-05  0.966286  0.0  0.133108  3.2e-05  1.032527  0.0  0.136788  1.6e-05  1.029777  0.0  0.103292  0.130406  4.8e-05  1.034621  0.0
H  H20  1  0.23433525  0.20445494  0.55714686  1  0.124967  -4.1e-05  0.966351  0.0  0.133123  3.2e-05  1.032545  0.0  0.136801  1.6e-05  1.029793  0.0  0.103288  0.13042  4.7e-05  1.034638  0.0
H  H21  1  0.79554718  0.76566601  0.94285308  1  0.124937  -4.2e-05  0.9663  0.0  0.133093  3.2e-05  1.032501  0.0  0.136774  1.6e-05  1.029746  0.0  0.103279  0.13039  4.8e-05  1.034593  0.0
H  H22  1  0.53240853  0.90553148  0.13169308  1  0.121454  0.000476  0.950313  0.001  0.133324  0.000455  1.003642  0.001  0.136778  0.000345  1.002525  0.0  0.11379  0.130715  0.000544  1.004775  0.001
H  H23  1  0.09446575  0.46759403  0.36830335  1  0.12147  0.000477  0.9503  0.001  0.133332  0.000455  1.003635  0.001  0.136788  0.000345  1.002515  0.0  0.113808  0.130723  0.000544  1.004766  0.001
H  H24  1  0.46759822  0.09447105  0.86830144  1  0.121448  0.000475  0.950289  0.001  0.133328  0.000455  1.003611  0.001  0.136784  0.000345  1.00249  0.0  0.1138  0.130719  0.000544  1.004745  0.001
H  H25  1  0.90553076  0.53240313  0.63170233  1  0.121434  0.000477  0.950317  0.001  0.133312  0.000455  1.003649  0.001  0.136768  0.000345  1.002528  0.0  0.113796  0.1307  0.000544  1.004781  0.001
H  H26  1  0.37199620  0.19122919  0.16678909  1  0.111232  0.000114  0.937312  0.0  0.119678  -5.6e-05  1.001479  0.0  0.12235  -9.5e-05  0.998997  0.0  0.116621  0.117536  -1.2e-05  1.00364  0.0
H  H27  1  0.80876656  0.62800512  0.33320941  1  0.111203  0.000112  0.937293  0.0  0.119666  -5.6e-05  1.001448  0.0  0.122342  -9.5e-05  0.998962  0.0  0.116597  0.117522  -1.2e-05  1.003607  0.0
H  H28  1  0.62800443  0.80876677  0.83321227  1  0.111219  0.000115  0.937252  0.0  0.119663  -5.6e-05  1.001439  0.0  0.12232  -9.5e-05  0.998976  0.0  0.116606  0.117521  -1.2e-05  1.003599  0.0
H  H29  1  0.19123441  0.37199469  0.66679276  1  0.111196  0.000113  0.937326  0.0  0.119656  -5.6e-05  1.001489  0.0  0.122339  -9.5e-05  0.998993  0.0  0.116581  0.117513  -1.2e-05  1.003649  0.0
H  H30  1  0.37418052  0.46581688  0.22241545  1  0.115888  0.000394  0.961298  0.0  0.123668  0.00033  1.025767  0.0  0.127565  0.000203  1.024075  0.0  0.108397  0.120769  0.000454  1.0272  0.0
H  H31  1  0.53417885  0.62581606  0.27758508  1  0.115888  0.000391  0.961257  0.0  0.12365  0.00033  1.025744  0.0  0.127581  0.000203  1.02401  0.0  0.108383  0.120748  0.000453  1.027178  0.0
H  H32  1  0.62581785  0.53417772  0.77758966  1  0.115852  0.000394  0.961304  0.0  0.123628  0.00033  1.025782  0.0  0.127553  0.000203  1.024055  0.0  0.108375  0.120728  0.000454  1.027217  0.0
H  H33  1  0.46581899  0.37418118  0.72241581  1  0.115906  0.000392  0.961218  0.0  0.123669  0.00033  1.025701  0.0  0.127599  0.000203  1.023972  0.0  0.1084  0.120769  0.000454  1.027136  0.0
C  C34  1  0.20761998  0.75797421  0.38943509  1  0.621033  -0.008455  3.91042  -0.008  0.57892  -0.002766  4.22163  -0.004  0.613753  -0.00326  4.217602  -0.003  0.184839  0.555541  -0.002091  4.22326  -0.003
C  C35  1  0.24202321  0.79237549  0.11056558  1  0.621173  -0.008459  3.910184  -0.008  0.579036  -0.002768  4.221405  -0.004  0.613874  -0.00326  4.217372  -0.003  0.184859  0.555658  -0.002091  4.223042  -0.003
C  C36  1  0.79237663  0.24202305  0.61056397  1  0.621174  -0.008459  3.910359  -0.008  0.579076  -0.002767  4.22153  -0.004  0.613918  -0.003261  4.217498  -0.003  0.18486  0.555699  -0.002091  4.223159  -0.003
C  C37  1  0.75797807  0.20762304  0.88943604  1  0.621119  -0.00846  3.910432  -0.008  0.579016  -0.002767  4.221607  -0.004  0.613855  -0.003262  4.21758  -0.003  0.184853  0.555638  -0.002091  4.22325  -0.003
C  C38  1  0.76036423  0.91413515  0.17799133  1  0.145643  -0.009665  3.657914  -0.007  0.118599  -0.002968  3.91179  -0.002  0.130236  -0.004391  3.92729  -0.003  0.063238  0.111044  -0.001949  3.901877  -0.001
C  C39  1  0.08586379  0.23963458  0.32200658  1  0.145624  -0.009641  3.657968  -0.007  0.118571  -0.002969  3.911839  -0.002  0.130208  -0.00439  3.92734  -0.003  0.063243  0.111015  -0.001949  3.901922  -0.001
C  C40  1  0.23963842  0.08586858  0.82200685  1  0.145506  -0.009685  3.657736  -0.007  0.118442  -0.002967  3.911615  -0.002  0.130078  -0.004393  3.927114  -0.003  0.063165  0.110882  -0.001949  3.901708  -0.001
C  C41  1  0.91413186  0.76036137  0.67799342  1  0.145668  -0.009644  3.657829  -0.007  0.118646  -0.002968  3.911693  -0.002  0.130284  -0.004389  3.92719  -0.003  0.063215  0.111087  -0.001948  3.901774  -0.001
C  C42  1  0.48707621  0.85476554  0.47081560  1  0.244004  0.003064  3.824562  0.003  0.233104  0.000168  4.089914  0.0  0.242475  8.2e-05  4.106482  0.0  0.064081  0.226689  0.000396  4.078288  0.0
C  C43  1  0.14523454  0.51292337  0.02918283  1  0.243992  0.003057  3.824572  0.003  0.233128  0.000173  4.089871  0.0  0.242497  8.1e-05  4.106438  0.0  0.064087  0.226719  0.000396  4.078241  0.0
C  C44  1  0.51292319  0.14523551  0.52918858  1  0.244133  0.003048  3.824522  0.003  0.233173  0.000168  4.089928  0.0  0.242548  8.1e-05  4.106491  0.0  0.064115  0.226763  0.000396  4.078294  0.0
C  C45  1  0.85476657  0.48707658  0.97081006  1  0.244049  0.003052  3.824495  0.003  0.233094  0.000173  4.089917  0.0  0.242468  8.2e-05  4.106482  0.0  0.064061  0.226682  0.000396  4.078292  0.0
C  C46  1  0.32766514  0.66004709  0.45666806  1  -0.068331  0.008224  3.655155  0.009  -0.123073  0.004766  3.914442  0.005  -0.119576  0.00316  3.914601  0.004  -0.07173  -0.125609  0.006041  3.914237  0.006
C  C47  1  0.33995071  0.67233737  0.04333357  1  -0.068459  0.008225  3.655264  0.009  -0.123112  0.004765  3.914447  0.005  -0.119626  0.00316  3.914614  0.004  -0.071725  -0.125653  0.00604  3.914256  0.006
C  C48  1  0.67233775  0.33995531  0.54333355  1  -0.068453  0.008224  3.655473  0.009  -0.123164  0.004765  3.914665  0.005  -0.119701  0.00316  3.914871  0.004  -0.071769  -0.125705  0.00604  3.914468  0.006
C  C49  1  0.66004313  0.32766627  0.95666768  1  -0.068439  0.008229  3.6554  0.009  -0.123142  0.004765  3.914576  0.005  -0.119677  0.003161  3.914766  0.004  -0.071735  -0.125673  0.00604  3.914392  0.006
C  C50  1  0.33789301  0.97019426  0.50393104  1  -0.181679  -4.3e-05  3.790234  0.0  -0.201694  -0.000105  4.047611  0.0  -0.204978  -0.000122  4.067792  0.0  -0.115163  -0.199259  -5.1e-05  4.033659  0.0
C  C51  1  0.02980483  0.66210650  0.99606781  1  -0.18172  -3.7e-05  3.790262  0.0  -0.20175  -0.000109  4.047632  0.0  -0.20503  -0.00012  4.067813  0.0  -0.115153  -0.199316  -5.1e-05  4.033678  0.0
C  C52  1  0.66210699  0.02980424  0.49607207  1  -0.181662  -1.9e-05  3.790226  0.0  -0.20168  -0.000105  4.047619  0.0  -0.204962  -0.000121  4.067799  0.0  -0.115148  -0.199244  -5.1e-05  4.033659  0.0
C  C53  1  0.97019783  0.33789216  0.00392570  1  -0.181619  -2.9e-05  3.790214  0.0  -0.201635  -0.000107  4.04761  0.0  -0.204915  -0.000123  4.067789  0.0  -0.115109  -0.1992  -5.1e-05  4.033662  0.0
C  C54  1  0.64852428  0.88522565  0.46732926  1  -0.168917  0.001539  3.760073  0.001  -0.195097  0.0001  4.021758  0.0  -0.198541  4e-06  4.040782  0.0  -0.11204  -0.192451  0.000317  4.008619  0.0
C  C55  1  0.11477447  0.35147534  0.03266976  1  -0.16896  0.00155  3.760133  0.001  -0.195148  9.5e-05  4.021821  0.0  -0.198594  6e-06  4.040847  0.0  -0.112048  -0.192502  0.000317  4.008687  0.0
C  C56  1  0.35147725  0.11477155  0.53267580  1  -0.168978  0.00156  3.760107  0.001  -0.19519  0.0001  4.021826  0.0  -0.198631  4e-06  4.040847  0.0  -0.112062  -0.192545  0.000317  4.008689  0.0
C  C57  1  0.88522971  0.64852203  0.96732504  1  -0.168916  0.001556  3.76012  0.001  -0.195125  9.5e-05  4.021845  0.0  -0.198569  4e-06  4.04087  0.0  -0.11207  -0.192475  0.000317  4.008705  0.0
C  C58  1  0.75067387  0.15980375  0.23195161  1  0.12723  -0.0028  3.782589  -0.002  0.122622  -0.000388  4.020715  0.0  0.127342  -0.001479  4.044941  -0.001  0.116083  0.119537  0.000449  4.004762  0.001
C  C59  1  0.84019668  0.24932437  0.26804584  1  0.127146  -0.002759  3.782592  -0.002  0.122575  -0.00039  4.020701  0.0  0.127294  -0.001475  4.044927  -0.001  0.116063  0.119485  0.000449  4.004743  0.001
C  C60  1  0.24932309  0.84019735  0.76804825  1  0.127196  -0.002808  3.782656  -0.002  0.122598  -0.000387  4.020715  0.0  0.127315  -0.001481  4.044942  -0.001  0.116106  0.119511  0.000448  4.004753  0.001
C  C61  1  0.15980659  0.75067682  0.73195060  1  0.127161  -0.002767  3.782672  -0.002  0.122676  -0.00039  4.02064  0.0  0.127397  -0.001477  4.044862  -0.001  0.116127  0.119584  0.000448  4.004682  0.001
C  C62  1  0.58125784  0.23600622  0.21642063  1  0.031128  0.003934  3.781033  0.004  0.047942  0.002167  4.007279  0.003  0.04537  0.001806  4.030274  0.002  0.004311  0.049535  0.002456  3.991986  0.003
C  C63  1  0.76399216  0.41874070  0.28357780  1  0.031164  0.003904  3.780829  0.004  0.047933  0.002168  4.007125  0.003  0.045361  0.001805  4.030129  0.002  0.004291  0.049524  0.002457  3.991822  0.003
C  C64  1  0.41874034  0.76399487  0.78358106  1  0.031089  0.003939  3.781011  0.004  0.047899  0.002166  4.007242  0.003  0.045327  0.001807  4.030241  0.002  0.00429  0.049489  0.002457  3.991943  0.003
C  C65  1  0.23600667  0.58125786  0.71642082  1  0.031129  0.00391  3.780907  0.004  0.047883  0.002167  4.007169  0.003  0.045307  0.001806  4.030177  0.002  0.00427  0.049475  0.002457  3.991872  0.003
C  C66  1  0.59161445  0.97866786  0.16141081  1  -0.084808  0.007235  3.677321  0.008  -0.098745  0.00392  3.924991  0.005  -0.104191  0.003452  3.94013  0.004  -0.069389  -0.095558  0.004303  3.915518  0.005
C  C67  1  0.02133526  0.40838420  0.33858671  1  -0.084829  0.007216  3.677253  0.008  -0.098754  0.003921  3.92493  0.005  -0.104202  0.003452  3.940071  0.004  -0.069413  -0.095569  0.004303  3.915446  0.005
C  C68  1  0.40839005  0.02133332  0.83858679  1  -0.084718  0.007247  3.677148  0.008  -0.098669  0.00392  3.924843  0.005  -0.104115  0.003454  3.939978  0.004  -0.069362  -0.095486  0.004303  3.915373  0.005
C  C69  1  0.97866445  0.59161559  0.66141627  1  -0.084763  0.007215  3.677344  0.008  -0.098743  0.003919  3.925068  0.005  -0.10419  0.003453  3.940211  0.004  -0.069387  -0.095557  0.004302  3.915588  0.005
C  C70  1  0.50165707  0.13836891  0.18109970  1  -0.025259  -0.010479  3.632879  -0.006  -0.04985  -0.004862  3.882042  -0.003  -0.043669  -0.005406  3.893918  -0.003  -0.049201  -0.054352  -0.004423  3.87484  -0.003
C  C71  1  0.86162899  0.49834142  0.31889813  1  -0.025251  -0.010437  3.632772  -0.006  -0.049843  -0.004862  3.881933  -0.003  -0.043668  -0.005405  3.893814  -0.003  -0.04917  -0.054341  -0.004424  3.874714  -0.003
C  C72  1  0.49834238  0.86163220  0.81890051  1  -0.025244  -0.010492  3.632775  -0.006  -0.049849  -0.00486  3.88196  -0.003  -0.043659  -0.005409  3.893844  -0.003  -0.049192  -0.054347  -0.004423  3.874749  -0.003
C  C73  1  0.13836952  0.50165841  0.68110169  1  -0.025253  -0.010441  3.632794  -0.006  -0.049843  -0.004861  3.881978  -0.003  -0.043672  -0.005409  3.893856  -0.003  -0.049163  -0.054345  -0.004424  3.874766  -0.003
C  C74  1  0.50461529  0.40647815  0.23472620  1  -0.09698  0.000969  3.69637  0.001  -0.116922  0.000674  3.943664  0.001  -0.120349  0.00053  3.966016  0.001  -0.08043  -0.114711  0.000821  3.92904  0.001
C  C75  1  0.59351781  0.49538163  0.26527417  1  -0.096967  0.001053  3.696247  0.001  -0.116887  0.000673  3.943576  0.001  -0.120339  0.000532  3.9659  0.001  -0.080401  -0.114669  0.000821  3.928946  0.001
C  C76  1  0.49538223  0.59352034  0.76527656  1  -0.096981  0.000983  3.69643  0.001  -0.116918  0.000674  3.943717  0.001  -0.120365  0.00053  3.966055  0.001  -0.080449  -0.114708  0.000821  3.929093  0.001
C  C77  1  0.40648037  0.50461944  0.73472819  1  -0.096945  0.001039  3.696268  0.001  -0.11687  0.000673  3.943596  0.001  -0.120322  0.000532  3.96593  0.001  -0.080412  -0.114656  0.000821  3.928971  0.001
N  N78  1  0.83672943  0.00202283  0.21342615  1  -0.331555  0.064848  3.342281  0.083  -0.290563  0.050317  3.643294  0.068  -0.320669  0.041918  3.662569  0.061  -0.345154  -0.272724  0.055025  3.633001  0.071
N  N79  1  0.99797455  0.16326966  0.28657079  1  -0.331472  0.064835  3.342358  0.083  -0.290464  0.050318  3.64334  0.068  -0.320568  0.041917  3.662617  0.061  -0.345121  -0.272624  0.055026  3.633042  0.071
N  N80  1  0.16327129  0.99797831  0.78657324  1  -0.331407  0.064861  3.342223  0.083  -0.290437  0.050318  3.643253  0.068  -0.320531  0.04192  3.662511  0.061  -0.345117  -0.272582  0.055028  3.632934  0.071
N  N81  1  0.00202463  0.83673276  0.71342798  1  -0.33148  0.064839  3.342108  0.083  -0.290526  0.050317  3.643093  0.068  -0.320618  0.041918  3.662347  0.061  -0.345118  -0.27267  0.055027  3.632775  0.071
O  O82  1  0.26902430  0.85250587  0.31452115  1  -0.577048  0.099303  2.02207  0.134  -0.552974  0.061566  2.299805  0.091  -0.597339  0.045898  2.297112  0.073  -0.326859  -0.523241  0.071648  2.301562  0.1
O  O83  1  0.14749218  0.73097104  0.18548013  1  -0.577067  0.099299  2.021912  0.134  -0.553002  0.061565  2.299677  0.091  -0.597363  0.045899  2.296978  0.073  -0.32687  -0.523277  0.071644  2.301459  0.1
O  O84  1  0.73097485  0.14749652  0.68547960  1  -0.577062  0.0993  2.022023  0.134  -0.553023  0.061562  2.29978  0.091  -0.597381  0.045896  2.297084  0.073  -0.326866  -0.523279  0.071647  2.301525  0.1
O  O85  1  0.85250470  0.26902490  0.81452103  1  -0.577093  0.099293  2.022125  0.134  -0.553018  0.06156  2.299877  0.091  -0.59737  0.045895  2.297168  0.073  -0.326861  -0.523274  0.071638  2.301633  0.1
O  O86  1  0.48803899  0.70818023  0.44094835  1  -0.273951  0.002485  2.356951  0.003  -0.208079  0.000376  2.596678  0.0  -0.224404  0.000193  2.598974  0.0  -0.188971  -0.196216  0.000765  2.594559  0.0
O  O87  1  0.29182112  0.51196035  0.05905054  1  -0.273878  0.002484  2.35694  0.003  -0.208017  0.000378  2.596613  0.0  -0.224335  0.000194  2.598907  0.0  -0.188948  -0.196155  0.000765  2.594498  0.0
O  O88  1  0.51196232  0.29182341  0.55905528  1  -0.274039  0.002482  2.357087  0.003  -0.208088  0.000375  2.596757  0.0  -0.224406  0.000195  2.599066  0.0  -0.188949  -0.19623  0.000765  2.594639  0.0
O  O89  1  0.70817745  0.48803954  0.94094531  1  -0.27402  0.002482  2.357097  0.003  -0.208092  0.000377  2.596783  0.0  -0.224415  0.000195  2.599092  0.0  -0.18896  -0.196236  0.000765  2.594674  0.0
O  O90  1  0.05636002  0.73661216  0.40955921  1  -0.616506  -0.000496  1.918566  0.002  -0.582948  -0.001133  2.156247  0.001  -0.610704  -0.002408  2.147072  -0.001  -0.327997  -0.563325  3.6e-05  2.162024  0.002
O  O91  1  0.26338006  0.94364197  0.09044268  1  -0.616561  -0.000496  1.918384  0.002  -0.583004  -0.001131  2.156087  0.001  -0.610763  -0.002411  2.14691  -0.001  -0.327999  -0.563375  3.6e-05  2.161862  0.002
O  O92  1  0.94364370  0.26338124  0.59044209  1  -0.616543  -0.000495  1.918421  0.002  -0.58302  -0.001132  2.156131  0.001  -0.610772  -0.00241  2.146945  -0.001  -0.327992  -0.563382  3.7e-05  2.161893  0.002
O  O93  1  0.73662028  0.05635528  0.90955790  1  -0.616513  -0.000494  1.918471  0.002  -0.583  -0.001131  2.156185  0.001  -0.610754  -0.00241  2.147002  -0.001  -0.327993  -0.563361  3.7e-05  2.161954  0.002
