# generated using pymatgen
data_CdH10C12(NO)6
_symmetry_space_group_name_H-M   'P 1'
_cell_length_a   6.97450121
_cell_length_b   10.41590283
_cell_length_c   10.75874754
_cell_angle_alpha   96.91936403
_cell_angle_beta   108.92643580
_cell_angle_gamma   89.98678693
_symmetry_Int_Tables_number   1
_chemical_formula_structural   CdH10C12(NO)6
_chemical_formula_sum   'Cd2 H20 C24 N12 O12'
_cell_volume   733.30876798
_cell_formula_units_Z   2
loop_
 _symmetry_equiv_pos_site_id
 _symmetry_equiv_pos_as_xyz
  1  'x, y, z'
loop_
 _atom_site_type_symbol
 _atom_site_label
 _atom_site_symmetry_multiplicity
 _atom_site_fract_x
 _atom_site_fract_y
 _atom_site_fract_z
 _atom_site_occupancy
 _atom_site_hle17_bader_spin_density
 _atom_site_hle17_ddec_charge
 _atom_site_hle17_ddec_spin_density
 _atom_site_hle17_ddec_sum_bond_order
 _atom_site_hle17_magmom
 _atom_site_hse06_10hf_bader_spin_density
 _atom_site_hse06_10hf_ddec_charge
 _atom_site_hse06_10hf_ddec_spin_density
 _atom_site_hse06_10hf_ddec_sum_bond_order
 _atom_site_hse06_10hf_magmom
 _atom_site_hse06_bader_spin_density
 _atom_site_hse06_ddec_charge
 _atom_site_hse06_ddec_spin_density
 _atom_site_hse06_ddec_sum_bond_order
 _atom_site_hse06_magmom
 _atom_site_pbe_bader_spin_density
 _atom_site_pbe_cm5_charge
 _atom_site_pbe_ddec_charge
 _atom_site_pbe_ddec_spin_density
 _atom_site_pbe_ddec_sum_bond_order
 _atom_site_pbe_magmom
Cd  Cd0  1  0.13361232  0.24993698  0.99996948  1  0  1.16694  0  1.659083  0  0  0.986655  0  2.100188  0  0  1.039737  0  2.049041  0  0  0.77694  0.948611  0  2.135277  0
Cd  Cd1  1  0.86639035  0.75006266  0.00003132  1  0  1.166955  0  1.659065  0  0  0.986671  0  2.100179  0  0  1.03975  0  2.04903  0  0  0.77695  0.948624  0  2.135266  0
H  H2  1  0.95704496  0.44764279  0.14813847  1  0  0.414107  0  0.89491  0  0  0.380566  0  0.963968  0  0  0.391984  0  0.947607  0  0  0.279924  0.372447  0  0.975486  0
H  H3  1  0.80916309  0.05243257  0.85183973  1  0  0.414418  0  0.894629  0  0  0.380958  0  0.963407  0  0  0.392337  0  0.947111  0  0  0.280295  0.37283  0  0.974974  0
H  H4  1  0.04295315  0.55235686  0.85186228  1  0  0.414099  0  0.894927  0  0  0.380564  0  0.963975  0  0  0.391982  0  0.947614  0  0  0.279941  0.372442  0  0.975495  0
H  H5  1  0.19083352  0.94756707  0.14815883  1  0  0.414406  0  0.894645  0  0  0.380948  0  0.96342  0  0  0.392319  0  0.947139  0  0  0.2803  0.372819  0  0.974989  0
H  H6  1  0.06855607  0.32991039  0.22190105  1  0  0.406314  0  0.91164  0  0  0.373221  0  0.97968  0  0  0.385136  0  0.962906  0  0  0.275913  0.364848  0  0.991448  0
H  H7  1  0.84691046  0.17001227  0.77791861  1  0  0.405804  0  0.912305  0  0  0.372625  0  0.980529  0  0  0.384524  0  0.963774  0  0  0.275737  0.3642  0  0.992389  0
H  H8  1  0.93144047  0.67008828  0.77809832  1  0  0.406338  0  0.911606  0  0  0.373247  0  0.97964  0  0  0.385163  0  0.962864  0  0  0.275922  0.364877  0  0.991404  0
H  H9  1  0.15308928  0.82998932  0.22208271  1  0  0.405757  0  0.912375  0  0  0.372591  0  0.980572  0  0  0.384488  0  0.963818  0  0  0.275733  0.364166  0  0.99243  0
H  H10  1  0.23419583  0.14778960  0.52769597  1  0  0.127272  0  0.930634  0  0  0.133417  0  0.99539  0  0  0.13713  0  0.993243  0  0  0.118112  0.13093  0  0.996857  0
H  H11  1  0.70673861  0.35218745  0.47245733  1  0  0.127238  0  0.93046  0  0  0.134184  0  0.994205  0  0  0.1379  0  0.992047  0  0  0.118054  0.131551  0  0.995743  0
H  H12  1  0.76580053  0.85220519  0.47229919  1  0  0.127223  0  0.93067  0  0  0.133374  0  0.995427  0  0  0.137087  0  0.993278  0  0  0.118088  0.130885  0  0.996894  0
H  H13  1  0.29326228  0.64780833  0.52754358  1  0  0.127216  0  0.930492  0  0  0.134175  0  0.994228  0  0  0.137892  0  0.992068  0  0  0.118071  0.131542  0  0.995764  0
H  H14  1  0.60171500  0.77873668  0.21867896  1  0  0.102085  0  1.004482  0  0  0.102174  0  1.083515  0  0  0.105487  0  1.078532  0  0  0.137392  0.098614  0  1.087888  0
H  H15  1  0.38320312  0.72117464  0.78122476  1  0  0.102187  0  1.004438  0  0  0.102334  0  1.083243  0  0  0.105701  0  1.078213  0  0  0.137187  0.09873  0  1.087655  0
H  H16  1  0.39828936  0.22126391  0.78131488  1  0  0.102121  0  1.004453  0  0  0.102192  0  1.083493  0  0  0.1055  0  1.07852  0  0  0.137392  0.098633  0  1.087867  0
H  H17  1  0.61679506  0.27882597  0.21877518  1  0  0.102183  0  1.004469  0  0  0.102341  0  1.083263  0  0  0.105706  0  1.078238  0  0  0.137186  0.098737  0  1.087676  0
H  H18  1  0.79849007  0.09403094  0.07148657  1  0  0.105838  0  0.935746  0  0  0.117669  0  0.994812  0  0  0.119284  0  0.992766  0  0  0.137844  0.116149  0  0.996773  0
H  H19  1  0.72787436  0.40609266  0.92850077  1  0  0.105208  0  0.9364  0  0  0.117229  0  0.995033  0  0  0.118818  0  0.993043  0  0  0.137554  0.11578  0  0.996968  0
H  H20  1  0.20151152  0.90597548  0.92851384  1  0  0.105851  0  0.935737  0  0  0.117739  0  0.994727  0  0  0.119348  0  0.9927  0  0  0.137816  0.116218  0  0.996689  0
H  H21  1  0.27212388  0.59390990  0.07150313  1  0  0.105279  0  0.936351  0  0  0.117264  0  0.995031  0  0  0.118853  0  0.993041  0  0  0.137593  0.115814  0  0.996966  0
C  C22  1  0.55608052  0.99522456  0.38761685  1  0  0.165312  0  3.733651  0  0  0.135344  0  3.98511  0  0  0.153082  0  4.006862  0  0  0.111189  0.132095  0  3.971459  0
C  C23  1  0.16883981  0.50465601  0.61228315  1  0  0.164661  0  3.733378  0  0  0.135312  0  3.984959  0  0  0.152639  0  4.00675  0  0  0.111332  0.131653  0  3.97114  0
C  C24  1  0.44391891  0.00477120  0.61238002  1  0  0.165418  0  3.733381  0  0  0.135461  0  3.984883  0  0  0.153149  0  4.006619  0  0  0.111183  0.132211  0  3.971233  0
C  C25  1  0.83116141  0.49534460  0.38771745  1  0  0.164738  0  3.733348  0  0  0.135322  0  3.984983  0  0  0.152685  0  4.00673  0  0  0.111346  0.131643  0  3.971192  0
C  C26  1  0.40622517  0.08061533  0.40121575  1  0  -0.085178  0  3.683566  0  0  -0.071473  0  3.929581  0  0  -0.076455  0  3.944634  0  0  0.000727  -0.068109  0  3.917785  0
C  C27  1  0.00547182  0.41922282  0.59871439  1  0  -0.082252  0  3.68008  0  0  -0.068687  0  3.926091  0  0  -0.073654  0  3.941187  0  0  0.001321  -0.065818  0  3.914402  0
C  C28  1  0.59377433  0.91938140  0.59878125  1  0  -0.085239  0  3.683503  0  0  -0.071452  0  3.929435  0  0  -0.076434  0  3.944498  0  0  0.000763  -0.068087  0  3.917638  0
C  C29  1  0.99452935  0.58077780  0.40128899  1  0  -0.082311  0  3.680197  0  0  -0.068693  0  3.926176  0  0  -0.073665  0  3.941261  0  0  0.001323  -0.06582  0  3.914495  0
C  C30  1  0.35296807  0.08418869  0.51594954  1  0  -0.107472  0  3.66584  0  0  -0.140151  0  3.921987  0  0  -0.141224  0  3.935573  0  0  -0.064453  -0.139537  0  3.910418  0
C  C31  1  0.83717684  0.41581765  0.48411580  1  0  -0.109717  0  3.667594  0  0  -0.143072  0  3.923721  0  0  -0.14412  0  3.937393  0  0  -0.065305  -0.141942  0  3.912257  0
C  C32  1  0.64703298  0.91580804  0.48404593  1  0  -0.107415  0  3.666115  0  0  -0.140132  0  3.922247  0  0  -0.141206  0  3.935825  0  0  -0.064473  -0.139518  0  3.910678  0
C  C33  1  0.16282569  0.58418007  0.51588568  1  0  -0.109579  0  3.667608  0  0  -0.142979  0  3.923707  0  0  -0.144018  0  3.937391  0  0  -0.065272  -0.141855  0  3.912237  0
C  C34  1  0.28866939  0.16319104  0.29786384  1  0  0.660432  0  3.901928  0  0  0.603575  0  4.207634  0  0  0.637713  0  4.199858  0  0  0.211836  0.580276  0  4.21252  0
C  C35  1  0.99139598  0.33663264  0.70204856  1  0  0.659064  0  3.904803  0  0  0.602461  0  4.210202  0  0  0.636593  0  4.202449  0  0  0.211478  0.579368  0  4.214731  0
C  C36  1  0.71133015  0.83680666  0.70213420  1  0  0.660395  0  3.902102  0  0  0.603514  0  4.20781  0  0  0.63765  0  4.200036  0  0  0.211817  0.580214  0  4.212692  0
C  C37  1  0.00860214  0.66336798  0.29795509  1  0  0.65898  0  3.905077  0  0  0.602392  0  4.210433  0  0  0.636517  0  4.202692  0  0  0.2114  0.5793  0  4.214961  0
C  C38  1  0.64130304  0.87486520  0.20166988  1  0  0.203125  0  3.624074  0  0  0.123187  0  3.892089  0  0  0.151893  0  3.904661  0  0  0.167111  0.113391  0  3.886694  0
C  C39  1  0.43990403  0.62505792  0.79821608  1  0  0.203224  0  3.624396  0  0  0.123973  0  3.892306  0  0  0.152279  0  3.904711  0  0  0.167652  0.113965  0  3.886655  0
C  C40  1  0.35870293  0.12513733  0.79832639  1  0  0.203107  0  3.623988  0  0  0.123235  0  3.89202  0  0  0.151888  0  3.904586  0  0  0.167153  0.113439  0  3.886626  0
C  C41  1  0.56009256  0.37494173  0.20178434  1  0  0.20322  0  3.624485  0  0  0.12395  0  3.892406  0  0  0.152258  0  3.904816  0  0  0.16761  0.113942  0  3.886759  0
C  C42  1  0.74035110  0.03637419  0.12981499  1  0  0.221935  0  3.66873  0  0  0.166213  0  3.958385  0  0  0.180027  0  3.966182  0  0  0.150001  0.15771  0  3.950321  0
C  C43  1  0.61123933  0.46365951  0.87012132  1  0  0.222956  0  3.667018  0  0  0.167357  0  3.956357  0  0  0.181167  0  3.964268  0  0  0.150556  0.158651  0  3.948855  0
C  C44  1  0.25965041  0.96363028  0.87018332  1  0  0.221828  0  3.668915  0  0  0.166066  0  3.958521  0  0  0.179877  0  3.966334  0  0  0.150008  0.157564  0  3.950457  0
C  C45  1  0.38876050  0.53634402  0.12988302  1  0  0.222873  0  3.667047  0  0  0.16729  0  3.95639  0  0  0.181099  0  3.964302  0  0  0.150487  0.158585  0  3.948891  0
N  N46  1  0.62233512  0.98513164  0.27518135  1  0  0.008283  0  3.595893  0  0  0.128224  0  3.770406  0  0  0.080087  0  3.839695  0  0  -0.118902  0.134774  0  3.756033  0
N  N47  1  0.34770058  0.51475242  0.72464785  1  0  0.00973  0  3.59517  0  0  0.1283  0  3.771111  0  0  0.081219  0  3.839326  0  0  -0.118666  0.135199  0  3.756197  0
N  N48  1  0.37766604  0.01486703  0.72481437  1  0  0.008268  0  3.595904  0  0  0.128032  0  3.770631  0  0  0.080055  0  3.839741  0  0  -0.119029  0.134581  0  3.756258  0
N  N49  1  0.65229758  0.48524820  0.27535302  1  0  0.0097  0  3.595162  0  0  0.128287  0  3.77112  0  0  0.08119  0  3.839341  0  0  -0.11866  0.135192  0  3.756209  0
N  N50  1  0.68537597  0.08944245  0.23058231  1  0  -0.247574  0  2.871759  0  0  -0.244836  0  3.134805  0  0  -0.241783  0  3.154047  0  0  -0.210174  -0.238526  0  3.127394  0
N  N51  1  0.45562353  0.41050276  0.76927646  1  0  -0.247937  0  2.869494  0  0  -0.244794  0  3.132753  0  0  -0.242122  0  3.151859  0  0  -0.210646  -0.238666  0  3.125316  0
N  N52  1  0.31462385  0.91056010  0.76941820  1  0  -0.247521  0  2.871822  0  0  -0.244716  0  3.134887  0  0  -0.241718  0  3.154107  0  0  -0.210127  -0.238406  0  3.127473  0
N  N53  1  0.54437619  0.58949883  0.23072671  1  0  -0.247917  0  2.869541  0  0  -0.244767  0  3.132782  0  0  -0.242094  0  3.15189  0  0  -0.210644  -0.238638  0  3.125344  0
N  N54  1  0.71530302  0.90416831  0.10831300  1  0  -0.430237  0  3.183491  0  0  -0.35769  0  3.479012  0  0  -0.380394  0  3.48675  0  0  -0.351122  -0.342187  0  3.469886  0
N  N55  1  0.60735782  0.59585277  0.89163048  1  0  -0.431384  0  3.185006  0  0  -0.359149  0  3.48067  0  0  -0.381872  0  3.488481  0  0  -0.351558  -0.34337  0  3.471751  0
N  N56  1  0.28470142  0.09583423  0.89168386  1  0  -0.430225  0  3.183472  0  0  -0.357666  0  3.47896  0  0  -0.380369  0  3.48672  0  0  -0.351122  -0.342164  0  3.469835  0
N  N57  1  0.39263886  0.40414882  0.10837203  1  0  -0.43132  0  3.18507  0  0  -0.359074  0  3.480724  0  0  -0.381797  0  3.488534  0  0  -0.351469  -0.343295  0  3.471807  0
O  O58  1  0.23092020  0.11174170  0.17591348  1  0  -0.677954  0  2.024566  0  0  -0.606771  0  2.270404  0  0  -0.63612  0  2.259301  0  0  -0.325626  -0.585927  0  2.276942  0
O  O59  1  0.05562049  0.38809900  0.82397122  1  0  -0.67767  0  2.025775  0  0  -0.606563  0  2.271682  0  0  -0.635911  0  2.260586  0  0  -0.325622  -0.585644  0  2.277958  0
O  O60  1  0.76907796  0.88825794  0.82408356  1  0  -0.677902  0  2.024606  0  0  -0.606714  0  2.270453  0  0  -0.636068  0  2.259354  0  0  -0.325594  -0.585869  0  2.276988  0
O  O61  1  0.94438063  0.61190065  0.17603111  1  0  -0.677679  0  2.025711  0  0  -0.606583  0  2.271612  0  0  -0.635926  0  2.26052  0  0  -0.325603  -0.58566  0  2.27788  0
O  O62  1  0.25005113  0.27520151  0.33917668  1  0  -0.595825  0  1.934511  0  0  -0.545601  0  2.148688  0  0  -0.570522  0  2.141965  0  0  -0.311371  -0.528443  0  2.153218  0
O  O63  1  0.91142056  0.22461950  0.66071002  1  0  -0.595718  0  1.935325  0  0  -0.545434  0  2.149345  0  0  -0.570336  0  2.142617  0  0  -0.311142  -0.528275  0  2.153785  0
O  O64  1  0.74995149  0.72479717  0.66082307  1  0  -0.595838  0  1.93458  0  0  -0.545617  0  2.148769  0  0  -0.570538  0  2.142045  0  0  -0.311406  -0.528462  0  2.153297  0
O  O65  1  0.08857752  0.77538015  0.33929257  1  0  -0.595629  0  1.935536  0  0  -0.545357  0  2.149532  0  0  -0.570261  0  2.142818  0  0  -0.311083  -0.528193  0  2.153958  0
O  O66  1  0.96409831  0.35119950  0.13722488  1  0  -0.853798  0  1.879995  0  0  -0.790592  0  2.079742  0  0  -0.81533  0  2.04624  0  0  -0.596668  -0.772978  0  2.102918  0
O  O67  1  0.82691527  0.14888137  0.86256439  1  0  -0.853517  0  1.879954  0  0  -0.79025  0  2.079897  0  0  -0.814982  0  2.046516  0  0  -0.596907  -0.772425  0  2.103199  0
O  O68  1  0.03589821  0.64879918  0.86277541  1  0  -0.853807  0  1.879984  0  0  -0.7906  0  2.079738  0  0  -0.815334  0  2.046226  0  0  -0.596675  -0.772988  0  2.102913  0
O  O69  1  0.17308586  0.85111828  0.13743793  1  0  -0.853477  0  1.880036  0  0  -0.79022  0  2.079975  0  0  -0.814942  0  2.046598  0  0  -0.596921  -0.772397  0  2.103278  0
