# generated using pymatgen
data_CuH14C19N2O3
_symmetry_space_group_name_H-M   'P 1'
_cell_length_a   9.10978712
_cell_length_b   11.25948455
_cell_length_c   19.80830994
_cell_angle_alpha   90.00020721
_cell_angle_beta   90.00027115
_cell_angle_gamma   110.23435595
_symmetry_Int_Tables_number   1
_chemical_formula_structural   CuH14C19N2O3
_chemical_formula_sum   'Cu4 H56 C76 N8 O12'
_cell_volume   1906.37926773
_cell_formula_units_Z   4
loop_
 _symmetry_equiv_pos_site_id
 _symmetry_equiv_pos_as_xyz
  1  'x, y, z'
loop_
 _atom_site_type_symbol
 _atom_site_label
 _atom_site_symmetry_multiplicity
 _atom_site_fract_x
 _atom_site_fract_y
 _atom_site_fract_z
 _atom_site_occupancy
 _atom_site_pbe_bader_charge
 _atom_site_pbe_bader_spin_density
 _atom_site_pbe_cm5_charge
 _atom_site_pbe_ddec_charge
 _atom_site_pbe_ddec_spin_density
 _atom_site_pbe_ddec_sum_bond_order
 _atom_site_pbe_magmom
Cu  Cu0  1  0.79689975  0.24979786  0.27952592  1  1.018654  -0.500448  0.751415  0.686664  -0.668772  2.408691  -0.5
Cu  Cu1  1  0.70309433  0.75021239  0.77952610  1  1.018632  -0.500493  0.751483  0.686735  -0.668836  2.408578  -0.5
Cu  Cu2  1  0.20308409  0.75020731  0.72047417  1  1.018602  0.500471  0.751486  0.686696  0.668812  2.408555  0.5
Cu  Cu3  1  0.29689440  0.24978266  0.22047348  1  1.018908  0.500481  0.751417  0.686618  0.668813  2.408793  0.5
H  H4  1  0.27177337  0.94673365  0.38848022  1  0.018477  -0.000671  0.096897  0.092452  -0.000376  1.012257  0.0
H  H5  1  0.22821635  0.05328190  0.88846077  1  0.017988  -0.000671  0.096897  0.092437  -0.000377  1.012209  0.0
H  H6  1  0.72824302  0.05323051  0.61151230  1  0.01777  0.000672  0.096868  0.092411  0.000377  1.012098  0.0
H  H7  1  0.77176876  0.94670089  0.11153629  1  0.018125  0.000671  0.096848  0.092365  0.000377  1.012351  0.0
H  H8  1  0.32074512  0.79487553  0.46914965  1  0.053775  -6.2e-05  0.091744  0.089587  -2.8e-05  1.059081  0.0
H  H9  1  0.17924862  0.20512933  0.96913221  1  0.054222  -6.2e-05  0.091716  0.089555  -2.8e-05  1.059274  0.0
H  H10  1  0.67927139  0.20507181  0.53083126  1  0.053987  6.2e-05  0.091654  0.089467  2.8e-05  1.059088  0.0
H  H11  1  0.82074013  0.79486292  0.03085425  1  0.053811  6.2e-05  0.091777  0.089631  2.8e-05  1.059209  0.0
H  H12  1  0.59306993  0.78897337  0.47963990  1  0.068744  -0.001012  0.093927  0.08738  -0.000522  1.045405  -0.001
H  H13  1  0.90692681  0.21102835  0.97963002  1  0.068727  -0.001012  0.0939  0.087334  -0.000522  1.045355  -0.001
H  H14  1  0.40694445  0.21101128  0.52035767  1  0.069071  0.001012  0.093988  0.087544  0.000522  1.045327  0.001
H  H15  1  0.09308202  0.78900471  0.02035039  1  0.06865  0.001013  0.093955  0.087448  0.000523  1.045394  0.001
H  H16  1  0.80731105  0.92952701  0.41117407  1  0.065873  0.000155  0.097472  0.109265  2.9e-05  1.03111  0.0
H  H17  1  0.69266999  0.07045269  0.91116291  1  0.065852  0.000155  0.097473  0.109261  2.9e-05  1.031055  0.0
H  H18  1  0.19271279  0.07048223  0.58883713  1  0.045297  -0.000153  0.097454  0.109222  -2.9e-05  1.030843  0.0
H  H19  1  0.30733288  0.92958486  0.08880487  1  0.066437  -0.000155  0.097504  0.109175  -2.8e-05  1.031142  0.0
H  H20  1  0.34820511  0.09923608  0.30593940  1  0.093646  -0.010777  0.116771  0.071566  -0.005945  1.028818  -0.006
H  H21  1  0.15179717  0.90074512  0.80592339  1  0.093611  -0.010778  0.116786  0.071625  -0.005945  1.02885  -0.006
H  H22  1  0.65178378  0.90073655  0.69405564  1  0.09378  0.010776  0.116715  0.071543  0.005944  1.028951  0.006
H  H23  1  0.84819799  0.09923238  0.19406509  1  0.093481  0.010777  0.116829  0.071644  0.005944  1.028725  0.006
H  H24  1  0.58227043  0.55323000  0.20646082  1  0.08862  6.2e-05  0.11904  0.110661  0.000113  0.938881  0.0
H  H25  1  0.91768294  0.44676269  0.70645809  1  0.089037  6.1e-05  0.119092  0.110792  0.000112  0.938724  0.0
H  H26  1  0.41769574  0.44675780  0.79354785  1  0.088768  -6.2e-05  0.11907  0.110779  -0.000112  0.938778  0.0
H  H27  1  0.08227105  0.55321632  0.29354504  1  0.089049  -6.1e-05  0.11906  0.110703  -0.000112  0.938692  0.0
H  H28  1  0.69277843  0.51956122  0.13844297  1  0.083572  -0.000115  0.114454  0.101662  -0.000127  0.988326  0.0
H  H29  1  0.80717916  0.48042404  0.63843960  1  0.083898  -0.000116  0.114419  0.101611  -0.000127  0.988354  0.0
H  H30  1  0.30719948  0.48044283  0.86156773  1  0.083907  0.000116  0.114391  0.101666  0.000127  0.988319  0.0
H  H31  1  0.19278044  0.51954954  0.36156655  1  0.083742  0.000115  0.114384  0.101655  0.000127  0.988195  0.0
H  H32  1  0.58200332  0.65970313  0.10053752  1  0.050857  -2.8e-05  0.10188  0.115084  2e-06  1.037653  0.0
H  H33  1  0.91794743  0.34027161  0.60052182  1  0.050422  -2.8e-05  0.101926  0.115251  2e-06  1.037442  0.0
H  H34  1  0.41798615  0.34029101  0.89947317  1  0.050558  2.8e-05  0.101894  0.115174  -2e-06  1.037576  0.0
H  H35  1  0.08201407  0.65969549  0.39947171  1  0.050423  2.8e-05  0.101886  0.115212  -2e-06  1.037701  0.0
H  H36  1  0.58987558  0.84366943  0.02914337  1  0.064874  -0.0  0.09779  0.097438  -3e-06  1.031942  0.0
H  H37  1  0.91010417  0.15629441  0.52913448  1  0.064637  -0.0  0.09782  0.097469  -3e-06  1.032016  0.0
H  H38  1  0.41017491  0.15634626  0.97088247  1  0.065713  0.0  0.097833  0.097523  3e-06  1.032216  0.0
H  H39  1  0.08989249  0.84368127  0.47085653  1  0.064564  0.0  0.097771  0.097392  3e-06  1.032148  0.0
H  H40  1  0.47852465  0.93276662  0.93688583  1  0.088016  -0.000148  0.097844  0.09206  -0.000125  1.029278  0.0
H  H41  1  0.02147057  0.06722542  0.43687614  1  0.087854  -0.000148  0.097811  0.092021  -0.000125  1.029232  0.0
H  H42  1  0.52154233  0.06727482  0.06313950  1  0.088318  0.000149  0.097817  0.091885  0.000125  1.029247  0.0
H  H43  1  0.97856603  0.93276273  0.56311739  1  0.08744  0.000149  0.097755  0.091958  0.000125  1.02927  0.0
H  H44  1  0.23519549  0.80004819  0.87819327  1  0.025278  -0.000523  0.090735  0.077365  -0.000422  1.058864  0.0
H  H45  1  0.26479833  0.19997716  0.37819826  1  0.025866  -0.000523  0.090806  0.077491  -0.000422  1.058902  0.0
H  H46  1  0.76488466  0.20001609  0.12182399  1  0.024967  0.000523  0.090788  0.077491  0.000422  1.058963  0.0
H  H47  1  0.73525586  0.80003958  0.62180536  1  0.026192  0.000523  0.090744  0.077427  0.000423  1.058812  0.0
H  H48  1  0.09955799  0.57840733  0.91343736  1  0.104413  3.1e-05  0.101336  0.106478  3.1e-05  1.003328  0.0
H  H49  1  0.40043316  0.42160147  0.41346044  1  0.104629  3.1e-05  0.101325  0.106597  3.1e-05  1.003315  0.0
H  H50  1  0.90050615  0.42166673  0.08655667  1  0.10377  -3.1e-05  0.101235  0.106295  -3.1e-05  1.003293  0.0
H  H51  1  0.59957804  0.57841205  0.58655985  1  0.104604  -3.1e-05  0.101341  0.10646  -3.1e-05  1.003347  0.0
H  H52  1  0.08376085  0.39891859  0.98824740  1  0.061412  -5.4e-05  0.101119  0.099987  -3.8e-05  1.032329  0.0
H  H53  1  0.41621940  0.60107323  0.48827043  1  0.061546  -5.4e-05  0.101118  0.100014  -3.8e-05  1.032468  0.0
H  H54  1  0.91624099  0.60110771  0.01174007  1  0.061316  5.4e-05  0.101111  0.099894  3.8e-05  1.032379  0.0
H  H55  1  0.58376599  0.39892172  0.51174986  1  0.061503  5.4e-05  0.101105  0.099961  3.8e-05  1.032384  0.0
H  H56  1  0.20117396  0.30446186  0.07804369  1  0.054715  -0.000222  0.106038  0.117212  -0.000176  1.010088  0.0
H  H57  1  0.29878371  0.69553556  0.57805180  1  0.054868  -0.000222  0.106039  0.117136  -0.000176  1.010067  0.0
H  H58  1  0.79878982  0.69554829  0.92194883  1  0.054651  0.000222  0.106091  0.11721  0.000176  1.010094  0.0
H  H59  1  0.70117277  0.30445848  0.42196647  1  0.054585  0.000222  0.106039  0.117199  0.000176  1.010106  0.0
C  C60  1  0.66845420  0.02592208  0.36246909  1  0.663085  -0.000654  0.089586  0.320173  -0.002202  4.081592  0.001
C  C61  1  0.83154170  0.97408275  0.86246079  1  0.663014  -0.000652  0.08969  0.320243  -0.002201  4.081364  0.001
C  C62  1  0.33155411  0.97408106  0.63753958  1  0.661858  0.000662  0.08974  0.320276  0.002203  4.081425  -0.001
C  C63  1  0.16845471  0.02592657  0.13751861  1  0.663173  0.000654  0.089724  0.320302  0.002203  4.081631  -0.001
C  C64  1  0.51173482  0.02746743  0.35580622  1  0.054954  -0.005953  -0.040176  -0.084036  -0.003895  4.051083  -0.006
C  C65  1  0.98826102  0.97252139  0.85579491  1  0.054921  -0.005951  -0.040315  -0.084168  -0.003894  4.051502  -0.006
C  C66  1  0.48827366  0.97251329  0.64418630  1  0.055655  0.005952  -0.040223  -0.08416  0.003897  4.05129  0.006
C  C67  1  0.01173654  0.02748235  0.14418954  1  0.054968  0.005951  -0.040204  -0.084408  0.003894  4.051486  0.006
C  C68  1  0.38888447  0.94176162  0.39410177  1  -0.10065  0.002092  -0.092935  -0.102297  0.001341  4.024368  0.001
C  C69  1  0.11109515  0.05823517  0.89408803  1  -0.099764  0.002094  -0.092851  -0.102057  0.001343  4.024866  0.001
C  C70  1  0.61112001  0.05820870  0.60589327  1  -0.099819  -0.002092  -0.092819  -0.102093  -0.001342  4.024631  -0.001
C  C71  1  0.88889089  0.94177289  0.10589136  1  -0.099769  -0.002093  -0.092977  -0.102229  -0.001342  4.025017  -0.001
C  C72  1  0.41553074  0.85712867  0.43859917  1  0.018182  0.000789  -0.11914  -0.138368  0.000551  4.074451  0.0
C  C73  1  0.08448190  0.14287118  0.93858712  1  0.018133  0.000789  -0.119071  -0.138461  0.000551  4.07451  0.0
C  C74  1  0.58448995  0.14285524  0.56140042  1  0.018259  -0.000789  -0.119011  -0.138153  -0.000551  4.074169  0.0
C  C75  1  0.91550570  0.85712664  0.06140136  1  0.018065  -0.00079  -0.119062  -0.138247  -0.000552  4.074312  0.0
C  C76  1  0.56829102  0.85408315  0.44443006  1  -0.109437  0.000697  -0.09084  -0.043162  0.000557  4.027439  0.0
C  C77  1  0.93171737  0.14592418  0.94442042  1  -0.109386  0.000702  -0.090922  -0.043043  0.00056  4.027147  0.0
C  C78  1  0.43173587  0.14591404  0.55556953  1  -0.110878  -0.000698  -0.091021  -0.04352  -0.000559  4.027513  0.0
C  C79  1  0.06828265  0.85409739  0.05555998  1  -0.109965  -0.000699  -0.090976  -0.043338  -0.000558  4.027133  0.0
C  C80  1  0.69032707  0.93420674  0.40680299  1  -0.014122  -0.01264  -0.111527  -0.210457  -0.009239  3.958877  -0.011
C  C81  1  0.80967142  0.06580488  0.90679725  1  -0.014176  -0.012639  -0.111591  -0.210631  -0.009238  3.958863  -0.011
C  C82  1  0.30970439  0.06582516  0.59321326  1  0.007982  0.012636  -0.111591  -0.210489  0.009241  3.958719  0.011
C  C83  1  0.19031951  0.93419304  0.09318618  1  -0.014737  0.01264  -0.111571  -0.210305  0.009237  3.95853  0.011
C  C84  1  0.47266278  0.11299192  0.31250034  1  0.523414  0.005619  0.06219  0.064163  0.003524  3.975181  0.004
C  C85  1  0.02734325  0.88700635  0.81249281  1  0.523215  0.005626  0.062239  0.064153  0.003528  3.975451  0.004
C  C86  1  0.52733161  0.88698929  0.68750177  1  0.522823  -0.005626  0.062273  0.064195  -0.003528  3.9752  -0.004
C  C87  1  0.97264958  0.11298510  0.18749568  1  0.525509  -0.005621  0.062179  0.064405  -0.003524  3.97495  -0.004
C  C88  1  0.63764193  0.38329052  0.21762059  1  1.324775  -0.001053  0.219571  0.444336  -0.001699  4.088598  0.001
C  C89  1  0.86234162  0.61672137  0.71761219  1  1.324687  -0.001051  0.219554  0.444271  -0.001695  4.088447  0.001
C  C90  1  0.36233461  0.61669854  0.78238051  1  1.324496  0.001052  0.219611  0.444309  0.001698  4.088818  -0.001
C  C91  1  0.13763575  0.38325557  0.28239194  1  1.324837  0.001049  0.219638  0.444364  0.001694  4.088166  -0.001
C  C92  1  0.59680253  0.47784500  0.17436743  1  0.425948  -0.006746  -0.051046  -0.076225  -0.005102  3.863739  -0.005
C  C93  1  0.90316157  0.52213887  0.67435873  1  0.425454  -0.006748  -0.0509  -0.076255  -0.005105  3.863258  -0.005
C  C94  1  0.40316993  0.52214487  0.82563822  1  0.425438  0.006746  -0.051023  -0.076438  0.005103  3.863808  0.005
C  C95  1  0.09679584  0.47782903  0.32564338  1  0.425204  0.006748  -0.050982  -0.076249  0.005103  3.863203  0.005
C  C96  1  0.39857763  0.47686433  0.09369592  1  0.431101  -0.000321  0.081511  0.267168  -0.000277  4.064688  0.0
C  C97  1  0.10138132  0.52311626  0.59369503  1  0.430602  -0.000321  0.081497  0.26716  -0.000277  4.064772  0.0
C  C98  1  0.60140257  0.52313139  0.90630317  1  0.430561  0.000321  0.081493  0.267291  0.000276  4.064348  0.0
C  C99  1  0.89858901  0.47685953  0.40630911  1  0.430417  0.000321  0.081517  0.26711  0.000277  4.064974  0.0
C  C100  1  0.47250218  0.60246756  0.07675343  1  0.019921  -0.000253  -0.114472  -0.286174  -0.000137  3.97487  0.0
C  C101  1  0.02745854  0.39751516  0.57675274  1  0.019652  -0.000253  -0.114425  -0.286463  -0.000137  3.974702  0.0
C  C102  1  0.52749359  0.39752865  0.92324515  1  0.020241  0.000253  -0.114365  -0.286098  0.000137  3.974434  0.0
C  C103  1  0.97251766  0.60247015  0.42324382  1  0.019959  0.000253  -0.114487  -0.286412  0.000136  3.975167  0.0
C  C104  1  0.40799955  0.65813008  0.02560284  1  -0.002349  2e-06  -0.00671  0.105207  5e-06  4.005281  0.0
C  C105  1  0.09199130  0.34185798  0.52561294  1  -0.001587  2e-06  -0.006564  0.105628  5e-06  4.004882  0.0
C  C106  1  0.59203873  0.34188242  0.97439524  1  -0.001679  -2e-06  -0.006867  0.105036  -5e-06  4.005085  0.0
C  C107  1  0.90801521  0.65813763  0.47438463  1  -0.001505  -2e-06  -0.006605  0.105427  -5e-06  4.004873  0.0
C  C108  1  0.48141804  0.78563136  0.00473578  1  -0.094859  -0.000256  -0.09456  -0.141226  -0.000169  3.964431  0.0
C  C109  1  0.01855897  0.21435041  0.50473993  1  -0.094632  -0.000256  -0.094703  -0.141471  -0.000169  3.964473  0.0
C  C110  1  0.51862537  0.21438877  0.99528097  1  -0.094768  0.000256  -0.094619  -0.141528  0.000169  3.964783  0.0
C  C111  1  0.98145319  0.78563417  0.49525562  1  -0.094853  0.000255  -0.094589  -0.141214  0.000169  3.965028  0.0
C  C112  1  0.41946538  0.83542598  0.95296510  1  0.017105  -0.000169  -0.089732  -0.065458  -0.00019  4.015524  0.0
C  C113  1  0.08052471  0.16456393  0.45297529  1  0.0168  -0.000168  -0.089625  -0.06531  -0.00019  4.015622  0.0
C  C114  1  0.58059680  0.16461156  0.04705166  1  0.016912  0.000169  -0.089456  -0.064535  0.00019  4.015746  0.0
C  C115  1  0.91950558  0.83542496  0.54702279  1  0.017796  0.000168  -0.089552  -0.065202  0.00019  4.015953  0.0
C  C116  1  0.28149723  0.76046860  0.91973323  1  0.000451  -0.000475  -0.100267  -0.086493  -0.000364  4.031539  0.0
C  C117  1  0.21848558  0.23953730  0.41974061  1  0.000182  -0.000476  -0.100421  -0.086693  -0.000365  4.032016  0.0
C  C118  1  0.71855925  0.23958839  0.08028605  1  0.000603  0.000475  -0.10079  -0.087681  0.000364  4.032423  0.0
C  C119  1  0.78155864  0.76047352  0.58026352  1  -0.000859  0.000475  -0.100459  -0.086718  0.000364  4.032025  0.0
C  C120  1  0.20575371  0.63674504  0.93931557  1  -0.157315  0.000109  -0.092514  -0.13448  8.9e-05  3.996838  0.0
C  C121  1  0.29423228  0.36325109  0.43932516  1  -0.157498  0.000109  -0.0926  -0.134804  8.8e-05  3.997158  0.0
C  C122  1  0.79428798  0.36330775  0.06068907  1  -0.156702  -0.000109  -0.092131  -0.133534  -8.9e-05  3.996308  0.0
C  C123  1  0.70577229  0.63675661  0.56068049  1  -0.157312  -0.000109  -0.092476  -0.134508  -8.9e-05  3.997176  0.0
C  C124  1  0.26623919  0.58297334  0.99241087  1  0.011891  -0.000214  -0.017319  0.049444  -0.000139  4.012204  0.0
C  C125  1  0.23373781  0.41702067  0.49242367  1  0.012152  -0.000214  -0.017307  0.049364  -0.000139  4.012385  0.0
C  C126  1  0.73376520  0.41705959  0.00759680  1  0.01063  0.000214  -0.017234  0.049336  0.000139  4.012992  0.0
C  C127  1  0.76625310  0.58298006  0.50758046  1  0.012182  0.000214  -0.017372  0.049268  0.000139  4.011871  0.0
C  C128  1  0.19233051  0.45532723  0.01299269  1  -0.103849  -4.3e-05  -0.089911  -0.117538  -2.3e-05  4.016785  0.0
C  C129  1  0.30764331  0.54466464  0.51300236  1  -0.103606  -4.3e-05  -0.08978  -0.117404  -2.3e-05  4.017154  0.0
C  C130  1  0.80764800  0.54469554  0.98700892  1  -0.103189  4.3e-05  -0.089794  -0.117302  2.3e-05  4.017122  0.0
C  C131  1  0.69233171  0.45532904  0.48700632  1  -0.103854  4.3e-05  -0.089864  -0.117368  2.3e-05  4.016647  0.0
C  C132  1  0.25609947  0.40286742  0.06245468  1  -0.006108  -0.000485  -0.100492  -0.187517  -0.000383  3.995373  0.0
C  C133  1  0.24385565  0.59712061  0.56245996  1  -0.006485  -0.000485  -0.100562  -0.187554  -0.000383  3.99539  0.0
C  C134  1  0.74388030  0.59713576  0.93754239  1  -0.0065  0.000485  -0.100772  -0.187896  0.000384  3.995485  0.0
C  C135  1  0.75610718  0.40286709  0.43754720  1  -0.005816  0.000485  -0.100483  -0.187469  0.000383  3.995355  0.0
N  N136  1  0.57363843  0.20747684  0.28046179  1  -0.814462  -0.077002  -0.284598  -0.138908  -0.05388  3.736537  -0.07
N  N137  1  0.92634575  0.79252178  0.78045763  1  -0.814088  -0.077035  -0.284645  -0.139  -0.053902  3.736761  -0.07
N  N138  1  0.42634108  0.79251139  0.71954133  1  -0.813556  0.077014  -0.284627  -0.138987  0.053886  3.73677  0.07
N  N139  1  0.07362968  0.20746725  0.21953489  1  -0.816419  0.077016  -0.28466  -0.139065  0.053887  3.736613  0.07
N  N140  1  0.52060503  0.28713672  0.24300542  1  -0.772849  0.041399  -0.304035  -0.302036  0.029619  3.549968  0.037
N  N141  1  0.97938263  0.71286098  0.74300503  1  -0.772957  0.041392  -0.304009  -0.301874  0.029614  3.549929  0.037
N  N142  1  0.47936741  0.71285595  0.75699921  1  -0.773148  -0.041389  -0.304075  -0.301857  -0.029614  3.54991  -0.037
N  N143  1  0.02059577  0.28712720  0.25698749  1  -0.773099  -0.041386  -0.304137  -0.302191  -0.02961  3.550198  -0.037
O  O144  1  0.79069218  0.10216252  0.33027552  1  -1.081448  -0.135076  -0.336652  -0.489306  -0.088852  2.361491  -0.121
O  O145  1  0.70930715  0.89781739  0.83027785  1  -1.081709  -0.135043  -0.336617  -0.489241  -0.088829  2.361907  -0.121
O  O146  1  0.20932424  0.89784743  0.66973467  1  -1.081555  0.135036  -0.336702  -0.489295  0.088824  2.361772  0.121
O  O147  1  0.29069193  0.10218173  0.16970054  1  -1.081413  0.135023  -0.336637  -0.489283  0.088819  2.361903  0.121
O  O148  1  0.78255438  0.40076849  0.22823837  1  -1.089377  -0.084087  -0.319226  -0.496605  -0.056177  2.280856  -0.076
O  O149  1  0.71744528  0.59925757  0.72822994  1  -1.089927  -0.084077  -0.31929  -0.496705  -0.056166  2.281094  -0.076
O  O150  1  0.21741608  0.59923907  0.77177940  1  -1.089505  0.084108  -0.319306  -0.496794  0.056186  2.280946  0.076
O  O151  1  0.28254278  0.40072719  0.27177470  1  -1.089391  0.08409  -0.319235  -0.496565  0.056176  2.281012  0.076
O  O152  1  0.45416010  0.41181399  0.13974950  1  -1.085039  -0.003244  -0.175123  -0.205012  -0.00188  2.669844  -0.002
O  O153  1  0.04579558  0.58816927  0.63973309  1  -1.08468  -0.003243  -0.175408  -0.205001  -0.00188  2.669967  -0.002
O  O154  1  0.54582380  0.58818278  0.86025059  1  -1.084696  0.003245  -0.175066  -0.204935  0.00188  2.669723  0.002
O  O155  1  0.95415962  0.41179856  0.36026548  1  -1.084565  0.003244  -0.175192  -0.204966  0.00188  2.670286  0.002
