# generated using pymatgen
data_Cd3H9C17N2O11
_symmetry_space_group_name_H-M   'P 1'
_cell_length_a   9.41867525
_cell_length_b   9.68485478
_cell_length_c   11.03783503
_cell_angle_alpha   76.46065928
_cell_angle_beta   84.90742607
_cell_angle_gamma   68.06966345
_symmetry_Int_Tables_number   1
_chemical_formula_structural   Cd3H9C17N2O11
_chemical_formula_sum   'Cd6 H18 C34 N4 O22'
_cell_volume   908.04006022
_cell_formula_units_Z   2
loop_
 _symmetry_equiv_pos_site_id
 _symmetry_equiv_pos_as_xyz
  1  'x, y, z'
loop_
 _atom_site_type_symbol
 _atom_site_label
 _atom_site_symmetry_multiplicity
 _atom_site_fract_x
 _atom_site_fract_y
 _atom_site_fract_z
 _atom_site_occupancy
 _atom_site_pbe_bader_spin_density
 _atom_site_pbe_cm5_charge
 _atom_site_pbe_ddec_charge
 _atom_site_pbe_ddec_spin_density
 _atom_site_pbe_ddec_sum_bond_order
 _atom_site_pbe_magmom
Cd  Cd0  1  0.48555759  0.88921492  0.71072819  1  0  0.797165  1.024409  0  2.071333  0
Cd  Cd1  1  0.51444343  0.11078425  0.28927251  1  0  0.797163  1.024389  0  2.071332  0
Cd  Cd2  1  0.38167726  0.22376101  0.87813014  1  0  0.801829  1.038553  0  2.118329  0
Cd  Cd3  1  0.61832228  0.77623930  0.12187043  1  0  0.801829  1.038552  0  2.118327  0
Cd  Cd4  1  0.87269696  0.83549654  0.54276524  1  0  0.810513  1.145154  0  2.055115  0
Cd  Cd5  1  0.12730407  0.16450263  0.45723455  1  0  0.810514  1.145167  0  2.055142  0
H  H6  1  0.97086024  0.64326785  0.02976208  1  0  0.103216  0.110448  0  1.015786  0
H  H7  1  0.02913930  0.35673246  0.97023758  1  0  0.103201  0.110433  0  1.015818  0
H  H8  1  0.11558164  0.07432040  0.79204931  1  0  0.105587  0.115939  0  1.022217  0
H  H9  1  0.88441897  0.92567991  0.20795118  1  0  0.105594  0.115952  0  1.022242  0
H  H10  1  0.88781691  0.03977548  0.72888346  1  0  0.106807  0.116168  0  1.008399  0
H  H11  1  0.11218222  0.96022598  0.27111599  1  0  0.106795  0.116154  0  1.008433  0
H  H12  1  0.19869040  0.68122332  0.09346913  1  0  0.107001  0.110846  0  0.991963  0
H  H13  1  0.80130957  0.31877585  0.90652983  1  0  0.107005  0.110851  0  0.992007  0
H  H14  1  0.69673243  0.52120723  0.62287211  1  0  0.104825  0.103924  0  1.009072  0
H  H15  1  0.30326966  0.47879193  0.37712760  1  0  0.104865  0.104003  0  1.00907  0
H  H16  1  0.36990116  0.71332661  0.32330176  1  0  0.109122  0.119326  0  1.005019  0
H  H17  1  0.63009987  0.28667256  0.67669712  1  0  0.109117  0.119326  0  1.005069  0
H  H18  1  0.55122976  0.50818974  0.89981965  1  0  0.127671  0.087132  0  1.00681  0
H  H19  1  0.44876763  0.49181058  0.10018287  1  0  0.127669  0.087153  0  1.006808  0
H  H20  1  0.92942764  0.68153983  0.32369654  1  0  0.285118  0.385673  0  0.961146  0
H  H21  1  0.07057190  0.31846048  0.67630402  1  0  0.285114  0.385655  0  0.96117  0
H  H22  1  0.06568926  0.62242183  0.41922643  1  0  0.306909  0.38564  0  0.920298  0
H  H23  1  0.93430962  0.37757735  0.58077351  1  0  0.3069  0.385618  0  0.920325  0
C  C24  1  0.27921377  0.70418365  0.70166441  1  0  0.070776  -0.002274  0  3.989473  0
C  C25  1  0.72078619  0.29581552  0.29833454  1  0  0.070741  -0.002343  0  3.989563  0
C  C26  1  0.00392318  0.73672512  0.97716049  1  0  -0.083784  -0.092377  0  3.949859  0
C  C27  1  0.99607660  0.26327747  0.02283778  1  0  -0.083821  -0.092474  0  3.949965  0
C  C28  1  0.08424699  0.97958302  0.84316806  1  0  -0.083284  -0.084841  0  3.962301  0
C  C29  1  0.91575444  0.02041501  0.15683284  1  0  -0.083329  -0.084908  0  3.96228  0
C  C30  1  0.57944238  0.76888178  0.44026963  1  0  0.217631  0.609027  0  4.153317  0
C  C31  1  0.42055823  0.23111853  0.55972995  1  0  0.217615  0.609002  0  4.1533  0
C  C32  1  0.95714398  0.95928554  0.80727217  1  0  -0.083064  -0.092584  0  3.956341  0
C  C33  1  0.04285662  0.04071477  0.19272832  1  0  -0.083043  -0.092559  0  3.956367  0
C  C34  1  0.21289943  0.83845812  0.60079342  1  0  0.207519  0.57331  0  4.227316  0
C  C35  1  0.78710226  0.16154218  0.39920518  1  0  0.207524  0.573345  0  4.227283  0
C  C36  1  0.17209085  0.87937397  0.94556099  1  0  -0.016203  -0.038617  0  3.971042  0
C  C37  1  0.82790870  0.12062634  0.05443776  1  0  -0.016221  -0.038661  0  3.971026  0
C  C38  1  0.13111069  0.75777721  0.01278319  1  0  -0.076364  -0.070082  0  3.933837  0
C  C39  1  0.86888845  0.24222424  0.98721536  1  0  -0.076303  -0.069974  0  3.933835  0
C  C40  1  0.91621243  0.83761991  0.87438661  1  0  -0.021396  -0.051425  0  3.998677  0
C  C41  1  0.08378605  0.16238041  0.12561312  1  0  -0.021384  -0.051366  0  3.998616  0
C  C42  1  0.61194018  0.50952954  0.56884393  1  0  -0.083372  -0.089942  0  3.964747  0
C  C43  1  0.38806018  0.49046849  0.43115704  1  0  -0.083428  -0.090083  0  3.964823  0
C  C44  1  0.42682221  0.61948662  0.40007514  1  0  -0.081711  -0.081752  0  3.944388  0
C  C45  1  0.57317923  0.38051141  0.59992485  1  0  -0.081724  -0.08179  0  3.944481  0
C  C46  1  0.53960073  0.62925441  0.46897973  1  0  -0.019512  -0.045534  0  3.96945  0
C  C47  1  0.46040070  0.37074362  0.53102116  1  0  -0.019495  -0.045502  0  3.969449  0
C  C48  1  0.24944301  0.56964030  0.74703174  1  0  0.071851  -0.006157  0  3.980554  0
C  C49  1  0.75055695  0.43035887  0.25296722  1  0  0.071888  -0.006131  0  3.980541  0
C  C50  1  0.30963359  0.90310028  0.98029444  1  0  0.213855  0.590395  0  4.18319  0
C  C51  1  0.69036744  0.09689889  0.01970535  1  0  0.213899  0.590467  0  4.183081  0
C  C52  1  0.13148948  0.51332804  0.72054840  1  0  0.215167  0.585257  0  4.192225  0
C  C53  1  0.86851006  0.48667227  0.27945126  1  0  0.215163  0.585255  0  4.192199  0
C  C54  1  0.45142606  0.55259956  0.84013689  1  0  0.133829  0.180208  0  4.010715  0
C  C55  1  0.54857281  0.44739962  0.15986486  1  0  0.133725  0.180016  0  4.010779  0
C  C56  1  0.77557455  0.82172467  0.83858108  1  0  0.214379  0.602477  0  4.157595  0
C  C57  1  0.22442457  0.17827679  0.16141928  1  0  0.214359  0.60239  0  4.157511  0
N  N58  1  0.40636478  0.69098322  0.76316557  1  0  -0.363775  -0.358271  0  3.542157  0
N  N59  1  0.59363624  0.30901595  0.23683512  1  0  -0.363652  -0.35809  0  3.542109  0
N  N60  1  0.36073165  0.47552322  0.83348113  1  0  -0.362822  -0.361867  0  3.500063  0
N  N61  1  0.63926788  0.52447710  0.16652034  1  0  -0.362828  -0.361801  0  3.500024  0
O  O62  1  0.36458911  0.98804594  0.89715431  1  0  -0.344283  -0.626528  0  2.413469  0
O  O63  1  0.63541192  0.01195323  0.10284547  1  0  -0.344287  -0.626544  0  2.41346  0
O  O64  1  0.63559891  0.79792870  0.52817509  1  0  -0.334471  -0.61338  0  2.367763  0
O  O65  1  0.36440169  0.20207161  0.47182540  1  0  -0.334469  -0.613367  0  2.367797  0
O  O66  1  0.27066695  0.94409343  0.58579575  1  0  -0.327957  -0.578753  0  2.376755  0
O  O67  1  0.72933620  0.05590574  0.41420479  1  0  -0.327922  -0.578727  0  2.37673  0
O  O68  1  0.11077890  0.85015099  0.52882536  1  0  -0.321392  -0.567031  0  2.361319  0
O  O69  1  0.88922170  0.14984932  0.47117512  1  0  -0.321425  -0.567087  0  2.361312  0
O  O70  1  0.36674981  0.83652536  0.08753676  1  0  -0.308363  -0.53178  0  2.28354  0
O  O71  1  0.63324933  0.16347609  0.91246178  1  0  -0.3084  -0.53183  0  2.283486  0
O  O72  1  0.15952455  0.36925181  0.76310083  1  0  -0.321527  -0.562763  0  2.304051  0
O  O73  1  0.84047582  0.63074622  0.23689923  1  0  -0.321521  -0.562758  0  2.30408  0
O  O74  1  0.01000516  0.59755634  0.66065563  1  0  -0.334891  -0.584616  0  2.28828  0
O  O75  1  0.98999544  0.40244397  0.33934486  1  0  -0.334897  -0.584623  0  2.288215  0
O  O76  1  0.73134857  0.87706457  0.72389363  1  0  -0.324482  -0.572548  0  2.394817  0
O  O77  1  0.26865244  0.12293460  0.27610796  1  0  -0.32449  -0.572534  0  2.394776  0
O  O78  1  0.69862295  0.76055911  0.91735400  1  0  -0.320856  -0.564221  0  2.272084  0
O  O79  1  0.30137766  0.23944120  0.08264558  1  0  -0.320827  -0.564163  0  2.2721  0
O  O80  1  0.55332355  0.85319461  0.33047189  1  0  -0.316058  -0.55244  0  2.339458  0
O  O81  1  0.44667640  0.14680456  0.66952888  1  0  -0.316051  -0.552431  0  2.33938  0
O  O82  1  0.98322981  0.71479422  0.38052149  1  0  -0.581185  -0.754059  0  2.086774  0
O  O83  1  0.01677080  0.28520609  0.61947809  1  0  -0.581179  -0.754027  0  2.086821  0
