# generated using pymatgen
data_AgH12C16(NO)3
_symmetry_space_group_name_H-M   'P 1'
_cell_length_a   9.34296722
_cell_length_b   10.93125454
_cell_length_c   14.21952077
_cell_angle_alpha   90.00001354
_cell_angle_beta   100.33233528
_cell_angle_gamma   89.99993842
_symmetry_Int_Tables_number   1
_chemical_formula_structural   AgH12C16(NO)3
_chemical_formula_sum   'Ag4 H48 C64 N12 O12'
_cell_volume   1428.69503514
_cell_formula_units_Z   4
loop_
 _symmetry_equiv_pos_site_id
 _symmetry_equiv_pos_as_xyz
  1  'x, y, z'
loop_
 _atom_site_type_symbol
 _atom_site_label
 _atom_site_symmetry_multiplicity
 _atom_site_fract_x
 _atom_site_fract_y
 _atom_site_fract_z
 _atom_site_occupancy
 _atom_site_hle17_bader_spin_density
 _atom_site_hle17_ddec_charge
 _atom_site_hle17_ddec_spin_density
 _atom_site_hle17_ddec_sum_bond_order
 _atom_site_hle17_magmom
 _atom_site_hse06_10hf_bader_spin_density
 _atom_site_hse06_10hf_ddec_charge
 _atom_site_hse06_10hf_ddec_spin_density
 _atom_site_hse06_10hf_ddec_sum_bond_order
 _atom_site_hse06_10hf_magmom
 _atom_site_hse06_bader_spin_density
 _atom_site_hse06_ddec_charge
 _atom_site_hse06_ddec_spin_density
 _atom_site_hse06_ddec_sum_bond_order
 _atom_site_hse06_magmom
 _atom_site_pbe_bader_spin_density
 _atom_site_pbe_cm5_charge
 _atom_site_pbe_ddec_charge
 _atom_site_pbe_ddec_spin_density
 _atom_site_pbe_ddec_sum_bond_order
 _atom_site_pbe_magmom
Ag  Ag0  1  0.08124307  0.35059299  0.99532708  1  0  0.504653  0  1.466436  0  0  0.364889  0  1.908278  0  0  0.390314  0  1.868397  0  0  0.468936  0.348492  0  1.935085  0
Ag  Ag1  1  0.41876004  0.85059393  0.50467396  1  0  0.504644  0  1.466395  0  0  0.364906  0  1.908236  0  0  0.390332  0  1.868354  0  0  0.468955  0.348506  0  1.935042  0
Ag  Ag2  1  0.91875858  0.64940628  0.00467381  1  0  0.504663  0  1.466411  0  0  0.364906  0  1.908246  0  0  0.390333  0  1.868361  0  0  0.468953  0.348515  0  1.935043  0
Ag  Ag3  1  0.58124271  0.14940535  0.49532636  1  0  0.504656  0  1.466399  0  0  0.364892  0  1.908249  0  0  0.390321  0  1.868363  0  0  0.46895  0.348492  0  1.935066  0
H  H4  1  0.20278742  0.67860369  0.38692761  1  0  0.113516  0  0.957864  0  0  0.122  0  1.021798  0  0  0.125006  0  1.019811  0  0  0.106495  0.1197  0  1.023492  0
H  H5  1  0.29721590  0.17860244  0.11307423  1  0  0.11355  0  0.957835  0  0  0.122012  0  1.021796  0  0  0.125019  0  1.019808  0  0  0.106506  0.119713  0  1.023488  0
H  H6  1  0.79721423  0.32139742  0.61307329  1  0  0.1135  0  0.957864  0  0  0.122003  0  1.021779  0  0  0.12501  0  1.019792  0  0  0.106496  0.119705  0  1.023468  0
H  H7  1  0.70278467  0.82139684  0.88692654  1  0  0.113489  0  0.957897  0  0  0.121992  0  1.021813  0  0  0.124998  0  1.019825  0  0  0.106495  0.119692  0  1.023505  0
H  H8  1  0.05428736  0.86595371  0.38711447  1  0  0.093474  0  0.941244  0  0  0.106584  0  0.995925  0  0  0.108799  0  0.995721  0  0  0.102334  0.105011  0  0.996015  0
H  H9  1  0.44571464  0.36595232  0.11288442  1  0  0.09345  0  0.941264  0  0  0.106523  0  0.996002  0  0  0.108729  0  0.995799  0  0  0.102294  0.104945  0  0.996084  0
H  H10  1  0.94571321  0.13404649  0.61288559  1  0  0.093487  0  0.941235  0  0  0.106618  0  0.995895  0  0  0.108837  0  0.995688  0  0  0.102336  0.105045  0  0.995984  0
H  H11  1  0.55428592  0.63404696  0.88711424  1  0  0.093464  0  0.941282  0  0  0.106574  0  0.995966  0  0  0.108786  0  0.995768  0  0  0.102314  0.105  0  0.996053  0
H  H12  1  0.94761017  0.91903872  0.53213879  1  0  0.092741  0  0.969513  0  0  0.102984  0  1.033432  0  0  0.105274  0  1.032996  0  0  0.101556  0.101197  0  1.033999  0
H  H13  1  0.55238861  0.41903689  0.96786034  1  0  0.0927  0  0.969608  0  0  0.102951  0  1.033515  0  0  0.105237  0  1.033081  0  0  0.101509  0.101162  0  1.034079  0
H  H14  1  0.05238931  0.08096148  0.46786114  1  0  0.092699  0  0.969561  0  0  0.102939  0  1.03349  0  0  0.105229  0  1.033052  0  0  0.101515  0.10115  0  1.034058  0
H  H15  1  0.44761087  0.58096239  0.03213889  1  0  0.092696  0  0.969608  0  0  0.102946  0  1.033523  0  0  0.105231  0  1.033091  0  0  0.101515  0.101158  0  1.034086  0
H  H16  1  0.99673466  0.78753048  0.67457976  1  0  0.106414  0  0.941903  0  0  0.117524  0  1.001682  0  0  0.120696  0  0.999948  0  0  0.107058  0.115309  0  1.002759  0
H  H17  1  0.50326319  0.28752956  0.82541924  1  0  0.106449  0  0.941844  0  0  0.117535  0  1.001653  0  0  0.120707  0  0.99992  0  0  0.10706  0.115317  0  1.002732  0
H  H18  1  0.00326482  0.21246880  0.32542018  1  0  0.106418  0  0.941882  0  0  0.117532  0  1.001657  0  0  0.120704  0  0.999925  0  0  0.10707  0.115317  0  1.002737  0
H  H19  1  0.49673520  0.71247063  0.17457916  1  0  0.106426  0  0.941881  0  0  0.117517  0  1.001678  0  0  0.120688  0  0.999946  0  0  0.10704  0.1153  0  1.002754  0
H  H20  1  0.06705476  0.29644914  0.77524733  1  0  0.073663  0  0.926049  0  0  0.085829  0  0.986637  0  0  0.088077  0  0.984606  0  0  0.114995  0.084025  0  0.988425  0
H  H21  1  0.43294080  0.79644921  0.72475211  1  0  0.073678  0  0.926042  0  0  0.08585  0  0.986622  0  0  0.088099  0  0.98459  0  0  0.115006  0.084064  0  0.988392  0
H  H22  1  0.93294363  0.70355014  0.22475248  1  0  0.073672  0  0.926039  0  0  0.085838  0  0.986625  0  0  0.088086  0  0.984591  0  0  0.114999  0.084027  0  0.988427  0
H  H23  1  0.56705650  0.20355190  0.27524757  1  0  0.073663  0  0.926044  0  0  0.085836  0  0.986634  0  0  0.088085  0  0.984602  0  0  0.114998  0.084058  0  0.988391  0
H  H24  1  0.07112853  0.41249801  0.62572391  1  0  0.105106  0  0.973621  0  0  0.116124  0  1.033261  0  0  0.11792  0  1.035176  0  0  0.103566  0.11499  0  1.031769  0
H  H25  1  0.42887015  0.91249630  0.87427592  1  0  0.105094  0  0.97362  0  0  0.116105  0  1.033273  0  0  0.117902  0  1.035187  0  0  0.103566  0.114975  0  1.031768  0
H  H26  1  0.92887095  0.58750310  0.37427533  1  0  0.10509  0  0.973643  0  0  0.116111  0  1.033277  0  0  0.117908  0  1.03519  0  0  0.103564  0.114976  0  1.031788  0
H  H27  1  0.57112933  0.08750389  0.12572331  1  0  0.105119  0  0.973576  0  0  0.116135  0  1.033222  0  0  0.117931  0  1.035136  0  0  0.103579  0.115002  0  1.031715  0
H  H28  1  0.21713556  0.72698062  0.80063494  1  0  0.100289  0  0.968804  0  0  0.109761  0  1.033327  0  0  0.111988  0  1.03452  0  0  0.103194  0.108162  0  1.032654  0
H  H29  1  0.28286443  0.22698033  0.69936642  1  0  0.10025  0  0.968847  0  0  0.109724  0  1.033369  0  0  0.111952  0  1.034561  0  0  0.103141  0.108127  0  1.032696  0
H  H30  1  0.78286609  0.27301865  0.19936526  1  0  0.100281  0  0.968747  0  0  0.10975  0  1.03328  0  0  0.111977  0  1.034473  0  0  0.103179  0.108151  0  1.032604  0
H  H31  1  0.71713287  0.77301895  0.30063326  1  0  0.100278  0  0.968729  0  0  0.109749  0  1.033263  0  0  0.111977  0  1.034454  0  0  0.103166  0.108154  0  1.032585  0
H  H32  1  0.21601083  0.59538459  0.94345441  1  0  0.084086  0  0.972423  0  0  0.092355  0  1.039656  0  0  0.095012  0  1.036608  0  0  0.11349  0.090214  0  1.042279  0
H  H33  1  0.28398825  0.09538516  0.55654611  1  0  0.08409  0  0.972427  0  0  0.092379  0  1.039631  0  0  0.095036  0  1.036581  0  0  0.113489  0.09024  0  1.042253  0
H  H34  1  0.78399083  0.40461469  0.05654579  1  0  0.084115  0  0.972379  0  0  0.092371  0  1.039631  0  0  0.095028  0  1.036583  0  0  0.113488  0.090228  0  1.042249  0
H  H35  1  0.71600906  0.90461411  0.44345287  1  0  0.084102  0  0.972399  0  0  0.092379  0  1.039628  0  0  0.095036  0  1.03658  0  0  0.113495  0.090237  0  1.042252  0
H  H36  1  0.55707271  0.34836791  0.64928321  1  0  0.093401  0  0.958736  0  0  0.102999  0  1.024249  0  0  0.105639  0  1.020839  0  0  0.116821  0.101011  0  1.026752  0
H  H37  1  0.94292833  0.84836710  0.85071758  1  0  0.093428  0  0.95879  0  0  0.103017  0  1.024313  0  0  0.105656  0  1.020905  0  0  0.116827  0.101027  0  1.026819  0
H  H38  1  0.44292786  0.65163320  0.35071685  1  0  0.0934  0  0.958737  0  0  0.102999  0  1.024246  0  0  0.105639  0  1.020838  0  0  0.116827  0.101008  0  1.02675  0
H  H39  1  0.05707224  0.15163218  0.14928319  1  0  0.093406  0  0.958728  0  0  0.103009  0  1.024232  0  0  0.105648  0  1.020823  0  0  0.116821  0.101018  0  1.026734  0
H  H40  1  0.41829145  0.53703525  0.66461542  1  0  0.105756  0  0.941104  0  0  0.118901  0  0.996045  0  0  0.121505  0  0.995968  0  0  0.107364  0.117031  0  0.996038  0
H  H41  1  0.08170878  0.03703610  0.83538452  1  0  0.105772  0  0.941091  0  0  0.118916  0  0.996031  0  0  0.12152  0  0.995954  0  0  0.107376  0.117048  0  0.996025  0
H  H42  1  0.58170912  0.46296494  0.33538324  1  0  0.105741  0  0.941105  0  0  0.118886  0  0.996049  0  0  0.12149  0  0.995973  0  0  0.107358  0.117016  0  0.99604  0
H  H43  1  0.91829178  0.96296410  0.16461625  1  0  0.105765  0  0.941088  0  0  0.118917  0  0.996024  0  0  0.121522  0  0.995946  0  0  0.107366  0.117047  0  0.996017  0
H  H44  1  0.16444146  0.45899396  0.38523662  1  0  0.111982  0  0.971731  0  0  0.118081  0  1.040565  0  0  0.121049  0  1.040028  0  0  0.104948  0.115901  0  1.041227  0
H  H45  1  0.33556043  0.95899409  0.11476439  1  0  0.112014  0  0.971808  0  0  0.118107  0  1.040621  0  0  0.121074  0  1.04009  0  0  0.10497  0.11593  0  1.041279  0
H  H46  1  0.83556020  0.54100532  0.61476287  1  0  0.111977  0  0.971731  0  0  0.118074  0  1.040561  0  0  0.121042  0  1.040023  0  0  0.104931  0.115891  0  1.041222  0
H  H47  1  0.66444123  0.04100610  0.88523651  1  0  0.111988  0  0.971718  0  0  0.118091  0  1.040542  0  0  0.12106  0  1.040005  0  0  0.104943  0.115912  0  1.041202  0
H  H48  1  0.30678536  0.26953074  0.38335690  1  0  0.088507  0  0.949109  0  0  0.092546  0  1.021649  0  0  0.096403  0  1.016737  0  0  0.113713  0.089548  0  1.02531  0
H  H49  1  0.19321568  0.76953008  0.11664397  1  0  0.088547  0  0.949054  0  0  0.092565  0  1.021646  0  0  0.096421  0  1.016734  0  0  0.113717  0.089567  0  1.025312  0
H  H50  1  0.69321738  0.73046946  0.61664272  1  0  0.088517  0  0.949152  0  0  0.092566  0  1.021686  0  0  0.096424  0  1.016774  0  0  0.113724  0.089567  0  1.025347  0
H  H51  1  0.80678380  0.23047011  0.88335597  1  0  0.0885  0  0.949087  0  0  0.092538  0  1.021654  0  0  0.096395  0  1.016743  0  0  0.113709  0.089541  0  1.025313  0
C  C52  1  0.12995025  0.65872681  0.61387008  1  0  -0.000218  0  3.735497  0  0  0.011695  0  3.968504  0  0  0.010097  0  3.991361  0  0  -0.006014  0.012614  0  3.953337  0
C  C53  1  0.37004983  0.15872466  0.88613128  1  0  -0.000298  0  3.735574  0  0  0.011626  0  3.968581  0  0  0.010024  0  3.991444  0  0  -0.006036  0.012563  0  3.953388  0
C  C54  1  0.87005140  0.34127339  0.38613082  1  0  -0.000308  0  3.735553  0  0  0.011599  0  3.968582  0  0  0.009995  0  3.991449  0  0  -0.006047  0.012547  0  3.953383  0
C  C55  1  0.62994856  0.84127462  0.11386853  1  0  -0.000263  0  3.73554  0  0  0.011656  0  3.968542  0  0  0.010055  0  3.991403  0  0  -0.006009  0.012588  0  3.953364  0
C  C56  1  0.18687748  0.62603336  0.53148392  1  0  0.005145  0  3.735562  0  0  0.013826  0  3.969994  0  0  0.01338  0  3.991163  0  0  -0.007424  0.013898  0  3.95576  0
C  C57  1  0.31312265  0.12603311  0.96851673  1  0  0.005254  0  3.735692  0  0  0.013902  0  3.970116  0  0  0.013458  0  3.991286  0  0  -0.007393  0.013964  0  3.955884  0
C  C58  1  0.81312309  0.37396684  0.46851685  1  0  0.00522  0  3.735698  0  0  0.013881  0  3.970142  0  0  0.013438  0  3.991312  0  0  -0.007387  0.013943  0  3.955904  0
C  C59  1  0.68687683  0.87396708  0.03148251  1  0  0.00518  0  3.735498  0  0  0.013842  0  3.969957  0  0  0.013398  0  3.991126  0  0  -0.007428  0.01391  0  3.955727  0
C  C60  1  0.15949468  0.70311508  0.45079712  1  0  -0.138287  0  3.774771  0  0  -0.150609  0  4.026329  0  0  -0.152046  0  4.042978  0  0  -0.096844  -0.150069  0  4.015624  0
C  C61  1  0.34050535  0.20311286  0.04920292  1  0  -0.138353  0  3.774868  0  0  -0.150652  0  4.026416  0  0  -0.15209  0  4.043061  0  0  -0.096867  -0.150118  0  4.015715  0
C  C62  1  0.84050589  0.29688602  0.54920224  1  0  -0.138299  0  3.77493  0  0  -0.150636  0  4.0265  0  0  -0.152074  0  4.04315  0  0  -0.096879  -0.150099  0  4.015799  0
C  C63  1  0.65949412  0.79688642  0.95079702  1  0  -0.138294  0  3.77482  0  0  -0.15063  0  4.026383  0  0  -0.152067  0  4.04303  0  0  -0.096864  -0.150096  0  4.015684  0
C  C64  1  0.07433589  0.80830982  0.45065454  1  0  -0.061836  0  3.769974  0  0  -0.078659  0  4.025459  0  0  -0.079683  0  4.044769  0  0  -0.092632  -0.077839  0  4.012521  0
C  C65  1  0.42566618  0.30830843  0.04934505  1  0  -0.061797  0  3.770058  0  0  -0.078592  0  4.025526  0  0  -0.079605  0  4.044823  0  0  -0.092595  -0.077762  0  4.012572  0
C  C66  1  0.92566685  0.19169037  0.54934578  1  0  -0.061875  0  3.770008  0  0  -0.078711  0  4.025487  0  0  -0.079741  0  4.044804  0  0  -0.092628  -0.077895  0  4.012556  0
C  C67  1  0.57433330  0.69169085  0.95065418  1  0  -0.061848  0  3.770061  0  0  -0.078669  0  4.025541  0  0  -0.079693  0  4.044848  0  0  -0.092615  -0.077844  0  4.012601  0
C  C68  1  0.01675628  0.83899069  0.53152727  1  0  -0.058603  0  3.754252  0  0  -0.076175  0  4.011041  0  0  -0.077856  0  4.032297  0  0  -0.089554  -0.074892  0  3.99671  0
C  C69  1  0.48324466  0.33899030  0.96847281  1  0  -0.058573  0  3.754398  0  0  -0.076151  0  4.011161  0  0  -0.077828  0  4.032415  0  0  -0.089532  -0.074869  0  3.996823  0
C  C70  1  0.98324537  0.16100859  0.46847433  1  0  -0.058574  0  3.754277  0  0  -0.076153  0  4.011082  0  0  -0.077833  0  4.032337  0  0  -0.089538  -0.074865  0  3.996751  0
C  C71  1  0.51675482  0.66100990  0.03152572  1  0  -0.05853  0  3.754412  0  0  -0.076115  0  4.011186  0  0  -0.07779  0  4.032444  0  0  -0.089521  -0.07483  0  3.996847  0
C  C72  1  0.04587295  0.76541817  0.61261450  1  0  -0.089246  0  3.713184  0  0  -0.111618  0  3.963917  0  0  -0.113429  0  3.984532  0  0  -0.083407  -0.110333  0  3.949762  0
C  C73  1  0.45412591  0.26541594  0.88738602  1  0  -0.08926  0  3.713143  0  0  -0.111607  0  3.963868  0  0  -0.113423  0  3.984498  0  0  -0.083396  -0.110331  0  3.949706  0
C  C74  1  0.95412653  0.23458294  0.38738614  1  0  -0.089182  0  3.713128  0  0  -0.111553  0  3.963862  0  0  -0.113365  0  3.984484  0  0  -0.083385  -0.110275  0  3.949695  0
C  C75  1  0.54587248  0.73458425  0.11261308  1  0  -0.089261  0  3.713192  0  0  -0.11161  0  3.963913  0  0  -0.113424  0  3.984536  0  0  -0.083387  -0.11033  0  3.949756  0
C  C76  1  0.10328553  0.39146749  0.77805389  1  0  0.122464  0  3.726735  0  0  0.090438  0  3.983111  0  0  0.097008  0  4.001616  0  0  0.039237  0.086052  0  3.970803  0
C  C77  1  0.39671209  0.89146668  0.72194511  1  0  0.122356  0  3.726742  0  0  0.090348  0  3.983142  0  0  0.096918  0  4.001648  0  0  0.039206  0.085947  0  3.970838  0
C  C78  1  0.89671395  0.60853270  0.22194605  1  0  0.122437  0  3.726706  0  0  0.090404  0  3.983091  0  0  0.096974  0  4.001596  0  0  0.039227  0.086017  0  3.970798  0
C  C79  1  0.60328630  0.10853351  0.27805400  1  0  0.122456  0  3.726699  0  0  0.090412  0  3.983092  0  0  0.096981  0  4.001599  0  0  0.039229  0.086005  0  3.970782  0
C  C80  1  0.10511809  0.45681496  0.69462419  1  0  -0.16227  0  3.716414  0  0  -0.179871  0  3.962224  0  0  -0.187035  0  3.983625  0  0  -0.086825  -0.175287  0  3.947922  0
C  C81  1  0.39488053  0.95681418  0.80537564  1  0  -0.162202  0  3.716354  0  0  -0.179786  0  3.962141  0  0  -0.186949  0  3.983543  0  0  -0.086794  -0.175197  0  3.947842  0
C  C82  1  0.89488248  0.54318615  0.30537588  1  0  -0.162227  0  3.716366  0  0  -0.17983  0  3.962187  0  0  -0.186994  0  3.983587  0  0  -0.086806  -0.175244  0  3.947885  0
C  C83  1  0.60511786  0.04318601  0.19462346  1  0  -0.162291  0  3.716326  0  0  -0.179901  0  3.962155  0  0  -0.187065  0  3.983558  0  0  -0.086825  -0.175305  0  3.94785  0
C  C84  1  0.14408183  0.58091964  0.70017689  1  0  0.10528  0  3.778754  0  0  0.116876  0  4.008148  0  0  0.121827  0  4.029337  0  0  0.012933  0.1137  0  3.993795  0
C  C85  1  0.35591617  0.08091931  0.79982350  1  0  0.105259  0  3.778781  0  0  0.116844  0  4.008178  0  0  0.121796  0  4.029368  0  0  0.012939  0.113672  0  3.993805  0
C  C86  1  0.85591873  0.41907964  0.29982318  1  0  0.105254  0  3.778724  0  0  0.116855  0  4.008121  0  0  0.121807  0  4.029311  0  0  0.012917  0.11367  0  3.993765  0
C  C87  1  0.64408113  0.91908089  0.20017618  1  0  0.10532  0  3.778763  0  0  0.116926  0  4.008137  0  0  0.121879  0  4.029325  0  0  0.012956  0.113735  0  3.993792  0
C  C88  1  0.18579220  0.63113437  0.79156247  1  0  -0.163302  0  3.711187  0  0  -0.181104  0  3.958142  0  0  -0.189112  0  3.979795  0  0  -0.086114  -0.175963  0  3.943444  0
C  C89  1  0.31420574  0.13113496  0.70843792  1  0  -0.163291  0  3.711157  0  0  -0.181094  0  3.958109  0  0  -0.189101  0  3.979761  0  0  -0.086106  -0.175953  0  3.943409  0
C  C90  1  0.81420945  0.36886400  0.20843843  1  0  -0.16325  0  3.711023  0  0  -0.181044  0  3.957981  0  0  -0.189049  0  3.979632  0  0  -0.086092  -0.175898  0  3.943275  0
C  C91  1  0.68579048  0.86886523  0.29156093  1  0  -0.163284  0  3.711059  0  0  -0.181082  0  3.958027  0  0  -0.189089  0  3.979679  0  0  -0.086108  -0.175938  0  3.943327  0
C  C92  1  0.18465124  0.55849770  0.87161627  1  0  0.126655  0  3.704484  0  0  0.095174  0  3.956291  0  0  0.102752  0  3.973233  0  0  0.040213  0.090288  0  3.944824  0
C  C93  1  0.31534679  0.05849827  0.62838412  1  0  0.126659  0  3.70444  0  0  0.0952  0  3.956264  0  0  0.102775  0  3.973208  0  0  0.040273  0.090313  0  3.944799  0
C  C94  1  0.81535041  0.44150158  0.12838393  1  0  0.126629  0  3.704349  0  0  0.095138  0  3.95619  0  0  0.102714  0  3.973135  0  0  0.040239  0.09026  0  3.944707  0
C  C95  1  0.68465052  0.94150101  0.37161556  1  0  0.126621  0  3.704386  0  0  0.09512  0  3.956218  0  0  0.102695  0  3.973164  0  0  0.040218  0.090236  0  3.944751  0
C  C96  1  0.46705436  0.37433934  0.59299419  1  0  0.108669  0  3.717836  0  0  0.076455  0  3.970703  0  0  0.083582  0  3.989314  0  0  0.03664  0.071221  0  3.958666  0
C  C97  1  0.03294545  0.87433893  0.90700647  1  0  0.108692  0  3.717922  0  0  0.076466  0  3.97081  0  0  0.083592  0  3.989425  0  0  0.036639  0.071233  0  3.958777  0
C  C98  1  0.53294729  0.62566085  0.40700600  1  0  0.108691  0  3.717833  0  0  0.076477  0  3.970694  0  0  0.083604  0  3.989306  0  0  0.036631  0.071248  0  3.958653  0
C  C99  1  0.96705403  0.12566127  0.09299347  1  0  0.108658  0  3.717906  0  0  0.076448  0  3.970759  0  0  0.083575  0  3.989371  0  0  0.036631  0.071221  0  3.958717  0
C  C100  1  0.38836528  0.48034002  0.60116134  1  0  -0.157263  0  3.722511  0  0  -0.174875  0  3.969712  0  0  -0.182378  0  3.991832  0  0  -0.086107  -0.169249  0  3.954039  0
C  C101  1  0.11163549  0.98034045  0.89883946  1  0  -0.157254  0  3.722524  0  0  -0.174873  0  3.969695  0  0  -0.182375  0  3.991816  0  0  -0.086104  -0.169244  0  3.954026  0
C  C102  1  0.61163528  0.51965926  0.39883873  1  0  -0.157247  0  3.722458  0  0  -0.174874  0  3.969651  0  0  -0.182377  0  3.991772  0  0  -0.086107  -0.16925  0  3.953975  0
C  C103  1  0.88836508  0.01965975  0.10116061  1  0  -0.157279  0  3.722525  0  0  -0.174895  0  3.969714  0  0  -0.1824  0  3.991836  0  0  -0.086101  -0.169266  0  3.954037  0
C  C104  1  0.27460803  0.51404983  0.52716410  1  0  0.096863  0  3.769456  0  0  0.10906  0  3.999819  0  0  0.113433  0  4.022134  0  0  0.008839  0.1064  0  3.984262  0
C  C105  1  0.22539223  0.01404967  0.97283725  1  0  0.096766  0  3.769621  0  0  0.109034  0  3.999879  0  0  0.113404  0  4.022204  0  0  0.008805  0.106374  0  3.984328  0
C  C106  1  0.72539253  0.48594945  0.47283596  1  0  0.096902  0  3.769525  0  0  0.10913  0  3.999838  0  0  0.113502  0  4.022156  0  0  0.008884  0.106468  0  3.984281  0
C  C107  1  0.77460834  0.98595053  0.02716352  1  0  0.09688  0  3.769496  0  0  0.109082  0  3.999844  0  0  0.113453  0  4.022171  0  0  0.008838  0.106415  0  3.984299  0
C  C108  1  0.24765021  0.43739074  0.44681602  1  0  -0.148413  0  3.69013  0  0  -0.166739  0  3.937222  0  0  -0.174455  0  3.95935  0  0  -0.082526  -0.161927  0  3.922427  0
C  C109  1  0.25235062  0.93739184  0.05318486  1  0  -0.148423  0  3.690372  0  0  -0.16674  0  3.937434  0  0  -0.174452  0  3.959554  0  0  -0.082521  -0.161938  0  3.922657  0
C  C110  1  0.75235036  0.56260854  0.55318334  1  0  -0.148507  0  3.69025  0  0  -0.166814  0  3.937319  0  0  -0.174532  0  3.959454  0  0  -0.082545  -0.161996  0  3.92252  0
C  C111  1  0.74765104  0.06260835  0.94681604  1  0  -0.148444  0  3.690231  0  0  -0.16676  0  3.93733  0  0  -0.174472  0  3.959449  0  0  -0.082511  -0.161955  0  3.922549  0
C  C112  1  0.32912472  0.33156753  0.44431976  1  0  0.123224  0  3.689761  0  0  0.093565  0  3.938584  0  0  0.100726  0  3.955922  0  0  0.041453  0.088524  0  3.927334  0
C  C113  1  0.17087623  0.83156871  0.05568111  1  0  0.123198  0  3.689798  0  0  0.093518  0  3.938641  0  0  0.100681  0  3.955978  0  0  0.041412  0.088477  0  3.927397  0
C  C114  1  0.67087584  0.66843266  0.55568030  1  0  0.123246  0  3.689802  0  0  0.093547  0  3.938655  0  0  0.100709  0  3.95599  0  0  0.041425  0.088503  0  3.927406  0
C  C115  1  0.82912542  0.16843240  0.94431979  1  0  0.123262  0  3.689775  0  0  0.093571  0  3.93862  0  0  0.100733  0  3.955956  0  0  0.041449  0.088533  0  3.927367  0
N  N116  1  0.14210569  0.44071618  0.86576608  1  0  -0.304982  0  3.308611  0  0  -0.225185  0  3.585747  0  0  -0.243114  0  3.603062  0  0  -0.343379  -0.213452  0  3.574073  0
N  N117  1  0.35789295  0.94071721  0.63423446  1  0  -0.304859  0  3.308573  0  0  -0.225155  0  3.585783  0  0  -0.243085  0  3.603101  0  0  -0.343419  -0.213429  0  3.574127  0
N  N118  1  0.85789488  0.55928310  0.13423399  1  0  -0.304972  0  3.308578  0  0  -0.225156  0  3.585705  0  0  -0.243086  0  3.603022  0  0  -0.343399  -0.213426  0  3.574032  0
N  N119  1  0.64210543  0.05928390  0.36576606  1  0  -0.304963  0  3.308565  0  0  -0.225144  0  3.585691  0  0  -0.243073  0  3.603007  0  0  -0.343396  -0.213421  0  3.574042  0
N  N120  1  0.43776467  0.29990416  0.51622061  1  0  -0.308753  0  3.357017  0  0  -0.223766  0  3.640177  0  0  -0.242887  0  3.657566  0  0  -0.350801  -0.210665  0  3.628093  0
N  N121  1  0.06223524  0.79990465  0.98378075  1  0  -0.308787  0  3.357077  0  0  -0.223773  0  3.640237  0  0  -0.242894  0  3.657626  0  0  -0.350771  -0.210674  0  3.628161  0
N  N122  1  0.56223698  0.70009512  0.48378029  1  0  -0.308772  0  3.357062  0  0  -0.223762  0  3.640221  0  0  -0.242882  0  3.65761  0  0  -0.350794  -0.210666  0  3.628141  0
N  N123  1  0.93776424  0.20009554  0.01621989  1  0  -0.308778  0  3.357136  0  0  -0.223774  0  3.640301  0  0  -0.242894  0  3.65769  0  0  -0.350799  -0.210679  0  3.628221  0
N  N124  1  0.21434120  0.49953729  0.17739674  1  0  0.686025  0  4.158776  0  0  0.717713  0  4.449992  0  0  0.745747  0  4.457106  0  0  0.089537  0.698853  0  4.444339  0
N  N125  1  0.28566064  0.99953661  0.32260287  1  0  0.685807  0  4.159205  0  0  0.717633  0  4.450277  0  0  0.745662  0  4.457397  0  0  0.089489  0.698776  0  4.444622  0
N  N126  1  0.78566046  0.50046291  0.82260275  1  0  0.68582  0  4.159047  0  0  0.717663  0  4.450094  0  0  0.745696  0  4.45721  0  0  0.089517  0.698799  0  4.444448  0
N  N127  1  0.71433993  0.00046267  0.67739720  1  0  0.685824  0  4.15908  0  0  0.717667  0  4.450123  0  0  0.745701  0  4.45724  0  0  0.089498  0.698799  0  4.444477  0
O  O128  1  0.19253452  0.52341377  0.08687368  1  0  -0.523652  0  1.868165  0  0  -0.497661  0  2.138484  0  0  -0.516718  0  2.127544  0  0  -0.224465  -0.484129  0  2.145798  0
O  O129  1  0.30746682  0.02341444  0.41312578  1  0  -0.523532  0  1.86826  0  0  -0.497571  0  2.13853  0  0  -0.516626  0  2.127591  0  0  -0.224407  -0.484046  0  2.145846  0
O  O130  1  0.80746604  0.47658551  0.91312568  1  0  -0.523556  0  1.868194  0  0  -0.497629  0  2.138489  0  0  -0.516687  0  2.127549  0  0  -0.224449  -0.484099  0  2.145799  0
O  O131  1  0.69253375  0.97658484  0.58687429  1  0  -0.523557  0  1.868152  0  0  -0.497629  0  2.138426  0  0  -0.516688  0  2.127488  0  0  -0.224433  -0.484093  0  2.14574  0
O  O132  1  0.18579597  0.39433712  0.20524317  1  0  -0.46285  0  1.71465  0  0  -0.44978  0  1.923356  0  0  -0.463718  0  1.918291  0  0  -0.196912  -0.439644  0  1.926476  0
O  O133  1  0.31420600  0.89433549  0.29475714  1  0  -0.462804  0  1.714742  0  0  -0.449805  0  1.923443  0  0  -0.463743  0  1.918381  0  0  -0.19691  -0.439644  0  1.926525  0
O  O134  1  0.81420677  0.60566399  0.79475786  1  0  -0.462775  0  1.714707  0  0  -0.449788  0  1.923385  0  0  -0.463727  0  1.918321  0  0  -0.196908  -0.439632  0  1.926473  0
O  O135  1  0.68579457  0.10566379  0.70524293  1  0  -0.46278  0  1.71474  0  0  -0.449766  0  1.923417  0  0  -0.463706  0  1.918356  0  0  -0.196888  -0.43961  0  1.92652  0
O  O136  1  0.26372691  0.58333918  0.23513161  1  0  -0.46826  0  1.730283  0  0  -0.459334  0  1.941189  0  0  -0.473796  0  1.935534  0  0  -0.200313  -0.448695  0  1.944464  0
O  O137  1  0.23627327  0.08333803  0.26486772  1  0  -0.468175  0  1.730447  0  0  -0.459342  0  1.941347  0  0  -0.473804  0  1.935694  0  0  -0.200326  -0.44871  0  1.944618  0
O  O138  1  0.73627475  0.41666193  0.76486718  1  0  -0.468211  0  1.730404  0  0  -0.459333  0  1.941285  0  0  -0.473793  0  1.935632  0  0  -0.200325  -0.4487  0  1.944562  0
O  O139  1  0.76372621  0.91666216  0.73513222  1  0  -0.46821  0  1.730444  0  0  -0.459354  0  1.941331  0  0  -0.473815  0  1.93568  0  0  -0.200325  -0.448715  0  1.944612  0
