# generated using pymatgen
data_Al6H70C85O28
_symmetry_space_group_name_H-M   'P 1'
_cell_length_a   12.95931261
_cell_length_b   12.72868618
_cell_length_c   28.42471726
_cell_angle_alpha   90.01278436
_cell_angle_beta   89.64038844
_cell_angle_gamma   119.59147214
_symmetry_Int_Tables_number   1
_chemical_formula_structural   Al6H70C85O28
_chemical_formula_sum   'Al6 H70 C85 O28'
_cell_volume   4077.12979403
_cell_formula_units_Z   1
loop_
 _symmetry_equiv_pos_site_id
 _symmetry_equiv_pos_as_xyz
  1  'x, y, z'
loop_
 _atom_site_type_symbol
 _atom_site_label
 _atom_site_symmetry_multiplicity
 _atom_site_fract_x
 _atom_site_fract_y
 _atom_site_fract_z
 _atom_site_occupancy
 _atom_site_pbe_bader_charge
 _atom_site_pbe_bader_spin_density
 _atom_site_pbe_cm5_charge
 _atom_site_pbe_ddec_charge
 _atom_site_pbe_ddec_spin_density
 _atom_site_pbe_ddec_sum_bond_order
 _atom_site_pbe_magmom
Al  Al0  1  0.58706084  0.18035326  0.50062919  1  2.487337  0  0.397451  1.685503  0  2.552095  0
Al  Al1  1  0.34499615  0.92507716  0.50012457  1  2.475412  0  0.505416  1.659156  0  2.51627  0
Al  Al2  1  0.57506873  0.92250169  0.50132881  1  2.482359  0  0.507428  1.657408  0  2.514208  0
Al  Al3  1  0.08175948  0.15170619  0.99808355  1  2.494576  0  0.3979  1.682461  0  2.556802  0
Al  Al4  1  0.08662877  0.40687706  0.00018461  1  2.479468  0  0.507533  1.661576  0  2.510175  0
Al  Al5  1  0.31993077  0.41028025  0.99923127  1  2.474133  0  0.506824  1.660514  0  2.511646  0
H  H6  1  0.23620642  0.77170894  0.21658100  1  0.054071  0  0.104386  0.094692  0  0.988945  0
H  H7  1  0.89650307  0.03181279  0.29256086  1  0.039582  0  0.09598  0.096233  0  0.9767  0
H  H8  1  0.93229079  0.05937970  0.21130806  1  0.06241  0  0.096676  0.096498  0  0.976996  0
H  H9  1  0.03446953  0.21350346  0.22066877  1  0.031449  0  0.08927  0.081247  0  1.004054  0
H  H10  1  0.77530429  0.29140127  0.29181784  1  0.047778  0  0.095261  0.095222  0  0.979194  0
H  H11  1  0.92631899  0.33960673  0.30175555  1  0.031695  0  0.093822  0.090971  0  0.983615  0
H  H12  1  0.81346965  0.32093399  0.21068528  1  0.027166  0  0.095048  0.095025  0  0.976735  0
H  H13  1  0.63006523  0.07007826  0.27826300  1  0.021686  0  0.091353  0.084664  0  1.012163  0
H  H14  1  0.66624380  0.09891164  0.19722784  1  0.037812  0  0.094635  0.09479  0  0.980926  0
H  H15  1  0.96421083  0.36760271  0.22060049  1  0.025502  0  0.092008  0.088914  0  0.990783  0
H  H16  1  0.52169119  0.24404186  0.20453051  1  0.036804  0  0.09509  0.09421  0  0.97827  0
H  H17  1  0.12911352  0.58883492  0.28603466  1  0.081046  0  0.105823  0.097463  0  0.986124  0
H  H18  1  0.52499851  0.20593510  0.28513954  1  0.022735  0  0.095094  0.093667  0  0.984065  0
H  H19  1  0.28795299  0.28949887  0.30393430  1  0.045486  0  0.09389  0.091957  0  0.983006  0
H  H20  1  0.44252905  0.34728864  0.29855441  1  0.022604  0  0.095451  0.093421  0  0.980477  0
H  H21  1  0.42870589  0.37672658  0.21784181  1  0.016426  0  0.095413  0.094988  0  0.975929  0
H  H22  1  0.27305253  0.30959052  0.22263449  1  0.01295  0  0.089329  0.081071  0  1.010967  0
H  H23  1  0.20460587  0.96575491  0.28335005  1  0.034979  0  0.094179  0.093009  0  0.979792  0
H  H24  1  0.14729219  0.06440859  0.29209091  1  0.037  0  0.094658  0.095608  0  0.981666  0
H  H25  1  0.20645775  0.99261333  0.20153486  1  0.015304  0  0.094161  0.091398  0  0.981206  0
H  H26  1  0.42663015  0.05049291  0.27623082  1  0.043799  0  0.090246  0.082099  0  1.007964  0
H  H27  1  0.43075240  0.08731899  0.19535485  1  0.037652  0  0.094467  0.092395  0  0.981508  0
H  H28  1  0.45142073  0.87644161  0.26760048  1  0.094884  0  0.100808  0.090311  0  1.021229  0
H  H29  1  0.14176825  0.08458584  0.21028807  1  0.038283  0  0.094045  0.093403  0  0.9976  0
H  H30  1  0.50140593  0.74745881  0.79261185  1  0.017992  0  0.097127  0.098221  0  0.97276  0
H  H31  1  0.51255977  0.80219199  0.71305723  1  0.042901  0  0.096733  0.095429  0  0.984604  0
H  H32  1  0.26622047  0.48214522  0.69609250  1  0.054441  0  0.094666  0.093112  0  0.98905  0
H  H33  1  0.42027626  0.57288377  0.70566882  1  0.035401  0  0.096919  0.09742  0  0.972871  0
H  H34  1  0.38168171  0.52033544  0.78554155  1  0.034378  0  0.095813  0.093979  0  0.987158  0
H  H35  1  0.22702994  0.45205666  0.77689354  1  0.041  0  0.091921  0.08573  0  1.027443  0
H  H36  1  0.19575549  0.73353429  0.70969353  1  0.04117  0  0.096642  0.097899  0  0.981828  0
H  H37  1  0.13343071  0.57519322  0.70698779  1  0.045812  0  0.094578  0.09448  0  0.98608  0
H  H38  1  0.20704442  0.73310708  0.79201713  1  0.03415  0  0.096981  0.099502  0  0.97199  0
H  H39  1  0.52475190  0.73272778  0.21699601  1  0.061877  0  0.105196  0.095978  0  0.985914  0
H  H40  1  0.41692215  0.86192497  0.72238851  1  0.049126  0  0.093716  0.091867  0  1.012106  0
H  H41  1  0.43066413  0.83366625  0.80297470  1  0.034368  0  0.096048  0.096198  0  0.980804  0
H  H42  1  0.12016096  0.57452847  0.78951415  1  0.042361  0  0.094476  0.092392  0  0.99985  0
H  H43  1  0.79407116  0.30988943  0.78761828  1  0.007724  0  0.096  0.09838  0  0.976111  0
H  H44  1  0.74326850  0.26857268  0.70898254  1  0.052066  0  0.098746  0.066941  0  0.955761  0
H  H45  1  0.02345631  0.26977755  0.68863161  1  0.031965  0  0.094376  0.093482  0  0.988013  0
H  H46  1  0.95422417  0.35847275  0.69598966  1  0.047159  0  0.095328  0.092417  0  0.987459  0
H  H47  1  0.01214149  0.38187228  0.77504273  1  0.054336  0  0.092014  0.08812  0  1.009486  0
H  H48  1  0.06009256  0.27449336  0.76935782  1  0.035069  0  0.091697  0.08844  0  1.019645  0
H  H49  1  0.75365901  0.97202437  0.71315456  1  0.036812  0  0.094004  0.093498  0  0.991808  0
H  H50  1  0.41749916  0.54963129  0.28636833  1  0.073191  0  0.105628  0.099445  0  0.990439  0
H  H51  1  0.90882425  0.04888643  0.70693922  1  0.031498  0  0.093941  0.092149  0  0.983798  0
H  H52  1  0.76522102  0.00404144  0.79498736  1  0.050221  0  0.095096  0.095252  0  0.977391  0
H  H53  1  0.69502016  0.15689050  0.80128669  1  0.02726  0  0.095127  0.097997  0  0.984859  0
H  H54  1  0.91771711  0.05210554  0.78955238  1  0.03478  0  0.096286  0.096831  0  0.983046  0
H  H55  1  0.22329091  0.99162313  0.80049791  1  0.074843  0  0.098572  0.100272  0  0.972653  0
H  H56  1  0.20843988  0.96657245  0.71858934  1  0.027897  0  0.094869  0.093902  0  0.977538  0
H  H57  1  0.25099529  0.27400668  0.69853461  1  0.032186  0  0.092988  0.090413  0  0.992321  0
H  H58  1  0.14383759  0.11926345  0.70319863  1  0.046376  0  0.093662  0.090916  0  0.988874  0
H  H59  1  0.14270199  0.13342128  0.78556071  1  0.035992  0  0.095877  0.094747  0  0.985154  0
H  H60  1  0.20222799  0.44489712  0.23543547  1  0.085311  0  0.09935  0.086001  0  1.013334  0
H  H61  1  0.24041936  0.29022616  0.78028592  1  0.034532  0  0.091218  0.084146  0  1.029646  0
H  H62  1  0.51722996  0.23753550  0.70779030  1  0.036739  0  0.095736  0.098842  0  0.999474  0
H  H63  1  0.46714512  0.34137911  0.69848575  1  0.05934  0  0.097459  0.098706  0  0.973348  0
H  H64  1  0.51967655  0.27067087  0.78916765  1  0.035365  0  0.094256  0.093858  0  0.982028  0
H  H65  1  0.35979592  0.00774960  0.71684111  1  0.028716  0  0.090783  0.085786  0  1.021825  0
H  H66  1  0.37794618  0.04719749  0.79786339  1  0.048644  0  0.09194  0.088375  0  0.989269  0
H  H67  1  0.46477538  0.37095692  0.77980944  1  0.016352  0  0.093156  0.091673  0  0.986409  0
H  H68  1  0.71525936  0.99187890  0.19705914  1  0.057304  0  0.094987  0.09245  0  0.982377  0
H  H69  1  0.67960084  0.96333153  0.27825883  1  0.023483  0  0.094255  0.091686  0  0.984448  0
H  H70  1  0.99823665  0.18625451  0.30185737  1  0.044226  0  0.093189  0.091206  0  0.983022  0
H  H71  1  0.58616206  0.06286914  0.68423649  1  0.046887  0  0.092133  0.128857  0  1.002931  0
H  H72  1  0.60603346  0.00163331  0.73754587  1  -0.003829  0  0.087177  0.11467  0  1.044147  0
H  H73  1  0.54991654  0.10269518  0.73959037  1  0.003881  0  0.085814  0.111688  0  1.044617  0
H  H74  1  0.66103824  0.37805968  0.47313644  1  0.555453  0  0.291566  0.381963  0  0.924614  0
H  H75  1  0.97117468  0.95293043  0.02563148  1  0.581283  0  0.292488  0.382525  0  0.92373  0
C  C76  1  0.37937791  0.09620647  0.43306532  1  1.680231  0  0.277047  0.722981  0  4.155588  0
C  C77  1  0.36612159  0.72797047  0.39015390  1  -0.081496  0  -0.041497  -0.203878  0  3.959289  0
C  C78  1  0.25782083  0.54109345  0.24308134  1  -0.03935  0  -0.06565  -0.070159  0  3.618115  0
C  C79  1  0.31745109  0.64260604  0.20348072  1  0.119028  0  0.010487  0.116797  0  3.783175  0
C  C80  1  0.37729007  0.59897302  0.27055189  1  -0.020011  0  -0.067683  -0.076079  0  3.618294  0
C  C81  1  0.33656669  0.67892715  0.29951983  1  0.085206  0  0.009867  0.116966  0  3.78348  0
C  C82  1  0.43690494  0.70078112  0.23263603  1  -0.021595  0  -0.067983  -0.078328  0  3.627284  0
C  C83  1  0.39591219  0.78038340  0.25993335  1  -0.049217  0  -0.066173  -0.070603  0  3.613769  0
C  C84  1  0.30536013  0.61947563  0.15452292  1  -0.284217  0  -0.017254  -0.023681  0  4.058228  0
C  C85  1  0.35078072  0.70303877  0.34839017  1  -0.151502  0  -0.015024  -0.021449  0  4.05336  0
C  C86  1  0.70389154  0.05579128  0.26771151  1  -0.004957  0  -0.153721  -0.189194  0  3.849194  0
C  C87  1  0.39252728  0.77956556  0.43644920  1  1.641702  0  0.282759  0.719898  0  4.154718  0
C  C88  1  0.91937435  0.12370893  0.28175803  1  -0.026777  0  -0.154013  -0.191253  0  3.856113  0
C  C89  1  0.94311921  0.14189686  0.22815119  1  -0.073691  0  -0.153311  -0.186763  0  3.847244  0
C  C90  1  0.90343949  0.20898097  0.11295653  1  0.009478  0  -0.049778  -0.219011  0  3.974942  0
C  C91  1  0.81578649  0.14553734  0.29547614  1  0.124423  0  0.000944  0.17181  0  3.898681  0
C  C92  1  0.72768245  0.07471837  0.21416567  1  -0.071498  0  -0.151865  -0.184611  0  3.844405  0
C  C93  1  0.85644248  0.17716280  0.20488390  1  0.154733  0  0.001502  0.170542  0  3.898894  0
C  C94  1  0.87324857  0.29488699  0.22786977  1  -0.010217  0  -0.154417  -0.188868  0  3.852668  0
C  C95  1  0.84854809  0.27601947  0.28137615  1  -0.052377  0  -0.153552  -0.187244  0  3.848503  0
C  C96  1  0.88024751  0.19409812  0.15474605  1  -0.285407  0  -0.016494  -0.027829  0  4.022544  0
C  C97  1  0.78914621  0.12669437  0.34538712  1  -0.490602  0  -0.017795  -0.029974  0  4.023003  0
C  C98  1  0.70900563  0.09253470  0.43302595  1  1.662677  0  0.276381  0.720371  0  4.155075  0
C  C99  1  0.76099401  0.11154383  0.38673273  1  0.210032  0  -0.049782  -0.217152  0  3.974208  0
C  C100  1  0.43982166  0.14127871  0.26930869  1  -0.043995  0  -0.152854  -0.186249  0  3.844897  0
C  C101  1  0.35617957  0.27951301  0.28450257  1  -0.029487  0  -0.153779  -0.193131  0  3.86126  0
C  C102  1  0.34866165  0.29659688  0.23102179  1  0.001575  0  -0.153391  -0.186372  0  3.85283  0
C  C103  1  0.31708336  0.21733206  0.11249103  1  0.165667  0  -0.049547  -0.217786  0  3.977884  0
C  C104  1  0.33907731  0.15231213  0.29461400  1  0.158857  0  0.000913  0.170892  0  3.898344  0
C  C105  1  0.43894448  0.16417190  0.21590759  1  -0.029841  0  -0.153114  -0.187708  0  3.852889  0
C  C106  1  0.33345477  0.18401482  0.20399233  1  0.147617  0  0.000748  0.169569  0  3.903285  0
C  C107  1  0.21663369  0.07227253  0.22060214  1  -0.003391  0  -0.154045  -0.1871  0  3.843677  0
C  C108  1  0.21845534  0.05584003  0.27442762  1  -0.03488  0  -0.154513  -0.188062  0  3.849037  0
C  C109  1  0.37782382  0.09901872  0.56593343  1  1.688236  0  0.278368  0.717539  0  4.160748  0
C  C110  1  0.32810743  0.20247643  0.15397228  1  -0.45049  0  -0.018318  -0.029383  0  4.026557  0
C  C111  1  0.34546661  0.13507953  0.34465686  1  -0.571397  0  -0.016228  -0.026615  0  4.025426  0
C  C112  1  0.35454926  0.12020287  0.38630918  1  0.254921  0  -0.050111  -0.219093  0  3.980082  0
C  C113  1  0.42761514  0.78298139  0.72902986  1  -0.04796  0  -0.153783  -0.193283  0  3.846183  0
C  C114  1  0.33279443  0.55901085  0.71641981  1  -0.064686  0  -0.15179  -0.18639  0  3.84282  0
C  C115  1  0.31189377  0.53408854  0.76993791  1  -0.016102  0  -0.153184  -0.189082  0  3.832233  0
C  C116  1  0.29158148  0.59942750  0.88784252  1  0.266617  0  -0.047411  -0.224835  0  3.951761  0
C  C117  1  0.32554629  0.67330193  0.70367254  1  0.146124  0  0.002414  0.167101  0  3.895186  0
C  C118  1  0.42549927  0.75820705  0.78236685  1  -0.004081  0  -0.152583  -0.191738  0  3.85318  0
C  C119  1  0.30960957  0.64105812  0.79527006  1  0.121523  0  0.003013  0.168565  0  3.88892  0
C  C120  1  0.38524134  0.78129452  0.56617002  1  1.641751  0  0.284409  0.730755  0  4.139357  0
C  C121  1  0.20297899  0.65185439  0.77670457  1  -0.062219  0  -0.152794  -0.188577  0  3.84084  0
C  C122  1  0.20614332  0.65774396  0.72227921  1  -0.003463  0  -0.152073  -0.186871  0  3.837473  0
C  C123  1  0.30032286  0.62015105  0.84576839  1  -0.538744  0  -0.002261  0.000408  0  3.97709  0
C  C124  1  0.33954704  0.69769902  0.65340323  1  0.127542  0  -0.003583  -0.000763  0  3.978463  0
C  C125  1  0.35679372  0.72614328  0.61202198  1  -0.394885  0  -0.047781  -0.225367  0  3.953377  0
C  C126  1  0.73834199  0.18877634  0.72625124  1  -0.010577  0  -0.078114  0.03769  0  3.787994  0
C  C127  1  0.95618133  0.27847097  0.70933495  1  -0.043177  0  -0.153488  -0.190879  0  3.861694  0
C  C128  1  0.98594097  0.29064604  0.76237206  1  -0.061342  0  -0.154381  -0.188182  0  3.838842  0
C  C129  1  0.92112096  0.22564464  0.88320772  1  0.283213  0  -0.048472  -0.218877  0  3.973114  0
C  C130  1  0.83323613  0.16595510  0.70103126  1  0.15524  0  0.003326  0.135459  0  3.869949  0
C  C131  1  0.71546874  0.09689051  0.56573367  1  1.668884  0  0.280542  0.716  0  4.157286  0
C  C132  1  0.77117617  0.21679182  0.77889182  1  0.003122  0  -0.152755  -0.228629  0  3.829588  0
C  C133  1  0.87692276  0.19828048  0.79127293  1  0.145229  0  0.000379  0.172393  0  3.908078  0
C  C134  1  0.84739822  0.06902619  0.77680171  1  -0.028458  0  -0.153044  -0.18816  0  3.848901  0
C  C135  1  0.83459066  0.05515473  0.72290585  1  -0.050379  0  -0.154909  -0.186021  0  3.857071  0
C  C136  1  0.90126681  0.21525250  0.84124411  1  -0.549233  0  -0.015302  -0.022658  0  4.014336  0
C  C137  1  0.80558028  0.14657590  0.65131811  1  -0.214276  0  -0.011066  -0.011847  0  4.008633  0
C  C138  1  0.77378033  0.12573982  0.61059943  1  -0.093986  0  -0.046741  -0.220576  0  3.964269  0
C  C139  1  0.29760652  0.03725452  0.72892153  1  -0.020682  0  -0.154489  -0.191106  0  3.848357  0
C  C140  1  0.23035290  0.18910654  0.71631787  1  -0.061094  0  -0.153523  -0.187164  0  3.848205  0
C  C141  1  0.22806912  0.20147876  0.77043252  1  -0.010199  0  -0.153614  -0.187882  0  3.833981  0
C  C142  1  0.21698322  0.62075311  0.27044069  1  -0.023585  0  -0.06817  -0.080298  0  3.629206  0
C  C143  1  0.31907754  0.21997541  0.88559278  1  0.301493  0  -0.047915  -0.218497  0  3.973803  0
C  C144  1  0.32595949  0.15550077  0.70259926  1  0.167619  0  0.001357  0.170367  0  3.898843  0
C  C145  1  0.30557730  0.05749952  0.78268472  1  -0.08753  0  -0.153736  -0.189835  0  3.854909  0
C  C146  1  0.32824205  0.18628140  0.79355179  1  0.145786  0  0.001097  0.168343  0  3.90245  0
C  C147  1  0.44887142  0.27969726  0.77180041  1  -0.029983  0  -0.154151  -0.18714  0  3.855557  0
C  C148  1  0.44855044  0.25961974  0.71821714  1  -0.040937  0  -0.154376  -0.190736  0  3.837957  0
C  C149  1  0.32569689  0.20421965  0.84378070  1  -0.602091  0  -0.013275  -0.020035  0  4.014766  0
C  C150  1  0.32942925  0.13668296  0.65250495  1  0.133823  0  -0.015116  -0.022998  0  4.018487  0
C  C151  1  0.34268262  0.12098173  0.61126237  1  -0.468216  0  -0.049293  -0.219494  0  3.977086  0
C  C152  1  0.95202377  0.23250969  0.06600784  1  1.651197  0  0.277524  0.723028  0  4.154262  0
C  C153  1  0.27653040  0.72245859  0.23244193  1  0.001106  0  -0.067735  -0.076308  0  3.628613  0
C  C154  1  0.27097661  0.54766856  0.06576873  1  1.678189  0  0.28368  0.722883  0  4.150946  0
C  C155  1  0.28644752  0.23753508  0.06611654  1  1.661297  0  0.276686  0.72144  0  4.157289  0
C  C156  1  0.96270490  0.23988556  0.93084233  1  1.636564  0  0.278732  0.719531  0  4.158215  0
C  C157  1  0.26930287  0.55160939  0.93491513  1  1.658718  0  0.285245  0.731131  0  4.139629  0
C  C158  1  0.29201598  0.24142666  0.93250979  1  1.685411  0  0.280621  0.716548  0  4.161069  0
C  C159  1  0.29422738  0.59637241  0.11257030  1  -0.01595  0  -0.040526  -0.203467  0  3.96055  0
C  C160  1  0.61305281  0.08292426  0.72118212  1  -0.036117  0  -0.247479  -0.408677  0  3.960964  0
O  O161  1  0.67979500  0.16839834  0.44698275  1  -1.210834  0  -0.21056  -0.562178  0  2.293549  0
O  O162  1  0.31209042  0.81053349  0.54867275  1  -1.248715  0  -0.226156  -0.58821  0  2.244179  0
O  O163  1  0.48362289  0.80265570  0.54729207  1  -1.242845  0  -0.226772  -0.589229  0  2.243516  0
O  O164  1  0.68639415  0.99168785  0.54879089  1  -1.254228  0  -0.242619  -0.607593  0  2.232482  0
O  O165  1  0.50125607  0.00728979  0.50040583  1  -1.610916  0  -0.391473  -1.27391  0  2.298289  0
O  O166  1  0.18537720  0.16117622  0.05110967  1  -1.221654  0  -0.210692  -0.562747  0  2.293343  0
O  O167  1  0.97453987  0.15558463  0.04778608  1  -1.221852  0  -0.211507  -0.568507  0  2.292042  0
O  O168  1  0.97340530  0.33382997  0.04735614  1  -1.25057  0  -0.242428  -0.60422  0  2.228131  0
O  O169  1  0.17229992  0.52451248  0.04731007  1  -1.240735  0  -0.22541  -0.585221  0  2.248834  0
O  O170  1  0.34844062  0.52572104  0.04705703  1  -1.238107  0  -0.227946  -0.5884  0  2.245009  0
O  O171  1  0.36309389  0.33483925  0.04477518  1  -1.256867  0  -0.244148  -0.609015  0  2.234167  0
O  O172  1  0.47409559  0.17484689  0.45203378  1  -1.227825  0  -0.213495  -0.572396  0  2.287931  0
O  O173  1  0.19543512  0.16204494  0.95042924  1  -1.222501  0  -0.200528  -0.536785  0  2.285592  0
O  O174  1  0.98888235  0.16287448  0.94593206  1  -1.212786  0  -0.202662  -0.542949  0  2.285708  0
O  O175  1  0.97380708  0.33279014  0.95355816  1  -1.258096  0  -0.24572  -0.613227  0  2.232959  0
O  O176  1  0.17014895  0.52739973  0.95391969  1  -1.246602  0  -0.226593  -0.588153  0  2.241904  0
O  O177  1  0.34705442  0.53065563  0.95344029  1  -1.238235  0  -0.227092  -0.589605  0  2.244103  0
O  O178  1  0.36657407  0.34303169  0.95145799  1  -1.265665  0  -0.243211  -0.607118  0  2.232551  0
O  O179  1  0.16369832  0.32513843  0.99946619  1  -1.607561  0  -0.39098  -1.27333  0  2.292979  0
O  O180  1  0.30415573  0.99268809  0.45073200  1  -1.260862  0  -0.241519  -0.6022  0  2.23208  0
O  O181  1  0.31587943  0.80142920  0.45585171  1  -1.236644  0  -0.225497  -0.584602  0  2.252493  0
O  O182  1  0.49316542  0.80529068  0.45383668  1  -1.243693  0  -0.226625  -0.585202  0  2.242354  0
O  O183  1  0.69252198  0.99725209  0.45549903  1  -1.257523  0  -0.245093  -0.609236  0  2.231409  0
O  O184  1  0.69296924  0.17379322  0.54767237  1  -1.215573  0  -0.199785  -0.534141  0  2.278588  0
O  O185  1  0.48253092  0.17144080  0.55268476  1  -1.220726  0  -0.203706  -0.545878  0  2.287945  0
O  O186  1  0.30104189  0.00419328  0.54365345  1  -1.257951  0  -0.244999  -0.611643  0  2.235214  0
O  O187  1  0.66642793  0.33842152  0.50124900  1  -1.339912  0  -0.576509  -0.993385  0  1.793529  0
O  O188  1  0.00695104  0.99374392  0.99638191  1  -1.36943  0  -0.577688  -0.993687  0  1.794844  0
