# generated using pymatgen
data_ZnH18C27(NO4)2
_symmetry_space_group_name_H-M   'P 1'
_cell_length_a   8.36050792
_cell_length_b   11.27228585
_cell_length_c   13.00070000
_cell_angle_alpha   100.39106809
_cell_angle_beta   92.61010086
_cell_angle_gamma   109.17141807
_symmetry_Int_Tables_number   1
_chemical_formula_structural   ZnH18C27(NO4)2
_chemical_formula_sum   'Zn2 H36 C54 N4 O16'
_cell_volume   1131.02177148
_cell_formula_units_Z   2
loop_
 _symmetry_equiv_pos_site_id
 _symmetry_equiv_pos_as_xyz
  1  'x, y, z'
loop_
 _atom_site_type_symbol
 _atom_site_label
 _atom_site_symmetry_multiplicity
 _atom_site_fract_x
 _atom_site_fract_y
 _atom_site_fract_z
 _atom_site_occupancy
 _atom_site_hle17_bader_spin_density
 _atom_site_hle17_ddec_charge
 _atom_site_hle17_ddec_spin_density
 _atom_site_hle17_ddec_sum_bond_order
 _atom_site_hle17_magmom
 _atom_site_hse06_10hf_bader_spin_density
 _atom_site_hse06_10hf_ddec_charge
 _atom_site_hse06_10hf_ddec_spin_density
 _atom_site_hse06_10hf_ddec_sum_bond_order
 _atom_site_hse06_10hf_magmom
 _atom_site_hse06_bader_spin_density
 _atom_site_hse06_ddec_charge
 _atom_site_hse06_ddec_spin_density
 _atom_site_hse06_ddec_sum_bond_order
 _atom_site_hse06_magmom
 _atom_site_pbe_bader_charge
 _atom_site_pbe_bader_spin_density
 _atom_site_pbe_cm5_charge
 _atom_site_pbe_ddec_charge
 _atom_site_pbe_ddec_spin_density
 _atom_site_pbe_ddec_sum_bond_order
 _atom_site_pbe_magmom
Zn  Zn0  1  0.25670806  0.41020062  0.37788194  1  0  1.044407  0  1.803749  0  0  0.86796  0  2.246775  0  0  0.914992  0  2.194167  0  1.315535  0  0.684255  0.835147  0  2.282847  0
Zn  Zn1  1  0.74329033  0.58979815  0.62211898  1  0  1.044372  0  1.803775  0  0  0.867938  0  2.246793  0  0  0.914967  0  2.194185  0  1.315485  0  0.684261  0.835124  0  2.282865  0
H  H2  1  0.67539958  0.08307291  0.06932114  1  0  0.098789  0  0.952136  0  0  0.108953  0  1.014553  0  0  0.11217  0  1.011703  0  0.10115  0  0.105136  0.106623  0  1.0166  0
H  H3  1  0.32459989  0.91692298  0.93067859  1  0  0.098829  0  0.952115  0  0  0.109008  0  1.014527  0  0  0.112224  0  1.011677  0  0.101057  0  0.105169  0.106677  0  1.016575  0
H  H4  1  0.80663586  0.32091738  0.10412892  1  0  0.104337  0  0.985648  0  0  0.114536  0  1.04832  0  0  0.1171  0  1.048358  0  0.103758  0  0.102023  0.112695  0  1.04848  0
H  H5  1  0.19336526  0.67907947  0.89586870  1  0  0.104407  0  0.985593  0  0  0.114549  0  1.048329  0  0  0.11711  0  1.048367  0  0.103895  0  0.102035  0.112708  0  1.048491  0
H  H6  1  0.57582185  0.52018560  0.14903122  1  0  0.120375  0  0.949869  0  0  0.130607  0  1.011213  0  0  0.134238  0  1.008886  0  0.093221  0  0.110122  0.127911  0  1.013138  0
H  H7  1  0.42418177  0.47981412  0.85096230  1  0  0.120381  0  0.94985  0  0  0.130576  0  1.011248  0  0  0.134218  0  1.008909  0  0.093468  0  0.110106  0.127879  0  1.013171  0
H  H8  1  0.64412194  0.62045716  0.99306958  1  0  0.085774  0  0.959898  0  0  0.098664  0  1.017222  0  0  0.100855  0  1.01619  0  0.060847  0  0.10328  0.097091  0  1.017993  0
H  H9  1  0.35588582  0.37954640  0.00692774  1  0  0.085761  0  0.959898  0  0  0.098639  0  1.017232  0  0  0.100831  0  1.016198  0  0.060873  0  0.103274  0.097067  0  1.018003  0
H  H10  1  0.94513940  0.69847847  0.95172829  1  0  0.090259  0  0.96064  0  0  0.099292  0  1.02538  0  0  0.101908  0  1.025187  0  0.067721  0  0.098269  0.097428  0  1.025659  0
H  H11  1  0.05486934  0.30152989  0.04827135  1  0  0.090211  0  0.960725  0  0  0.099221  0  1.025485  0  0  0.101837  0  1.025293  0  0.067817  0  0.098252  0.097357  0  1.025763  0
H  H12  1  0.17709056  0.68177711  0.07184371  1  0  0.104296  0  0.951017  0  0  0.112445  0  1.015317  0  0  0.115975  0  1.012826  0  0.139245  0  0.105882  0.109885  0  1.01717  0
H  H13  1  0.82291448  0.31822838  0.92815691  1  0  0.104293  0  0.951064  0  0  0.112463  0  1.015319  0  0  0.116016  0  1.012801  0  0.139235  0  0.105885  0.109866  0  1.017212  0
H  H14  1  0.48099993  0.11066851  0.36971818  1  0  0.101251  0  0.946389  0  0  0.10944  0  1.013399  0  0  0.113226  0  1.00977  0  0.089635  0  0.104364  0.106704  0  1.015993  0
H  H15  1  0.51900500  0.88933409  0.63028353  1  0  0.101221  0  0.946376  0  0  0.109389  0  1.013412  0  0  0.113177  0  1.009779  0  0.089617  0  0.104334  0.106652  0  1.016006  0
H  H16  1  0.02720305  0.38887582  0.56498220  1  0  0.106343  0  0.944969  0  0  0.10665  0  1.017327  0  0  0.110496  0  1.013077  0  0.155391  0  0.123339  0.103734  0  1.020573  0
H  H17  1  0.97279252  0.61112198  0.43502079  1  0  0.106316  0  0.944969  0  0  0.106641  0  1.017311  0  0  0.110489  0  1.013058  0  0.155389  0  0.123343  0.103724  0  1.020557  0
H  H18  1  0.79845226  0.20877812  0.61970962  1  0  0.109404  0  0.977977  0  0  0.117519  0  1.040098  0  0  0.120538  0  1.039543  0  0.117781  0  0.106901  0.115312  0  1.040673  0
H  H19  1  0.20154450  0.79121968  0.38029340  1  0  0.109406  0  0.977985  0  0  0.117533  0  1.040083  0  0  0.120549  0  1.039532  0  0.117737  0  0.106919  0.115326  0  1.040658  0
H  H20  1  0.71095849  0.98751858  0.50909427  1  0  0.105462  0  0.92272  0  0  0.119863  0  0.97648  0  0  0.122844  0  0.974055  0  0.09727  0  0.114103  0.117581  0  0.978373  0
H  H21  1  0.28903991  0.01248018  0.49090742  1  0  0.10545  0  0.922722  0  0  0.119846  0  0.976486  0  0  0.122826  0  0.974063  0  0.097291  0  0.114102  0.117561  0  0.978384  0
H  H22  1  0.87962774  0.81603317  0.18110611  1  0  0.092605  0  0.999921  0  0  0.102942  0  1.06283  0  0  0.104041  0  1.065448  0  0.09019  0  0.098392  0.102075  0  1.06114  0
H  H23  1  0.12036630  0.18396656  0.81889328  1  0  0.092605  0  0.99995  0  0  0.102937  0  1.062872  0  0  0.104036  0  1.065491  0  0.090194  0  0.098377  0.102071  0  1.061181  0
H  H24  1  0.74395072  0.84162043  0.34444240  1  0  0.11178  0  0.923805  0  0  0.126686  0  0.974072  0  0  0.129928  0  0.972734  0  0.09288  0  0.1118  0.124249  0  0.975256  0
H  H25  1  0.25604724  0.15837738  0.65555835  1  0  0.111767  0  0.923842  0  0  0.126656  0  0.974132  0  0  0.129895  0  0.972797  0  0.09292  0  0.111788  0.124222  0  0.975311  0
H  H26  1  0.09092558  0.91535143  0.05970841  1  0  0.09479  0  0.954971  0  0  0.107159  0  1.015647  0  0  0.109211  0  1.015203  0  0.078412  0  0.106515  0.105673  0  1.015973  0
H  H27  1  0.90906770  0.08464925  0.94029188  1  0  0.094778  0  0.954971  0  0  0.107188  0  1.015611  0  0  0.10924  0  1.015167  0  0.07875  0  0.106526  0.105701  0  1.01593  0
H  H28  1  0.31435728  0.11266630  0.02426185  1  0  0.122925  0  0.95953  0  0  0.131403  0  1.020378  0  0  0.135116  0  1.018678  0  0.155163  0  0.110334  0.128719  0  1.02175  0
H  H29  1  0.68563556  0.88733342  0.97573828  1  0  0.122927  0  0.959492  0  0  0.131381  0  1.020373  0  0  0.135093  0  1.018676  0  0.155075  0  0.110318  0.128698  0  1.021742  0
H  H30  1  0.38917033  0.31811798  0.15804731  1  0  0.072524  0  0.943065  0  0  0.081516  0  1.008602  0  0  0.083192  0  1.007455  0  0.101132  0  0.116958  0.080219  0  1.009498  0
H  H31  1  0.61082328  0.68188079  0.84195347  1  0  0.072538  0  0.943115  0  0  0.081521  0  1.008661  0  0  0.083191  0  1.007527  0  0.101093  0  0.11695  0.080224  0  1.009558  0
H  H32  1  0.42373553  0.58869797  0.30055315  1  0  0.40423  0  0.911765  0  0  0.373321  0  0.975376  0  0  0.385298  0  0.958088  0  0.641224  0  0.282901  0.364897  0  0.987516  0
H  H33  1  0.57626526  0.41130079  0.69944707  1  0  0.404254  0  0.911727  0  0  0.373354  0  0.975322  0  0  0.385332  0  0.958031  0  0.641266  0  0.282933  0.364931  0  0.987461  0
H  H34  1  0.52641939  0.59151465  0.40856129  1  0  0.409886  0  0.895887  0  0  0.380147  0  0.963157  0  0  0.392013  0  0.946005  0  0.646855  0  0.283759  0.371793  0  0.975201  0
H  H35  1  0.47357977  0.40848315  0.59143719  1  0  0.409876  0  0.895884  0  0  0.380122  0  0.963187  0  0  0.39199  0  0.946033  0  0.646846  0  0.283733  0.371766  0  0.975235  0
H  H36  1  0.36008079  0.79189073  0.24664397  1  0  0.401542  0  0.894982  0  0  0.367708  0  0.979783  0  0  0.380657  0  0.961442  0  0.641093  0  0.297813  0.358591  0  0.990103  0
H  H37  1  0.63991967  0.20810995  0.75335730  1  0  0.401555  0  0.894955  0  0  0.367732  0  0.979737  0  0  0.38068  0  0.961401  0  0.641092  0  0.297819  0.358616  0  0.990056  0
C  C38  1  0.66617801  0.14116816  0.14383286  1  0  -0.024873  0  3.749931  0  0  -0.051454  0  4.001362  0  0  -0.04635  0  4.018423  0  0.054485  0  -0.079463  -0.05445  0  3.98958  0
C  C39  1  0.33382278  0.85883060  0.85616581  1  0  -0.024942  0  3.750072  0  0  -0.051565  0  4.001512  0  0  -0.046461  0  4.018571  0  0.054645  0  -0.079511  -0.05456  0  3.989728  0
C  C40  1  0.73850873  0.27359444  0.16290022  1  0  -0.196603  0  3.75716  0  0  -0.218387  0  4.017862  0  0  -0.225819  0  4.036113  0  -0.13653  0  -0.106514  -0.213608  0  4.005653  0
C  C41  1  0.26149446  0.72640432  0.83709776  1  0  -0.196712  0  3.757185  0  0  -0.218451  0  4.017909  0  0  -0.225875  0  4.036154  0  -0.13672  0  -0.106564  -0.213672  0  4.005699  0
C  C42  1  0.72229576  0.34861283  0.25765740  1  0  0.310767  0  3.715391  0  0  0.284517  0  3.985351  0  0  0.300805  0  3.996092  0  0.463786  0  0.106375  0.273454  0  3.978116  0
C  C43  1  0.27771025  0.65138690  0.74234081  1  0  0.31092  0  3.715189  0  0  0.284669  0  3.985111  0  0  0.300946  0  3.995857  0  0.463807  0  0.10644  0.273607  0  3.977879  0
C  C44  1  0.83416841  0.53663448  0.19079229  1  0  0.266553  0  3.748236  0  0  0.251603  0  4.005975  0  0  0.263133  0  4.021477  0  0.397248  0  0.095845  0.243774  0  3.9954  0
C  C45  1  0.16583194  0.46336332  0.80920161  1  0  0.266502  0  3.748188  0  0  0.251563  0  4.005886  0  0  0.26308  0  4.021402  0  0.397559  0  0.095896  0.243733  0  3.995315  0
C  C46  1  0.70544006  0.55194191  0.12796116  1  0  -0.169206  0  3.721632  0  0  -0.192409  0  3.974297  0  0  -0.197559  0  3.992254  0  0.004316  0  -0.092691  -0.188978  0  3.962277  0
C  C47  1  0.29456595  0.44805782  0.87203398  1  0  -0.16923  0  3.72175  0  0  -0.192416  0  3.974402  0  0  -0.197572  0  3.992351  0  0.004155  0  -0.092741  -0.18899  0  3.962395  0
C  C48  1  0.74562469  0.60940068  0.04176587  1  0  -0.029059  0  3.756989  0  0  -0.042799  0  4.005161  0  0  -0.041203  0  4.024401  0  -0.095542  0  -0.080871  -0.043572  0  3.991876  0
C  C49  1  0.25438383  0.39060193  0.95822979  1  0  -0.028994  0  3.756979  0  0  -0.042709  0  4.005099  0  0  -0.04111  0  4.024341  0  -0.095889  0  -0.080838  -0.043482  0  3.991814  0
C  C50  1  0.91479744  0.65497447  0.02004064  1  0  -0.0969  0  3.779617  0  0  -0.11405  0  4.040339  0  0  -0.118217  0  4.061616  0  0.002696  0  -0.097362  -0.111349  0  4.025892  0
C  C51  1  0.08521076  0.34503005  0.97995762  1  0  -0.096878  0  3.779586  0  0  -0.114021  0  4.040334  0  0  -0.118191  0  4.061625  0  0.002356  0  -0.097342  -0.111317  0  4.025874  0
C  C52  1  0.04370265  0.64495960  0.08608835  1  0  -0.060164  0  3.740674  0  0  -0.083947  0  3.993143  0  0  -0.082945  0  4.013426  0  -0.049135  0  -0.083033  -0.084296  0  3.979323  0
C  C53  1  0.95630109  0.35504300  0.91391101  1  0  -0.060185  0  3.740632  0  0  -0.083971  0  3.993041  0  0  -0.082991  0  4.013321  0  -0.049054  0  -0.083038  -0.084292  0  3.97924  0
C  C54  1  0.00529410  0.58393438  0.17150869  1  0  -0.166811  0  3.739479  0  0  -0.151973  0  3.98196  0  0  -0.161887  0  4.003196  0  -0.023748  0  -0.021908  -0.145578  0  3.967723  0
C  C55  1  0.99470952  0.41606534  0.82848791  1  0  -0.166725  0  3.739538  0  0  -0.151862  0  3.981986  0  0  -0.16177  0  4.003229  0  -0.023567  0  -0.021881  -0.145465  0  3.967739  0
C  C56  1  0.14461173  0.56349568  0.23494510  1  0  0.673856  0  3.875419  0  0  0.617502  0  4.175258  0  0  0.65215  0  4.167027  0  1.592914  0  0.216313  0.59408  0  4.18013  0
C  C57  1  0.85538547  0.43650308  0.76505501  1  0  0.673725  0  3.875542  0  0  0.61735  0  4.175407  0  0  0.651996  0  4.167182  0  1.592921  0  0.216296  0.593931  0  4.180276  0
C  C58  1  0.60526599  0.36600924  0.43596953  1  0  0.695535  0  3.848994  0  0  0.641494  0  4.14456  0  0  0.677241  0  4.135161  0  1.594319  0  0.217766  0.617157  0  4.150399  0
C  C59  1  0.39473850  0.63399240  0.56402970  1  0  0.695298  0  3.849252  0  0  0.64141  0  4.144603  0  0  0.67716  0  4.135196  0  1.594174  0  0.217709  0.617074  0  4.150441  0
C  C60  1  0.63067679  0.28983212  0.33434395  1  0  -0.165358  0  3.696091  0  0  -0.149971  0  3.946311  0  0  -0.161466  0  3.965951  0  0.108069  0  -0.023415  -0.142696  0  3.933388  0
C  C61  1  0.36932847  0.71016856  0.66565516  1  0  -0.165423  0  3.696072  0  0  -0.150066  0  3.946236  0  0  -0.161561  0  3.965873  0  0.108189  0  -0.023454  -0.142792  0  3.933315  0
C  C62  1  0.55675569  0.15602822  0.31245395  1  0  -0.045222  0  3.716359  0  0  -0.085711  0  3.974571  0  0  -0.080459  0  3.99278  0  -0.121812  0  -0.077798  -0.088805  0  3.96212  0
C  C63  1  0.44324804  0.84397438  0.68754695  1  0  -0.04509  0  3.716343  0  0  -0.085567  0  3.974534  0  0  -0.080316  0  3.992743  0  -0.121836  0  -0.077746  -0.088658  0  3.962081  0
C  C64  1  0.57412109  0.08035031  0.21841117  1  0  -0.120481  0  3.824875  0  0  -0.099705  0  4.067005  0  0  -0.111629  0  4.092581  0  0.023466  0  -0.036973  -0.092037  0  4.04979  0
C  C65  1  0.42588014  0.91964942  0.78158997  1  0  -0.120604  0  3.825044  0  0  -0.09979  0  4.067152  0  0  -0.111713  0  4.092728  0  0.023388  0  -0.036999  -0.092123  0  4.049936  0
C  C66  1  0.49133965  0.93880458  0.19161308  1  0  0.641729  0  3.861184  0  0  0.594369  0  4.161693  0  0  0.627265  0  4.154052  0  1.494815  0  0.21679  0.572009  0  4.166445  0
C  C67  1  0.50866125  0.06119706  0.80838989  1  0  0.641784  0  3.861367  0  0  0.594392  0  4.161906  0  0  0.627286  0  4.154266  0  1.494839  0  0.216804  0.572032  0  4.166659  0
C  C68  1  0.98421238  0.29103022  0.51880306  1  0  0.170672  0  3.625415  0  0  0.134177  0  3.886227  0  0  0.143864  0  3.899839  0  0.539463  0  0.066968  0.127826  0  3.877045  0
C  C69  1  0.01578481  0.70896855  0.48119936  1  0  0.170755  0  3.625379  0  0  0.134235  0  3.886196  0  0  0.14392  0  3.899807  0  0.539877  0  0.066989  0.127884  0  3.877014  0
C  C70  1  0.85733493  0.18986392  0.54876754  1  0  -0.112905  0  3.712403  0  0  -0.127803  0  3.970299  0  0  -0.135218  0  3.99186  0  -0.081329  0  -0.081739  -0.123011  0  3.955747  0
C  C71  1  0.14266259  0.81013292  0.45123382  1  0  -0.113087  0  3.71252  0  0  -0.127998  0  3.970427  0  0  -0.135412  0  3.991987  0  -0.081162  0  -0.081857  -0.123203  0  3.955872  0
C  C72  1  0.80862690  0.06759556  0.48732833  1  0  -0.037961  0  3.674025  0  0  -0.064116  0  3.925045  0  0  -0.061664  0  3.942947  0  0.00435  0  -0.057254  -0.06539  0  3.912712  0
C  C73  1  0.19137269  0.93240321  0.51267416  1  0  -0.037914  0  3.673976  0  0  -0.064059  0  3.924961  0  0  -0.061607  0  3.942864  0  0.003899  0  -0.057228  -0.065329  0  3.912629  0
C  C74  1  0.88551476  0.04599236  0.39451573  1  0  0.022615  0  3.806204  0  0  0.037945  0  4.04233  0  0  0.03477  0  4.068356  0  0.003457  0  -0.000425  0.039921  0  4.024696  0
C  C75  1  0.11448081  0.95400544  0.60548572  1  0  0.022613  0  3.806163  0  0  0.037979  0  4.042235  0  0  0.034804  0  4.068259  0  0.00355  0  -0.000462  0.039948  0  4.024614  0
C  C76  1  0.01214984  0.15336706  0.37034250  1  0  0.135153  0  3.74432  0  0  0.128209  0  3.977911  0  0  0.132136  0  4.000582  0  0.494174  0  0.122087  0.125582  0  3.962644  0
C  C77  1  0.98784660  0.84663266  0.62966004  1  0  0.135185  0  3.744267  0  0  0.128226  0  3.9779  0  0  0.132153  0  4.000571  0  0.494133  0  0.122097  0.125601  0  3.962633  0
C  C78  1  0.09370577  0.13789740  0.27604980  1  0  0.137646  0  3.741836  0  0  0.130726  0  3.976875  0  0  0.134798  0  3.998281  0  0.42961  0  0.123155  0.127968  0  3.962496  0
C  C79  1  0.90628947  0.86210233  0.72395117  1  0  0.137681  0  3.74156  0  0  0.130676  0  3.976746  0  0  0.134747  0  3.998153  0  0.429391  0  0.123152  0.127919  0  3.962368  0
C  C80  1  0.04408662  0.01584503  0.20717271  1  0  0.033368  0  3.778008  0  0  0.050735  0  4.005452  0  0  0.048485  0  4.029422  0  0.057482  0  0.001461  0.052074  0  3.989314  0
C  C81  1  0.95590623  0.98415469  0.79282820  1  0  0.033375  0  3.777912  0  0  0.050772  0  4.005383  0  0  0.048523  0  4.029354  0  0.057572  0  0.001533  0.05211  0  3.989244  0
C  C82  1  0.91653606  0.90920446  0.23435570  1  0  -0.096186  0  3.730995  0  0  -0.116951  0  3.980829  0  0  -0.120538  0  4.005389  0  -0.015029  0  -0.083435  -0.114452  0  3.964196  0
C  C83  1  0.08345798  0.09079526  0.76564446  1  0  -0.096254  0  3.730963  0  0  -0.117029  0  3.980809  0  0  -0.120614  0  4.005362  0  -0.015126  0  -0.083461  -0.114529  0  3.964176  0
C  C84  1  0.84103483  0.92351251  0.32463735  1  0  -0.090246  0  3.731276  0  0  -0.116002  0  3.988961  0  0  -0.119082  0  4.011342  0  -0.039137  0  -0.080286  -0.113821  0  3.973767  0
C  C85  1  0.15896041  0.07648721  0.67536285  1  0  -0.090202  0  3.73121  0  0  -0.115956  0  3.988888  0  0  -0.11903  0  4.011263  0  -0.039156  0  -0.08022  -0.113773  0  3.973698  0
C  C86  1  0.12525759  0.00761675  0.11433963  1  0  -0.045887  0  3.683369  0  0  -0.069791  0  3.928787  0  0  -0.067727  0  3.947714  0  -0.031338  0  -0.062818  -0.070916  0  3.915854  0
C  C87  1  0.87473405  0.99238297  0.88566124  1  0  -0.045802  0  3.683366  0  0  -0.069738  0  3.928756  0  0  -0.067674  0  3.947682  0  -0.03208  0  -0.062822  -0.070857  0  3.915818  0
C  C88  1  0.24766966  0.11558763  0.09444034  1  0  -0.125853  0  3.72356  0  0  -0.13861  0  3.978575  0  0  -0.146174  0  4.000696  0  -0.060296  0  -0.081017  -0.133635  0  3.963626  0
C  C89  1  0.75232275  0.88441114  0.90555963  1  0  -0.125925  0  3.723607  0  0  -0.138662  0  3.978657  0  0  -0.146225  0  4.000774  0  -0.059904  0  -0.081057  -0.13369  0  3.963712  0
C  C90  1  0.28978906  0.23161974  0.16878442  1  0  0.153311  0  3.696249  0  0  0.120738  0  3.954843  0  0  0.128224  0  3.972941  0  0.503896  0  0.061683  0.115911  0  3.942519  0
C  C91  1  0.71020530  0.76837806  0.83121700  1  0  0.153222  0  3.69635  0  0  0.120653  0  3.95493  0  0  0.128138  0  3.973024  0  0.503999  0  0.061632  0.115825  0  3.942608  0
N  N92  1  0.21536228  0.24245350  0.25637047  1  0  -0.340965  0  3.283644  0  0  -0.27331  0  3.550862  0  0  -0.290177  0  3.566674  0  -1.232642  0  -0.315482  -0.261939  0  3.54012  0
N  N93  1  0.78463252  0.75754526  0.74363111  1  0  -0.340917  0  3.283467  0  0  -0.273226  0  3.550696  0  0  -0.290092  0  3.56651  0  -1.232549  0  -0.315436  -0.261853  0  3.53995  0
N  N94  1  0.05975170  0.27238962  0.43240088  1  0  -0.329398  0  3.251552  0  0  -0.256443  0  3.517312  0  0  -0.27466  0  3.53201  0  -1.24874  0  -0.311713  -0.244183  0  3.507306  0
N  N95  1  0.94024506  0.72760818  0.56760060  1  0  -0.329322  0  3.251428  0  0  -0.25634  0  3.517183  0  0  -0.274555  0  3.531879  0  -1.248741  0  -0.311672  -0.24408  0  3.507177  0
O  O96  1  0.10443365  0.46578064  0.27615789  1  0  -0.606927  0  2.069698  0  0  -0.546993  0  2.335266  0  0  -0.573354  0  2.324421  0  -1.17302  0  -0.303197  -0.528576  0  2.341918  0
O  O97  1  0.89556769  0.53422197  0.72384294  1  0  -0.606893  0  2.069597  0  0  -0.546957  0  2.33516  0  0  -0.57332  0  2.324322  0  -1.17303  0  -0.303204  -0.528538  0  2.341806  0
O  O98  1  0.45562247  0.33435086  0.46536491  1  0  -0.660861  0  1.98045  0  0  -0.600659  0  2.214605  0  0  -0.626449  0  2.20209  0  -1.188245  0  -0.322281  -0.582557  0  2.222722  0
O  O99  1  0.54438278  0.66564983  0.53463343  1  0  -0.660763  0  1.980562  0  0  -0.600655  0  2.214677  0  0  -0.626446  0  2.202159  0  -1.188178  0  -0.322265  -0.582556  0  2.222796  0
O  O100  1  0.47829177  0.53706553  0.33633010  1  0  -0.821204  0  1.941296  0  0  -0.761331  0  2.148791  0  0  -0.784083  0  2.113899  0  -1.277749  0  -0.583278  -0.74518  0  2.172702  0
O  O101  1  0.52170618  0.46293227  0.66367065  1  0  -0.821218  0  1.941238  0  0  -0.761333  0  2.148725  0  0  -0.784079  0  2.11382  0  -1.27777  0  -0.583283  -0.745181  0  2.172637  0
O  O102  1  0.29626924  0.64381815  0.24110300  1  0  -0.637833  0  2.029729  0  0  -0.570498  0  2.244508  0  0  -0.596289  0  2.231442  0  -1.192104  0  -0.310326  -0.552511  0  2.252521  0
O  O103  1  0.70373481  0.35618254  0.75889607  1  0  -0.637771  0  2.029954  0  0  -0.570446  0  2.244743  0  0  -0.596236  0  2.231683  0  -1.192107  0  -0.310315  -0.552458  0  2.252751  0
O  O104  1  0.78921591  0.47965476  0.27642058  1  0  -0.279494  0  2.409463  0  0  -0.208718  0  2.638746  0  0  -0.228317  0  2.641526  0  -1.08444  0  -0.139036  -0.1947  0  2.636277  0
O  O105  1  0.21078695  0.52034592  0.72357538  1  0  -0.279512  0  2.409291  0  0  -0.208733  0  2.638555  0  0  -0.228321  0  2.641336  0  -1.084557  0  -0.139075  -0.194716  0  2.636088  0
O  O106  1  0.40922964  0.88983810  0.26886068  1  0  -0.57137  0  2.085361  0  0  -0.522258  0  2.309021  0  0  -0.543672  0  2.291381  0  -1.173256  0  -0.346725  -0.507264  0  2.318768  0
O  O107  1  0.59076963  0.11016259  0.73114056  1  0  -0.571441  0  2.085378  0  0  -0.522322  0  2.309038  0  0  -0.543745  0  2.291423  0  -1.173207  0  -0.346758  -0.507327  0  2.318788  0
O  O108  1  0.49568377  0.87201447  0.10594313  1  0  -0.573228  0  1.895082  0  0  -0.533825  0  2.1073  0  0  -0.553319  0  2.099272  0  -1.165791  0  -0.309632  -0.520499  0  2.11257  0
O  O109  1  0.50431625  0.12798525  0.89405721  1  0  -0.573158  0  1.895279  0  0  -0.533753  0  2.107508  0  0  -0.553245  0  2.099486  0  -1.165884  0  -0.309595  -0.520427  0  2.112776  0
O  O110  1  0.73596125  0.45556129  0.48657996  1  0  -0.617167  0  2.043585  0  0  -0.551096  0  2.302356  0  0  -0.578396  0  2.289865  0  -1.167147  0  -0.305909  -0.532067  0  2.31041  0
O  O111  1  0.26404444  0.54444036  0.51342085  1  0  -0.617069  0  2.043691  0  0  -0.551008  0  2.302316  0  0  -0.57831  0  2.289825  0  -1.167063  0  -0.305858  -0.531979  0  2.310369  0
