# generated using pymatgen
data_CdH7C7N7O
_symmetry_space_group_name_H-M   'P 1'
_cell_length_a   9.15869517
_cell_length_b   9.26726799
_cell_length_c   13.59072055
_cell_angle_alpha   90.00019143
_cell_angle_beta   89.99963061
_cell_angle_gamma   113.32347137
_symmetry_Int_Tables_number   1
_chemical_formula_structural   CdH7C7N7O
_chemical_formula_sum   'Cd4 H28 C28 N28 O4'
_cell_volume   1059.26580673
_cell_formula_units_Z   4
loop_
 _symmetry_equiv_pos_site_id
 _symmetry_equiv_pos_as_xyz
  1  'x, y, z'
loop_
 _atom_site_type_symbol
 _atom_site_label
 _atom_site_symmetry_multiplicity
 _atom_site_fract_x
 _atom_site_fract_y
 _atom_site_fract_z
 _atom_site_occupancy
 _atom_site_hle17_bader_spin_density
 _atom_site_hle17_ddec_charge
 _atom_site_hle17_ddec_spin_density
 _atom_site_hle17_ddec_sum_bond_order
 _atom_site_hle17_magmom
 _atom_site_hse06_10hf_bader_spin_density
 _atom_site_hse06_10hf_ddec_charge
 _atom_site_hse06_10hf_ddec_spin_density
 _atom_site_hse06_10hf_ddec_sum_bond_order
 _atom_site_hse06_10hf_magmom
 _atom_site_hse06_bader_spin_density
 _atom_site_hse06_ddec_charge
 _atom_site_hse06_ddec_spin_density
 _atom_site_hse06_ddec_sum_bond_order
 _atom_site_hse06_magmom
 _atom_site_pbe_bader_spin_density
 _atom_site_pbe_cm5_charge
 _atom_site_pbe_ddec_charge
 _atom_site_pbe_ddec_spin_density
 _atom_site_pbe_ddec_sum_bond_order
 _atom_site_pbe_magmom
Cd  Cd0  1  0.88007535  0.89936475  0.60327839  1  0  1.044406  0  1.906734  0  0  0.864253  0  2.382066  0  0  0.910577  0  2.340847  0  0  0.80587  0.832299  0  2.410509  0
Cd  Cd1  1  0.38007398  0.89936573  0.89672308  1  0  1.044431  0  1.906638  0  0  0.864277  0  2.381952  0  0  0.910603  0  2.34073  0  0  0.805908  0.832309  0  2.410405  0
Cd  Cd2  1  0.11992369  0.10063235  0.39672201  1  0  1.044384  0  1.906758  0  0  0.864248  0  2.382082  0  0  0.910571  0  2.340863  0  0  0.805871  0.832295  0  2.410528  0
Cd  Cd3  1  0.61992759  0.10063488  0.10327659  1  0  1.044411  0  1.906633  0  0  0.864264  0  2.381941  0  0  0.910591  0  2.34072  0  0  0.805891  0.832298  0  2.410395  0
H  H4  1  0.28100145  0.47024334  0.61462150  1  0  0.108877  0  0.971607  0  0  0.116595  0  1.036222  0  0  0.118627  0  1.037246  0  0  0.110562  0.115004  0  1.035829  0
H  H5  1  0.78100462  0.47024270  0.88537647  1  0  0.108915  0  0.971606  0  0  0.116614  0  1.036239  0  0  0.118652  0  1.037256  0  0  0.110557  0.115015  0  1.035869  0
H  H6  1  0.71899589  0.52975494  0.38538258  1  0  0.108913  0  0.971588  0  0  0.116626  0  1.036193  0  0  0.118667  0  1.037207  0  0  0.110595  0.115032  0  1.035816  0
H  H7  1  0.21899621  0.52976145  0.11461878  1  0  0.108913  0  0.971603  0  0  0.11659  0  1.036248  0  0  0.118636  0  1.037257  0  0  0.110579  0.114993  0  1.035876  0
H  H8  1  0.34231797  0.23881596  0.66548889  1  0  0.103491  0  0.960977  0  0  0.108312  0  1.02912  0  0  0.11123  0  1.027472  0  0  0.10692  0.106172  0  1.030515  0
H  H9  1  0.84232679  0.23881992  0.83450902  1  0  0.103522  0  0.960966  0  0  0.108296  0  1.029161  0  0  0.111213  0  1.027516  0  0  0.106912  0.106157  0  1.030555  0
H  H10  1  0.65767949  0.76117996  0.33451224  1  0  0.103477  0  0.960931  0  0  0.108283  0  1.029087  0  0  0.111195  0  1.027456  0  0  0.106908  0.106144  0  1.030481  0
H  H11  1  0.15767622  0.76118421  0.16548844  1  0  0.103513  0  0.960935  0  0  0.108312  0  1.029099  0  0  0.111227  0  1.027464  0  0  0.106905  0.106175  0  1.030492  0
H  H12  1  0.62597243  0.27779924  0.68839881  1  0  0.118801  0  0.918482  0  0  0.13048  0  0.97093  0  0  0.133475  0  0.970605  0  0  0.117949  0.128099  0  0.971977  0
H  H13  1  0.12597919  0.27780475  0.81159719  1  0  0.118816  0  0.918583  0  0  0.130525  0  0.970989  0  0  0.133522  0  0.970659  0  0  0.117978  0.128143  0  0.972039  0
H  H14  1  0.37402395  0.72219670  0.31159791  1  0  0.118868  0  0.918523  0  0  0.130577  0  0.970924  0  0  0.133575  0  0.970591  0  0  0.117997  0.128195  0  0.971973  0
H  H15  1  0.87402285  0.72219703  0.18840468  1  0  0.118813  0  0.918597  0  0  0.13052  0  0.971006  0  0  0.133517  0  0.970676  0  0  0.117984  0.128139  0  0.972055  0
H  H16  1  0.83972076  0.54669486  0.66113961  1  0  0.091037  0  0.951448  0  0  0.093706  0  1.024944  0  0  0.096576  0  1.022135  0  0  0.117183  0.091684  0  1.026868  0
H  H17  1  0.33972836  0.54670040  0.83886049  1  0  0.091016  0  0.951389  0  0  0.093741  0  1.024848  0  0  0.096611  0  1.022038  0  0  0.117217  0.091719  0  1.026774  0
H  H18  1  0.16027623  0.45329989  0.33886005  1  0  0.09103  0  0.951399  0  0  0.093717  0  1.024906  0  0  0.096587  0  1.022096  0  0  0.11718  0.091696  0  1.026832  0
H  H19  1  0.66027695  0.45330135  0.16114506  1  0  0.090999  0  0.95148  0  0  0.093717  0  1.024935  0  0  0.096587  0  1.022125  0  0  0.117226  0.091695  0  1.026859  0
H  H20  1  0.27182776  0.71871619  0.63865070  1  0  0.142613  0  0.944881  0  0  0.159015  0  1.010155  0  0  0.160412  0  1.010871  0  0  0.102132  0.158011  0  1.009708  0
H  H21  1  0.77182754  0.71871201  0.86134788  1  0  0.142635  0  0.944921  0  0  0.159064  0  1.010107  0  0  0.160461  0  1.010822  0  0  0.102151  0.158061  0  1.009664  0
H  H22  1  0.72817054  0.28128445  0.36134823  1  0  0.142642  0  0.944876  0  0  0.159047  0  1.010137  0  0  0.160444  0  1.010854  0  0  0.102135  0.158044  0  1.009693  0
H  H23  1  0.22817233  0.28128979  0.13865031  1  0  0.142633  0  0.94486  0  0  0.159032  0  1.010119  0  0  0.160429  0  1.010835  0  0  0.102137  0.158029  0  1.009677  0
H  H24  1  0.27038117  0.67760665  0.51248368  1  0  0.135976  0  0.961509  0  0  0.152009  0  1.030876  0  0  0.152958  0  1.032179  0  0  0.100242  0.151505  0  1.029427  0
H  H25  1  0.77038560  0.67760612  0.98751333  1  0  0.135981  0  0.961579  0  0  0.152012  0  1.030934  0  0  0.15296  0  1.032238  0  0  0.100235  0.151511  0  1.02948  0
H  H26  1  0.72961713  0.32239399  0.48751598  1  0  0.136002  0  0.961504  0  0  0.152029  0  1.030876  0  0  0.152977  0  1.03218  0  0  0.100258  0.151527  0  1.029424  0
H  H27  1  0.22961753  0.32239565  0.01248412  1  0  0.135978  0  0.961566  0  0  0.152014  0  1.030917  0  0  0.152962  0  1.032221  0  0  0.100257  0.151513  0  1.029464  0
H  H28  1  0.34057721  0.87798702  0.55114617  1  0  0.158236  0  0.93706  0  0  0.174548  0  0.995662  0  0  0.177889  0  0.993507  0  0  0.102793  0.172096  0  0.997543  0
H  H29  1  0.84057450  0.87798416  0.94885174  1  0  0.158299  0  0.937012  0  0  0.174577  0  0.995642  0  0  0.177917  0  0.993488  0  0  0.102819  0.172126  0  0.997522  0
H  H30  1  0.65942557  0.12201121  0.44885570  1  0  0.158257  0  0.937023  0  0  0.174565  0  0.995634  0  0  0.177907  0  0.993476  0  0  0.102803  0.172113  0  0.997513  0
H  H31  1  0.15942428  0.12201765  0.05114646  1  0  0.158283  0  0.93705  0  0  0.174585  0  0.995651  0  0  0.177923  0  0.993501  0  0  0.102812  0.172134  0  0.99753  0
C  C32  1  0.52884744  0.62764210  0.61064489  1  0  0.096876  0  3.765764  0  0  0.098595  0  4.006395  0  0  0.099827  0  4.028878  0  0  0.104798  0.098108  0  3.990869  0
C  C33  1  0.02884988  0.62764422  0.88935085  1  0  0.097064  0  3.765525  0  0  0.098722  0  4.006133  0  0  0.099962  0  4.028609  0  0  0.104843  0.098227  0  3.990608  0
C  C34  1  0.47114942  0.37235501  0.38935403  1  0  0.096911  0  3.765715  0  0  0.098525  0  4.006445  0  0  0.099762  0  4.028923  0  0  0.104792  0.098037  0  3.99092  0
C  C35  1  0.97115095  0.37235994  0.11064661  1  0  0.096803  0  3.765661  0  0  0.09855  0  4.006259  0  0  0.09979  0  4.028741  0  0  0.104762  0.098057  0  3.990732  0
C  C36  1  0.40310163  0.48240673  0.62526306  1  0  -0.105828  0  3.673318  0  0  -0.127458  0  3.921693  0  0  -0.133137  0  3.944881  0  0  -0.071124  -0.12415  0  3.906357  0
C  C37  1  0.90310682  0.48241077  0.87473219  1  0  -0.105967  0  3.673442  0  0  -0.127602  0  3.921826  0  0  -0.133289  0  3.945009  0  0  -0.071152  -0.124291  0  3.906486  0
C  C38  1  0.59689583  0.51758919  0.37473734  1  0  -0.105853  0  3.673255  0  0  -0.127448  0  3.921639  0  0  -0.133134  0  3.94482  0  0  -0.071152  -0.124142  0  3.906304  0
C  C39  1  0.09689522  0.51759101  0.12526600  1  0  -0.105838  0  3.673354  0  0  -0.127433  0  3.92172  0  0  -0.133125  0  3.944901  0  0  -0.071114  -0.124123  0  3.90638  0
C  C40  1  0.43687003  0.35414957  0.65356598  1  0  0.006657  0  3.684539  0  0  -0.014306  0  3.942277  0  0  -0.011748  0  3.960315  0  0  -0.059523  -0.015687  0  3.930249  0
C  C41  1  0.93687391  0.35415241  0.84643252  1  0  0.006654  0  3.684515  0  0  -0.014242  0  3.942199  0  0  -0.011683  0  3.960239  0  0  -0.059527  -0.015625  0  3.930174  0
C  C42  1  0.56312744  0.64584636  0.34643589  1  0  0.006655  0  3.684499  0  0  -0.014284  0  3.942221  0  0  -0.011729  0  3.960259  0  0  -0.059539  -0.015665  0  3.930194  0
C  C43  1  0.06312644  0.64585057  0.15356494  1  0  0.006627  0  3.684548  0  0  -0.014311  0  3.942268  0  0  -0.011756  0  3.960308  0  0  -0.059528  -0.015693  0  3.930242  0
C  C44  1  0.59480146  0.37535403  0.66696451  1  0  -0.086479  0  3.675456  0  0  -0.102051  0  3.928885  0  0  -0.108025  0  3.949469  0  0  -0.066366  -0.098294  0  3.915525  0
C  C45  1  0.09480489  0.37535725  0.83303405  1  0  -0.08652  0  3.675569  0  0  -0.102124  0  3.929004  0  0  -0.108101  0  3.949586  0  0  -0.066354  -0.09837  0  3.915652  0
C  C46  1  0.40519444  0.62464073  0.33303516  1  0  -0.086566  0  3.6756  0  0  -0.102159  0  3.929031  0  0  -0.108135  0  3.949616  0  0  -0.066355  -0.098401  0  3.915668  0
C  C47  1  0.90519811  0.62464688  0.16696561  1  0  -0.086504  0  3.67561  0  0  -0.102101  0  3.929056  0  0  -0.108076  0  3.949637  0  0  -0.066357  -0.098345  0  3.915702  0
C  C48  1  0.71436527  0.52448705  0.65173712  1  0  0.133379  0  3.678803  0  0  0.10271  0  3.934927  0  0  0.108868  0  3.95279  0  0  0.05592  0.098818  0  3.9224  0
C  C49  1  0.21436917  0.52448910  0.84826053  1  0  0.13345  0  3.678807  0  0  0.10272  0  3.934905  0  0  0.108879  0  3.952768  0  0  0.055879  0.098825  0  3.922378  0
C  C50  1  0.28563341  0.47550650  0.34826181  1  0  0.133409  0  3.678905  0  0  0.102704  0  3.935018  0  0  0.108862  0  3.952883  0  0  0.055873  0.098811  0  3.922492  0
C  C51  1  0.78563288  0.47551268  0.15174355  1  0  0.133513  0  3.67873  0  0  0.102797  0  3.934852  0  0  0.108957  0  3.952714  0  0  0.055904  0.098904  0  3.922323  0
C  C52  1  0.50282358  0.77004161  0.57687428  1  0  0.479117  0  3.651151  0  0  0.46089  0  3.919083  0  0  0.483333  0  3.920931  0  0  0.171419  0.445385  0  3.917566  0
C  C53  1  0.00282402  0.77004497  0.92312632  1  0  0.479102  0  3.651273  0  0  0.461008  0  3.918985  0  0  0.483448  0  3.920832  0  0  0.171432  0.445508  0  3.917467  0
C  C54  1  0.49716941  0.22995672  0.42313054  1  0  0.479059  0  3.651322  0  0  0.460909  0  3.919179  0  0  0.48335  0  3.921026  0  0  0.171391  0.445403  0  3.917666  0
C  C55  1  0.99717620  0.22996037  0.07687113  1  0  0.479414  0  3.650852  0  0  0.461164  0  3.918768  0  0  0.483602  0  3.920615  0  0  0.171513  0.445663  0  3.91725  0
C  C56  1  0.33726383  0.76191481  0.56982497  1  0  -0.435706  0  3.672656  0  0  -0.515814  0  3.908737  0  0  -0.522075  0  3.913722  0  0  -0.247514  -0.511408  0  3.905318  0
C  C57  1  0.83725959  0.76191312  0.93017269  1  0  -0.435818  0  3.672796  0  0  -0.515924  0  3.9088  0  0  -0.522184  0  3.913785  0  0  -0.247552  -0.51152  0  3.905378  0
C  C58  1  0.66273243  0.23808349  0.43017543  1  0  -0.43582  0  3.672609  0  0  -0.515918  0  3.908657  0  0  -0.52218  0  3.913641  0  0  -0.247539  -0.511513  0  3.905236  0
C  C59  1  0.16273919  0.23808869  0.06982477  1  0  -0.435874  0  3.672644  0  0  -0.515943  0  3.908683  0  0  -0.522203  0  3.913666  0  0  -0.247556  -0.511537  0  3.905261  0
N  N60  1  0.03055225  0.14966125  0.55079504  1  0  -0.63058  0  2.764238  0  0  -0.581541  0  3.07219  0  0  -0.609772  0  3.078447  0  0  -0.343861  -0.563311  0  3.06897  0
N  N61  1  0.53055399  0.14966661  0.94920476  1  0  -0.630547  0  2.764744  0  0  -0.581496  0  3.072669  0  0  -0.609725  0  3.078929  0  0  -0.343809  -0.563269  0  3.069447  0
N  N62  1  0.96944630  0.85033466  0.44920536  1  0  -0.630557  0  2.764181  0  0  -0.581515  0  3.072133  0  0  -0.609749  0  3.078392  0  0  -0.343841  -0.56328  0  3.06891  0
N  N63  1  0.46944806  0.85033518  0.05079490  1  0  -0.630525  0  2.76457  0  0  -0.581484  0  3.072493  0  0  -0.609714  0  3.078753  0  0  -0.34383  -0.563255  0  3.069271  0
N  N64  1  0.00322315  0.26262626  0.57375207  1  0  0.413307  0  4.215051  0  0  0.447994  0  4.489266  0  0  0.464145  0  4.518621  0  0  0.088713  0.437187  0  4.469966  0
N  N65  1  0.50322560  0.26262214  0.92624885  1  0  0.413296  0  4.215256  0  0  0.447985  0  4.489445  0  0  0.464136  0  4.518805  0  0  0.088662  0.437176  0  4.470141  0
N  N66  1  0.99677758  0.73736963  0.42624686  1  0  0.413269  0  4.215159  0  0  0.447935  0  4.489391  0  0  0.464087  0  4.518745  0  0  0.088665  0.437128  0  4.470091  0
N  N67  1  0.49677609  0.73737610  0.07375155  1  0  0.413205  0  4.21525  0  0  0.447911  0  4.489435  0  0  0.464062  0  4.518794  0  0  0.088678  0.437103  0  4.470131  0
N  N68  1  0.98090446  0.37319722  0.59680845  1  0  -0.369014  0  2.388878  0  0  -0.368758  0  2.611497  0  0  -0.374551  0  2.621259  0  0  -0.17566  -0.363646  0  2.603375  0
N  N69  1  0.48090508  0.37320055  0.90319064  1  0  -0.369033  0  2.38848  0  0  -0.368795  0  2.611117  0  0  -0.374594  0  2.620884  0  0  -0.175659  -0.363679  0  2.602993  0
N  N70  1  0.01909663  0.62680221  0.40319122  1  0  -0.368965  0  2.389014  0  0  -0.368686  0  2.611642  0  0  -0.374478  0  2.621403  0  0  -0.175593  -0.363573  0  2.603522  0
N  N71  1  0.51909552  0.62679771  0.09680902  1  0  -0.368965  0  2.388664  0  0  -0.368725  0  2.611279  0  0  -0.374521  0  2.621045  0  0  -0.175656  -0.363613  0  2.603156  0
N  N72  1  0.05063982  0.82809976  0.69622367  1  0  -0.511299  0  2.616492  0  0  -0.486315  0  2.896088  0  0  -0.506882  0  2.906202  0  0  -0.271284  -0.47243  0  2.889634  0
N  N73  1  0.55064095  0.82810021  0.80377538  1  0  -0.511176  0  2.616677  0  0  -0.486226  0  2.896305  0  0  -0.506784  0  2.906413  0  0  -0.271209  -0.472345  0  2.889858  0
N  N74  1  0.94936066  0.17190086  0.30377673  1  0  -0.511253  0  2.616481  0  0  -0.48629  0  2.896082  0  0  -0.506854  0  2.906191  0  0  -0.271232  -0.472405  0  2.889632  0
N  N75  1  0.44936062  0.17190039  0.19622428  1  0  -0.511184  0  2.616745  0  0  -0.486225  0  2.896342  0  0  -0.506781  0  2.90645  0  0  -0.271201  -0.472343  0  2.889895  0
N  N76  1  0.17591264  0.91847042  0.72479079  1  0  0.398057  0  4.25984  0  0  0.431577  0  4.536782  0  0  0.448356  0  4.56875  0  0  0.07747  0.420318  0  4.515458  0
N  N77  1  0.67590461  0.91846385  0.77521087  1  0  0.398024  0  4.25971  0  0  0.431549  0  4.536659  0  0  0.448326  0  4.56863  0  0  0.077426  0.42029  0  4.515335  0
N  N78  1  0.82408941  0.08153136  0.27520961  1  0  0.398024  0  4.259746  0  0  0.431551  0  4.536679  0  0  0.448329  0  4.568643  0  0  0.077429  0.420293  0  4.515358  0
N  N79  1  0.32409743  0.08153793  0.22478879  1  0  0.398094  0  4.259748  0  0  0.431617  0  4.536676  0  0  0.448396  0  4.568643  0  0  0.077483  0.42036  0  4.515353  0
N  N80  1  0.30202375  0.00400122  0.75452594  1  0  -0.483589  0  2.546841  0  0  -0.464386  0  2.808087  0  0  -0.481388  0  2.817132  0  0  -0.253644  -0.45253  0  2.802364  0
N  N81  1  0.80202601  0.00400040  0.74547308  1  0  -0.483673  0  2.546504  0  0  -0.464451  0  2.807743  0  0  -0.481459  0  2.816794  0  0  -0.253674  -0.45259  0  2.802015  0
N  N82  1  0.69797733  0.99599821  0.24547373  1  0  -0.483605  0  2.546768  0  0  -0.464394  0  2.808017  0  0  -0.481395  0  2.817061  0  0  -0.253657  -0.452535  0  2.802295  0
N  N83  1  0.19797507  0.99599903  0.25452658  1  0  -0.483732  0  2.546508  0  0  -0.464524  0  2.807759  0  0  -0.481532  0  2.816808  0  0  -0.253735  -0.452662  0  2.802033  0
N  N84  1  0.68147234  0.64692515  0.62387346  1  0  -0.341363  0  3.280505  0  0  -0.271974  0  3.53712  0  0  -0.289728  0  3.557657  0  0  -0.324554  -0.259475  0  3.522897  0
N  N85  1  0.18148069  0.64693073  0.87612461  1  0  -0.341503  0  3.280482  0  0  -0.272082  0  3.537114  0  0  -0.289841  0  3.557647  0  0  -0.324608  -0.259576  0  3.522886  0
N  N86  1  0.31852417  0.35306843  0.37612694  1  0  -0.341386  0  3.280621  0  0  -0.271939  0  3.537216  0  0  -0.289695  0  3.557752  0  0  -0.324513  -0.259439  0  3.522991  0
N  N87  1  0.81852340  0.35307339  0.12387506  1  0  -0.341424  0  3.280436  0  0  -0.272043  0  3.537071  0  0  -0.289802  0  3.557608  0  0  -0.324564  -0.259535  0  3.522841  0
O  O88  1  0.61884794  0.89069180  0.55307484  1  0  -0.466981  0  1.992766  0  0  -0.408093  0  2.211611  0  0  -0.428978  0  2.206339  0  0  -0.248461  -0.393765  0  2.215725  0
O  O89  1  0.11884455  0.89069169  0.94692038  1  0  -0.466959  0  1.992919  0  0  -0.408145  0  2.211735  0  0  -0.42903  0  2.206463  0  0  -0.248474  -0.393816  0  2.215849  0
O  O90  1  0.38115423  0.10930762  0.44692556  1  0  -0.46691  0  1.99296  0  0  -0.408082  0  2.211784  0  0  -0.428967  0  2.206516  0  0  -0.248473  -0.393751  0  2.215898  0
O  O91  1  0.88115833  0.10931480  0.05307634  1  0  -0.467137  0  1.992758  0  0  -0.408275  0  2.211668  0  0  -0.429161  0  2.206395  0  0  -0.248575  -0.393945  0  2.215781  0
