# generated using pymatgen
data_CuH4C4IN2
_symmetry_space_group_name_H-M   'P 1'
_cell_length_a   7.85852380
_cell_length_b   9.72314914
_cell_length_c   16.65707765
_cell_angle_alpha   90.00035792
_cell_angle_beta   89.99999857
_cell_angle_gamma   112.12721122
_symmetry_Int_Tables_number   1
_chemical_formula_structural   CuH4C4IN2
_chemical_formula_sum   'Cu8 H32 C32 I8 N16'
_cell_volume   1179.02160893
_cell_formula_units_Z   8
loop_
 _symmetry_equiv_pos_site_id
 _symmetry_equiv_pos_as_xyz
  1  'x, y, z'
loop_
 _atom_site_type_symbol
 _atom_site_label
 _atom_site_symmetry_multiplicity
 _atom_site_fract_x
 _atom_site_fract_y
 _atom_site_fract_z
 _atom_site_occupancy
 _atom_site_pbe_bader_spin_density
 _atom_site_pbe_cm5_charge
 _atom_site_pbe_ddec_charge
 _atom_site_pbe_ddec_spin_density
 _atom_site_pbe_ddec_sum_bond_order
 _atom_site_pbe_magmom
Cu  Cu0  1  0.46787335  0.67626075  0.20990720  1  0  0.244419  0.173367  0  2.634212  0
Cu  Cu1  1  0.03212611  0.32374133  0.70990903  1  0  0.244411  0.173328  0  2.634209  0
Cu  Cu2  1  0.53213136  0.32374360  0.79009116  1  0  0.24443  0.17337  0  2.634167  0
Cu  Cu3  1  0.96787351  0.67625746  0.29009173  1  0  0.244418  0.173326  0  2.63423  0
Cu  Cu4  1  0.72854776  0.79668440  0.32086086  1  0  0.247265  0.187292  0  2.733057  0
Cu  Cu5  1  0.77145626  0.20331483  0.82086105  1  0  0.247276  0.18729  0  2.73304  0
Cu  Cu6  1  0.27145364  0.20331551  0.67913871  1  0  0.247269  0.187288  0  2.73305  0
Cu  Cu7  1  0.22854642  0.79668508  0.17913972  1  0  0.247283  0.187294  0  2.733073  0
H  H8  1  0.66840081  0.90566868  0.62270212  1  0  0.104528  0.117873  0  1.05648  0
H  H9  1  0.83160029  0.09433250  0.12270177  1  0  0.104522  0.117862  0  1.056501  0
H  H10  1  0.33160185  0.09433677  0.37729625  1  0  0.104489  0.117793  0  1.056694  0
H  H11  1  0.16840189  0.90566631  0.87729959  1  0  0.10449  0.117815  0  1.056576  0
H  H12  1  0.33056298  0.62009106  0.53981371  1  0  0.110907  0.119365  0  1.037816  0
H  H13  1  0.16943935  0.37990892  0.03981260  1  0  0.110912  0.119405  0  1.037803  0
H  H14  1  0.66943587  0.37990882  0.46018886  1  0  0.110888  0.119362  0  1.037797  0
H  H15  1  0.83056562  0.62009322  0.96018636  1  0  0.110904  0.119344  0  1.037825  0
H  H16  1  0.81624006  0.63711792  0.64458722  1  0  0.090433  0.077549  0  1.052067  0
H  H17  1  0.68375837  0.36288018  0.14458905  1  0  0.09042  0.077558  0  1.052038  0
H  H18  1  0.18375930  0.36288307  0.35541294  1  0  0.090422  0.077539  0  1.052046  0
H  H19  1  0.31624125  0.63711860  0.85541111  1  0  0.090417  0.077544  0  1.052032  0
H  H20  1  0.91941049  0.81818097  0.68609783  1  0  0.095764  0.100595  0  1.028623  0
H  H21  1  0.58058665  0.18181432  0.18609660  1  0  0.095822  0.100682  0  1.028589  0
H  H22  1  0.08058479  0.18181668  0.31390233  1  0  0.095769  0.100624  0  1.028599  0
H  H23  1  0.41941220  0.81818556  0.81390296  1  0  0.095824  0.10068  0  1.028566  0
H  H24  1  0.57703736  0.93241793  0.46297186  1  0  0.105648  0.105317  0  1.037219  0
H  H25  1  0.92296594  0.06758527  0.96297516  1  0  0.105648  0.105329  0  1.03725  0
H  H26  1  0.42296326  0.06758861  0.53702530  1  0  0.105645  0.105317  0  1.037316  0
H  H27  1  0.07703419  0.93241463  0.03702860  1  0  0.105652  0.105303  0  1.037239  0
H  H28  1  0.20819458  0.86686351  0.62172588  1  0  0.092977  0.084444  0  1.035784  0
H  H29  1  0.29180260  0.13313635  0.12172688  1  0  0.092974  0.08445  0  1.035778  0
H  H30  1  0.79180274  0.13313858  0.37827188  1  0  0.09296  0.084428  0  1.035802  0
H  H31  1  0.70819625  0.86686354  0.87827208  1  0  0.092984  0.084446  0  1.035813  0
H  H32  1  0.13746139  0.67987936  0.65622079  1  0  0.102397  0.101664  0  1.00486  0
H  H33  1  0.36253854  0.32012095  0.15621886  1  0  0.102399  0.101638  0  1.004875  0
H  H34  1  0.86253720  0.32012274  0.34377998  1  0  0.102387  0.101622  0  1.004863  0
H  H35  1  0.63746337  0.67988007  0.84377950  1  0  0.102408  0.101654  0  1.004843  0
H  H36  1  0.27763228  0.59978591  0.37383798  1  0  0.094714  0.089962  0  1.082551  0
H  H37  1  0.22237679  0.40022048  0.87383828  1  0  0.094695  0.089893  0  1.082644  0
H  H38  1  0.72236937  0.40021732  0.62616279  1  0  0.094708  0.08993  0  1.082559  0
H  H39  1  0.77762895  0.59978056  0.12616008  1  0  0.094713  0.089924  0  1.082561  0
C  C40  1  0.01390061  0.72622373  0.46973258  1  0  0.207947  0.166514  0  4.02984  0
C  C41  1  0.48609832  0.27377161  0.96973183  1  0  0.207945  0.166447  0  4.029917  0
C  C42  1  0.98609978  0.27377395  0.53026759  1  0  0.207983  0.166566  0  4.029821  0
C  C43  1  0.51389952  0.72622606  0.03026774  1  0  0.207945  0.166424  0  4.029916  0
C  C44  1  0.71610486  0.87484257  0.56696479  1  0  0.001892  -0.084888  0  3.915818  0
C  C45  1  0.78389440  0.12515458  0.06696636  1  0  0.001863  -0.084966  0  3.915815  0
C  C46  1  0.28389450  0.12515843  0.43303117  1  0  0.001927  -0.084787  0  3.915741  0
C  C47  1  0.21610447  0.87483977  0.93303561  1  0  0.001882  -0.084912  0  3.91591  0
C  C48  1  0.23671297  0.64769258  0.50137604  1  0  0.004462  -0.078579  0  3.899853  0
C  C49  1  0.26329194  0.35231027  0.00137363  1  0  0.004382  -0.07872  0  3.89987  0
C  C50  1  0.76328716  0.35230732  0.49862772  1  0  0.004464  -0.078583  0  3.899986  0
C  C51  1  0.73671252  0.64769076  0.99862473  1  0  0.004526  -0.078425  0  3.899819  0
C  C52  1  0.87883688  0.78843272  0.48676149  1  0  0.211475  0.183664  0  3.996923  0
C  C53  1  0.62115994  0.21156188  0.98676171  1  0  0.211425  0.183681  0  3.996881  0
C  C54  1  0.12115891  0.21156604  0.51323687  1  0  0.211431  0.183594  0  3.997214  0
C  C55  1  0.37884146  0.78843803  0.01323785  1  0  0.211447  0.183695  0  3.996958  0
C  C56  1  0.91374600  0.75058903  0.63267717  1  0  -0.058822  -0.081964  0  3.876084  0
C  C57  1  0.58624853  0.24940891  0.13267799  1  0  -0.058884  -0.082119  0  3.876116  0
C  C58  1  0.08624953  0.24941194  0.36732239  1  0  -0.058854  -0.08203  0  3.876159  0
C  C59  1  0.41375032  0.75059098  0.86732217  1  0  -0.058876  -0.082058  0  3.875997  0
C  C60  1  0.67482550  0.88977829  0.48791134  1  0  -0.01218  -0.042153  0  4.004952  0
C  C61  1  0.82517362  0.11021855  0.98791119  1  0  -0.012145  -0.042088  0  4.004982  0
C  C62  1  0.32517642  0.11022273  0.51208823  1  0  -0.01216  -0.042165  0  4.004972  0
C  C63  1  0.17482932  0.88977915  0.01209077  1  0  -0.012125  -0.042058  0  4.004873  0
C  C64  1  0.10484647  0.75374353  0.61436424  1  0  -0.053904  -0.073249  0  3.853376  0
C  C65  1  0.39515271  0.24625514  0.11436325  1  0  -0.053898  -0.073165  0  3.853329  0
C  C66  1  0.89515288  0.24625746  0.38563592  1  0  -0.053861  -0.073133  0  3.853262  0
C  C67  1  0.60484742  0.75374476  0.88563511  1  0  -0.05393  -0.07321  0  3.853374  0
C  C68  1  0.20645769  0.63634450  0.41984791  1  0  -0.011512  -0.028405  0  3.989401  0
C  C69  1  0.29354605  0.36365578  0.91984749  1  0  -0.011449  -0.028226  0  3.989477  0
C  C70  1  0.79354092  0.36365206  0.58015345  1  0  -0.011479  -0.028326  0  3.989487  0
C  C71  1  0.70645791  0.63634414  0.08015147  1  0  -0.011549  -0.028451  0  3.989518  0
I  I72  1  0.50154748  0.92848240  0.28090991  1  0  -0.163071  -0.306429  0  2.284829  0
I  I73  1  0.99844866  0.07151627  0.78090602  1  0  -0.163075  -0.306426  0  2.284848  0
I  I74  1  0.49845137  0.07151748  0.71909025  1  0  -0.163073  -0.306422  0  2.284774  0
I  I75  1  0.00155146  0.92848362  0.21909294  1  0  -0.163072  -0.306436  0  2.284843  0
I  I76  1  0.59205390  0.50529579  0.30131368  1  0  -0.176998  -0.315835  0  2.03924  0
I  I77  1  0.90793188  0.49470528  0.80131733  1  0  -0.177003  -0.315833  0  2.039219  0
I  I78  1  0.40794112  0.49470407  0.69868528  1  0  -0.176998  -0.315809  0  2.039216  0
I  I79  1  0.09205931  0.50529455  0.19868343  1  0  -0.177002  -0.315839  0  2.03919  0
N  N80  1  0.77584597  0.83565545  0.43810298  1  0  -0.380111  -0.262194  0  3.61306  0
N  N81  1  0.72415159  0.16434076  0.93810363  1  0  -0.3801  -0.26221  0  3.613146  0
N  N82  1  0.22415187  0.16434222  0.56189538  1  0  -0.380083  -0.262138  0  3.613151  0
N  N83  1  0.27584651  0.83565470  0.06189773  1  0  -0.38008  -0.262157  0  3.613115  0
N  N84  1  0.11426237  0.70415671  0.53230354  1  0  -0.239564  0.00974  0  3.73414  0
N  N85  1  0.38573661  0.29583873  0.03230272  1  0  -0.239526  0.009748  0  3.734006  0
N  N86  1  0.88573291  0.29584094  0.46769723  1  0  -0.239606  0.009647  0  3.734083  0
N  N87  1  0.61426429  0.70416006  0.96769684  1  0  -0.23962  0.009635  0  3.734128  0
N  N88  1  0.84500459  0.81092221  0.56544520  1  0  -0.23866  0.017097  0  3.720341  0
N  N89  1  0.65498956  0.18907489  0.06544520  1  0  -0.238629  0.017157  0  3.720235  0
N  N90  1  0.15498967  0.18907876  0.43455436  1  0  -0.238631  0.017132  0  3.72037  0
N  N91  1  0.34501413  0.81092724  0.93455496  1  0  -0.238645  0.017093  0  3.720321  0
N  N92  1  0.06662136  0.68383423  0.40046285  1  0  -0.379999  -0.260706  0  3.637085  0
N  N93  1  0.43338048  0.31616470  0.90046345  1  0  -0.380012  -0.260769  0  3.637149  0
N  N94  1  0.93337903  0.31616346  0.59953792  1  0  -0.380006  -0.260769  0  3.637085  0
N  N95  1  0.56661991  0.68383299  0.09953551  1  0  -0.379996  -0.260671  0  3.637084  0
