# generated using pymatgen
data_EuH23C22N2O9
_symmetry_space_group_name_H-M   'P 1'
_cell_length_a   13.41254143
_cell_length_b   14.53768719
_cell_length_c   15.90902009
_cell_angle_alpha   117.18732782
_cell_angle_beta   99.80649657
_cell_angle_gamma   89.99934095
_symmetry_Int_Tables_number   1
_chemical_formula_structural   EuH23C22N2O9
_chemical_formula_sum   'Eu4 H92 C88 N8 O36'
_cell_volume   2708.28220727
_cell_formula_units_Z   4
loop_
 _symmetry_equiv_pos_site_id
 _symmetry_equiv_pos_as_xyz
  1  'x, y, z'
loop_
 _atom_site_type_symbol
 _atom_site_label
 _atom_site_symmetry_multiplicity
 _atom_site_fract_x
 _atom_site_fract_y
 _atom_site_fract_z
 _atom_site_occupancy
 _atom_site_pbe_bader_charge
 _atom_site_pbe_bader_spin_density
 _atom_site_pbe_cm5_charge
 _atom_site_pbe_ddec_charge
 _atom_site_pbe_ddec_spin_density
 _atom_site_pbe_ddec_sum_bond_order
 _atom_site_pbe_magmom
Eu  Eu0  1  0.55008528  0.03434806  0.64138923  1  2.201695  0  1.49062  2.07739  0  2.138969  0
Eu  Eu1  1  0.94988346  0.39295158  0.35859692  1  2.202615  0  1.490603  2.077782  0  2.138279  0
Eu  Eu2  1  0.44991429  0.96565188  0.35861094  1  2.201693  0  1.490628  2.077389  0  2.138969  0
Eu  Eu3  1  0.05011612  0.60704836  0.64140325  1  2.202572  0  1.490607  2.077807  0  2.138247  0
H  H4  1  0.20659246  0.18497493  0.44911577  1  0.126041  0  0.10512  0.109289  0  1.027924  0
H  H5  1  0.29337555  0.73582745  0.55089027  1  0.079159  0  0.105066  0.108703  0  1.028142  0
H  H6  1  0.79340787  0.81502511  0.55088450  1  0.126053  0  0.10513  0.109303  0  1.027907  0
H  H7  1  0.70662396  0.26417229  0.44910893  1  0.079164  0  0.105062  0.108703  0  1.028119  0
H  H8  1  0.07586706  0.40505633  0.68351418  1  0.143772  0  0.115558  0.125837  0  1.047595  0
H  H9  1  0.42409574  0.72159702  0.31652483  1  0.137741  0  0.115846  0.125687  0  1.047514  0
H  H10  1  0.92413327  0.59494371  0.31648609  1  0.143768  0  0.11554  0.125817  0  1.047632  0
H  H11  1  0.57590383  0.27840229  0.68347471  1  0.137747  0  0.115846  0.125659  0  1.047525  0
H  H12  1  0.29778506  0.21133195  0.73188362  1  0.101946  0  0.110448  0.118475  0  1.01815  0
H  H13  1  0.20225145  0.47942705  0.26810643  1  0.117238  0  0.11023  0.117408  0  1.018794  0
H  H14  1  0.70221451  0.78866736  0.26811592  1  0.101943  0  0.110434  0.118448  0  1.018172  0
H  H15  1  0.79774819  0.52057244  0.73189407  1  0.116955  0  0.110226  0.117428  0  1.018794  0
H  H16  1  0.24106199  0.40892600  0.87097935  1  0.051452  0  0.103024  0.078741  0  0.986658  0
H  H17  1  0.25895428  0.53796669  0.12903285  1  0.070066  0  0.102801  0.078404  0  0.986306  0
H  H18  1  0.75893834  0.59107341  0.12902030  1  0.051418  0  0.103025  0.078733  0  0.98666  0
H  H19  1  0.74104611  0.46203228  0.87096713  1  0.070056  0  0.102791  0.078393  0  0.986304  0
H  H20  1  0.10872343  0.41154990  0.83195370  1  0.100327  0  0.105958  0.077341  0  1.010304  0
H  H21  1  0.39128486  0.57967222  0.16808182  1  0.055247  0  0.106041  0.077725  0  1.010249  0
H  H22  1  0.89127615  0.58844941  0.16804584  1  0.100322  0  0.105952  0.077336  0  1.010283  0
H  H23  1  0.60871547  0.42032719  0.83191783  1  0.055249  0  0.106044  0.077733  0  1.010241  0
H  H24  1  0.11487417  0.47066986  0.98132989  1  0.063529  0  0.103239  0.113064  0  1.030586  0
H  H25  1  0.38513111  0.48939718  0.01867628  1  0.054888  0  0.103269  0.113191  0  1.030204  0
H  H26  1  0.88512540  0.52932945  0.01866965  1  0.063551  0  0.103265  0.113106  0  1.030511  0
H  H27  1  0.61486922  0.51060223  0.98132337  1  0.054875  0  0.103262  0.113179  0  1.030207  0
H  H28  1  0.04623586  0.49784286  0.12545747  1  0.080002  0  0.100832  0.097649  0  1.021118  0
H  H29  1  0.45370912  0.37243458  0.87451368  1  0.07064  0  0.100415  0.096792  0  1.021732  0
H  H30  1  0.95376447  0.50215655  0.87454217  1  0.079989  0  0.10085  0.097672  0  1.021093  0
H  H31  1  0.54629128  0.62756439  0.12548630  1  0.070636  0  0.100409  0.096781  0  1.021734  0
H  H32  1  0.04229096  0.17273944  0.04195831  1  0.11168  0  0.107354  0.108643  0  0.999322  0
H  H33  1  0.45772191  0.13083285  0.95802305  1  0.10342  0  0.107369  0.108034  0  0.999901  0
H  H34  1  0.95770937  0.82725998  0.95804134  1  0.111693  0  0.107321  0.108567  0  0.999382  0
H  H35  1  0.54227842  0.86916657  0.04197659  1  0.103433  0  0.107353  0.108005  0  0.999896  0
H  H36  1  0.10909272  0.14218902  0.89399624  1  0.074143  0  0.103984  0.116767  0  1.004215  0
H  H37  1  0.39096705  0.24824656  0.10600874  1  0.074209  0  0.104339  0.117003  0  1.004283  0
H  H38  1  0.89090761  0.85781040  0.10600341  1  0.074001  0  0.10399  0.116753  0  1.004229  0
H  H39  1  0.60903328  0.75175222  0.89399028  1  0.074212  0  0.104318  0.116987  0  1.0043  0
H  H40  1  0.80980847  0.00336505  0.65386324  1  0.120317  0  0.127246  0.049887  0  1.008745  0
H  H41  1  0.69015398  0.34948073  0.34609425  1  0.116468  0  0.127085  0.049971  0  1.008524  0
H  H42  1  0.19019117  0.99663444  0.34613726  1  0.120457  0  0.127254  0.04991  0  1.008723  0
H  H43  1  0.30984559  0.65051794  0.65390466  1  0.11631  0  0.127087  0.049978  0  1.008529  0
H  H44  1  0.81828725  0.27689008  0.72815933  1  0.115172  0  0.110956  0.131379  0  1.027298  0
H  H45  1  0.68171261  0.54885653  0.27198043  1  0.115898  0  0.110901  0.132023  0  1.02659  0
H  H46  1  0.18171301  0.72310977  0.27183998  1  0.115164  0  0.110961  0.13139  0  1.027277  0
H  H47  1  0.31828696  0.45114277  0.72801911  1  0.115896  0  0.110902  0.132025  0  1.026587  0
H  H48  1  0.90666597  0.26460508  0.65193041  1  0.054145  0  0.104046  0.118398  0  0.987614  0
H  H49  1  0.59329006  0.61272710  0.34818020  1  0.055586  0  0.104026  0.118574  0  0.988032  0
H  H50  1  0.09333353  0.73539341  0.34806753  1  0.054171  0  0.104044  0.118395  0  0.987651  0
H  H51  1  0.40670951  0.38727284  0.65181997  1  0.055587  0  0.104027  0.118576  0  0.988034  0
H  H52  1  0.95247844  0.29135588  0.77371807  1  0.067275  0  0.102804  0.115611  0  1.008565  0
H  H53  1  0.54753255  0.51774171  0.22636355  1  0.056864  0  0.102755  0.115744  0  1.008491  0
H  H54  1  0.04752176  0.70864379  0.22628028  1  0.067249  0  0.102794  0.115592  0  1.008555  0
H  H55  1  0.45246703  0.48225823  0.77363661  1  0.05686  0  0.102757  0.115744  0  1.008483  0
H  H56  1  0.96507210  0.00433060  0.63549113  1  0.05099  0  0.109663  0.120263  0  0.998721  0
H  H57  1  0.53488767  0.36881053  0.36447155  1  0.058787  0  0.109648  0.120606  0  0.999563  0
H  H58  1  0.03492829  0.99566900  0.36450948  1  0.051036  0  0.109665  0.120256  0  0.998743  0
H  H59  1  0.46511183  0.63118859  0.63552703  1  0.05879  0  0.109652  0.12062  0  0.999477  0
H  H60  1  0.04336118  0.12277864  0.71522325  1  0.0779  0  0.10289  0.115629  0  1.037746  0
H  H61  1  0.45660791  0.40761650  0.28480323  1  0.087599  0  0.102727  0.115573  0  1.037979  0
H  H62  1  0.95663832  0.87722111  0.28477595  1  0.077889  0  0.102881  0.115608  0  1.037758  0
H  H63  1  0.54339160  0.59238388  0.71519660  1  0.087603  0  0.102722  0.115559  0  1.038  0
H  H64  1  0.99772170  0.09342521  0.59332937  1  0.058812  0  0.101743  0.113374  0  0.988896  0
H  H65  1  0.50226791  0.50008223  0.40672126  1  0.055289  0  0.101863  0.113727  0  0.989227  0
H  H66  1  0.00227794  0.90657239  0.40666924  1  0.058812  0  0.101732  0.113344  0  0.988946  0
H  H67  1  0.49773249  0.49991674  0.59327872  1  0.055298  0  0.101868  0.113743  0  0.989215  0
H  H68  1  0.61869896  0.79943345  0.62666531  1  0.11929  0  0.124105  0.04205  0  1.003508  0
H  H69  1  0.88126133  0.17279799  0.37332804  1  0.11211  0  0.124158  0.042161  0  1.003277  0
H  H70  1  0.38130131  0.20056641  0.37333400  1  0.119299  0  0.124103  0.042047  0  1.003521  0
H  H71  1  0.11873825  0.82720194  0.62667213  1  0.11211  0  0.124159  0.04217  0  1.003269  0
H  H72  1  0.71633386  0.67509853  0.75029674  1  0.053801  0  0.099901  0.109318  0  1.021316  0
H  H73  1  0.78368629  0.92481366  0.24971482  1  0.059  0  0.099738  0.108783  0  1.021656  0
H  H74  1  0.28366647  0.32490151  0.24970353  1  0.053807  0  0.099916  0.109331  0  1.021323  0
H  H75  1  0.21631405  0.07518638  0.75028546  1  0.058999  0  0.099738  0.108784  0  1.021655  0
H  H76  1  0.81286136  0.69255018  0.69335663  1  0.139433  0  0.113817  0.142921  0  1.024176  0
H  H77  1  0.68715655  0.99918094  0.30667341  1  0.105808  0  0.113886  0.142446  0  1.024667  0
H  H78  1  0.18713814  0.30744956  0.30664257  1  0.139426  0  0.113861  0.143003  0  1.02413  0
H  H79  1  0.31284378  0.00081910  0.69332686  1  0.105803  0  0.11388  0.142439  0  1.024675  0
H  H80  1  0.68329177  0.66618772  0.63278187  1  0.030906  0  0.105613  0.116344  0  0.98944  0
H  H81  1  0.81673309  0.03342878  0.36722280  1  0.025866  0  0.105415  0.116167  0  0.989467  0
H  H82  1  0.31670780  0.33381221  0.36721830  1  0.030806  0  0.10561  0.11635  0  0.989443  0
H  H83  1  0.18326648  0.96657116  0.63277737  1  0.02587  0  0.105422  0.116176  0  0.989455  0
H  H84  1  0.86539155  0.87862782  0.83374444  1  0.088353  0  0.112686  0.135067  0  0.976504  0
H  H85  1  0.63455658  0.04484182  0.16627073  1  0.088501  0  0.112868  0.135235  0  0.976551  0
H  H86  1  0.13460878  0.12137159  0.16625521  1  0.088359  0  0.112684  0.135058  0  0.976514  0
H  H87  1  0.36544306  0.95515641  0.83372852  1  0.088506  0  0.112832  0.135195  0  0.97659  0
H  H88  1  0.77199316  0.85528352  0.89054525  1  0.055028  0  0.101825  0.109533  0  1.005569  0
H  H89  1  0.72797379  0.96474028  0.10945798  1  0.049641  0  0.102131  0.109565  0  1.005563  0
H  H90  1  0.22800717  0.14471589  0.10945440  1  0.055014  0  0.101829  0.109538  0  1.005544  0
H  H91  1  0.27202723  0.03525969  0.89054144  1  0.049639  0  0.102134  0.109556  0  1.00557  0
H  H92  1  0.76403921  0.96300487  0.86374411  1  0.080251  0  0.115925  0.136876  0  0.987376  0
H  H93  1  0.73586932  0.09926695  0.13626460  1  0.100848  0  0.116309  0.13767  0  0.987112  0
H  H94  1  0.23596036  0.03699443  0.13625543  1  0.080241  0  0.115937  0.136865  0  0.987403  0
H  H95  1  0.26413019  0.90073343  0.86373523  1  0.100847  0  0.116315  0.137678  0  0.987066  0
C  C96  1  0.33422273  0.11032860  0.55095050  1  1.594893  0  0.225002  0.634861  0  4.168496  0
C  C97  1  0.16578749  0.55933032  0.44903579  1  1.613887  0  0.225507  0.636576  0  4.167119  0
C  C98  1  0.66577754  0.88967188  0.44904944  1  1.595086  0  0.224968  0.634757  0  4.16859  0
C  C99  1  0.83421208  0.44066961  0.55096438  1  1.613886  0  0.225468  0.636504  0  4.167159  0
C  C100  1  0.25887350  0.18940046  0.58708378  1  0.01808  0  -0.021037  -0.043752  0  3.9823  0
C  C101  1  0.24112722  0.60228984  0.41291179  1  -0.037023  0  -0.021198  -0.044934  0  3.982756  0
C  C102  1  0.74112683  0.81059895  0.41291586  1  0.017898  0  -0.021034  -0.043704  0  3.982311  0
C  C103  1  0.75887311  0.39770958  0.58708786  1  -0.03703  0  -0.021195  -0.044912  0  3.982769  0
C  C104  1  0.19976983  0.22017406  0.52449655  1  -0.049829  0  -0.080052  -0.118205  0  3.953682  0
C  C105  1  0.30020389  0.69566280  0.47551011  1  -0.021473  0  -0.079928  -0.117287  0  3.954133  0
C  C106  1  0.80023043  0.77982580  0.47550276  1  -0.049608  0  -0.080031  -0.118191  0  3.953699  0
C  C107  1  0.69979644  0.30433661  0.52448954  1  -0.021481  0  -0.079928  -0.117301  0  3.954092  0
C  C108  1  0.13469521  0.29824452  0.55926653  1  -0.065376  0  -0.016747  -0.028868  0  3.994844  0
C  C109  1  0.36526021  0.73899652  0.44075443  1  0.002438  0  -0.016805  -0.027817  0  3.993747  0
C  C110  1  0.86530505  0.70175596  0.44073341  1  -0.065651  0  -0.016752  -0.028872  0  3.994849  0
C  C111  1  0.63473937  0.26100342  0.55924574  1  0.002456  0  -0.016793  -0.027818  0  3.993722  0
C  C112  1  0.12602806  0.34348720  0.65622870  1  0.014234  0  -0.072056  -0.142211  0  3.921185  0
C  C113  1  0.37394193  0.68729359  0.34379638  1  -0.02537  0  -0.072214  -0.142125  0  3.920601  0
C  C114  1  0.87397227  0.65651284  0.34377157  1  0.014228  0  -0.072047  -0.142212  0  3.921173  0
C  C115  1  0.62605764  0.31270572  0.65620315  1  -0.025407  0  -0.072202  -0.142098  0  3.920632  0
C  C116  1  0.18283167  0.31149274  0.71865029  1  -0.056226  0  -0.014466  0.072721  0  3.998851  0
C  C117  1  0.31716788  0.59286541  0.28136489  1  -0.076393  0  -0.015341  0.071865  0  3.99779  0
C  C118  1  0.81716866  0.68850667  0.28134936  1  -0.056215  0  -0.014516  0.072646  0  3.998844  0
C  C119  1  0.68283176  0.40713408  0.71863562  1  -0.076381  0  -0.015344  0.071906  0  3.997708  0
C  C120  1  0.25025222  0.23537521  0.68407283  1  -0.094207  0  -0.074838  -0.127576  0  3.906521  0
C  C121  1  0.24976076  0.55129245  0.31592605  1  -0.058561  0  -0.074206  -0.12575  0  3.905378  0
C  C122  1  0.74974735  0.76462409  0.31592670  1  -0.094204  0  -0.07483  -0.12756  0  3.906561  0
C  C123  1  0.75023956  0.44870697  0.68407359  1  -0.058245  0  -0.074196  -0.125783  0  3.905315  0
C  C124  1  0.17150577  0.36113375  0.82204738  1  0.364591  0  -0.058472  -0.015965  0  3.889701  0
C  C125  1  0.32851587  0.53912994  0.17797348  1  0.395504  0  -0.058105  -0.015575  0  3.889576  0
C  C126  1  0.82849449  0.63886610  0.17795193  1  0.364619  0  -0.058434  -0.015915  0  3.88962  0
C  C127  1  0.67148446  0.46087011  0.82202679  1  0.395496  0  -0.058094  -0.015595  0  3.889596  0
C  C128  1  0.11650715  0.30391569  0.92850014  1  0.477237  0  0.083661  0.262382  0  4.075369  0
C  C129  1  0.38352723  0.37547021  0.07150533  1  0.439001  0  0.083757  0.262479  0  4.076223  0
C  C130  1  0.88349242  0.69608425  0.07150003  1  0.477236  0  0.083671  0.262341  0  4.075474  0
C  C131  1  0.61647310  0.62452920  0.92849431  1  0.439005  0  0.083729  0.262447  0  4.076247  0
C  C132  1  0.09901739  0.40469408  0.99339265  1  -0.062961  0  -0.116511  -0.242238  0  4.029727  0
C  C133  1  0.40098710  0.41135490  0.00660473  1  -0.048362  0  -0.116612  -0.242294  0  4.029873  0
C  C134  1  0.90098295  0.59530596  0.00660762  1  -0.062854  0  -0.116539  -0.242314  0  4.029709  0
C  C135  1  0.59901323  0.58864451  0.99339491  1  -0.04834  0  -0.116612  -0.242296  0  4.029881  0
C  C136  1  0.06024551  0.42000599  0.07440641  1  -0.04475  0  -0.085101  -0.066424  0  4.000541  0
C  C137  1  0.43972935  0.34564935  0.92557240  1  -0.024975  0  -0.084394  -0.066116  0  4.000567  0
C  C138  1  0.93975482  0.57999342  0.92559324  1  -0.044877  0  -0.085121  -0.066389  0  4.000467  0
C  C139  1  0.56027099  0.65435069  0.07442788  1  -0.024977  0  -0.084378  -0.066118  0  4.000533  0
C  C140  1  0.04029219  0.33739123  0.09297476  1  0.022596  0  -0.02827  -0.052414  0  3.985273  0
C  C141  1  0.45968708  0.24446594  0.90700245  1  -0.007013  0  -0.028552  -0.051338  0  3.98435  0
C  C142  1  0.95970814  0.66260881  0.90702551  1  0.022596  0  -0.028288  -0.052498  0  3.985322  0
C  C143  1  0.54031325  0.75553410  0.09299782  1  -0.007031  0  -0.028499  -0.051192  0  3.984283  0
C  C144  1  0.05871535  0.23701547  0.02753716  1  -0.094972  0  -0.081428  -0.068133  0  3.99908  0
C  C145  1  0.44129286  0.20953019  0.97244906  1  -0.062482  0  -0.081807  -0.068192  0  3.998821  0
C  C146  1  0.94128422  0.76298446  0.97246301  1  -0.094979  0  -0.081391  -0.068003  0  3.99903  0
C  C147  1  0.55870753  0.79046941  0.02755155  1  -0.062485  0  -0.081829  -0.068204  0  3.998867  0
C  C148  1  0.09572466  0.21997905  0.94586179  1  -0.047159  0  -0.108286  -0.212992  0  4.010146  0
C  C149  1  0.40430999  0.27417035  0.05413753  1  -0.012656  0  -0.108471  -0.212699  0  4.008754  0
C  C150  1  0.90427567  0.78002099  0.05413849  1  -0.047021  0  -0.108287  -0.212973  0  4.010118  0
C  C151  1  0.59568958  0.72582958  0.94586264  1  -0.01264  0  -0.108437  -0.212706  0  4.008787  0
C  C152  1  0.00209557  0.35519804  0.18146149  1  1.533693  0  0.185674  0.568527  0  4.257318  0
C  C153  1  0.49787204  0.17377693  0.81851341  1  1.542929  0  0.185067  0.567865  0  4.256839  0
C  C154  1  0.99790400  0.64480189  0.81853867  1  1.533686  0  0.185655  0.568481  0  4.257389  0
C  C155  1  0.50212828  0.82622249  0.18148624  1  1.542918  0  0.185  0.567722  0  4.256974  0
C  C156  1  0.80293534  0.08673875  0.67693937  1  1.363883  0  0.186059  0.32925  0  4.088568  0
C  C157  1  0.69703358  0.40980848  0.32305511  1  1.370994  0  0.185933  0.328393  0  4.087393  0
C  C158  1  0.19706506  0.91326022  0.32306061  1  1.363772  0  0.186075  0.329221  0  4.088549  0
C  C159  1  0.30296606  0.59019039  0.67694476  1  1.371184  0  0.185941  0.328377  0  4.087465  0
C  C160  1  0.89160095  0.24961727  0.71058194  1  0.246176  0  -0.132002  -0.260019  0  3.868918  0
C  C161  1  0.60838606  0.53911746  0.28951391  1  0.231002  0  -0.131767  -0.261287  0  3.869683  0
C  C162  1  0.10839856  0.75038185  0.28941664  1  0.246153  0  -0.132016  -0.260071  0  3.868873  0
C  C163  1  0.39161428  0.46088258  0.71048637  1  0.231004  0  -0.131778  -0.261306  0  3.869677  0
C  C164  1  0.97848224  0.08672962  0.65505111  1  0.274974  0  -0.130765  -0.279779  0  3.92843  0
C  C165  1  0.52149117  0.43169196  0.34496719  1  0.259678  0  -0.130479  -0.280479  0  3.930044  0
C  C166  1  0.02151816  0.91326935  0.34494887  1  0.274959  0  -0.130733  -0.279752  0  3.928583  0
C  C167  1  0.47850916  0.56830745  0.65503246  1  0.259661  0  -0.130485  -0.280494  0  3.929927  0
C  C168  1  0.66189845  0.85778432  0.69701849  1  1.340243  0  0.181503  0.319054  0  4.115561  0
C  C169  1  0.83804959  0.16078311  0.30297761  1  1.359067  0  0.182221  0.319848  0  4.114195  0
C  C170  1  0.33810188  0.14221572  0.30298178  1  1.340224  0  0.181495  0.319045  0  4.115581  0
C  C171  1  0.16195068  0.83921738  0.69702233  1  1.359061  0  0.182229  0.31984  0  4.114214  0
C  C172  1  0.73433332  0.70663678  0.70309619  1  0.256761  0  -0.132127  -0.283117  0  3.900799  0
C  C173  1  0.76567486  0.00354866  0.29691599  1  0.295468  0  -0.131949  -0.281933  0  3.901157  0
C  C174  1  0.26566626  0.29336316  0.29690397  1  0.256862  0  -0.13218  -0.283221  0  3.900852  0
C  C175  1  0.23432547  0.99645138  0.70308428  1  0.295472  0  -0.131947  -0.281931  0  3.901152  0
C  C176  1  0.78469556  0.88317114  0.83920631  1  0.259551  0  -0.127204  -0.26694  0  3.879691  0
C  C177  1  0.71525037  0.04395915  0.16080354  1  0.241735  0  -0.128164  -0.267977  0  3.879241  0
C  C178  1  0.21530478  0.11682891  0.16079396  1  0.259577  0  -0.127212  -0.266913  0  3.879695  0
C  C179  1  0.28474920  0.95604079  0.83919663  1  0.241729  0  -0.128156  -0.267932  0  3.879205  0
C  C180  1  0.07587276  0.33550822  0.49431705  1  1.565731  0  0.213498  0.619157  0  4.180464  0
C  C181  1  0.42406624  0.84121561  0.50570937  1  1.573098  0  0.214407  0.619319  0  4.18229  0
C  C182  1  0.92412674  0.66449152  0.50568215  1  1.56576  0  0.213536  0.619189  0  4.18036  0
C  C183  1  0.57593327  0.15878414  0.49428984  1  1.57311  0  0.214394  0.619347  0  4.182242  0
N  N184  1  0.88783444  0.13899929  0.68150327  1  -1.215657  0  -0.279679  0.027527  0  3.703091  0
N  N185  1  0.61214236  0.45753246  0.31853482  1  -1.192551  0  -0.279888  0.028451  0  3.702529  0
N  N186  1  0.11216520  0.86099958  0.31849661  1  -1.215659  0  -0.279691  0.027633  0  3.703079  0
N  N187  1  0.38785798  0.54246758  0.68146546  1  -1.192557  0  -0.279894  0.028464  0  3.702505  0
N  N188  1  0.72186315  0.81730892  0.74546106  1  -1.218472  0  -0.279701  0.03105  0  3.710264  0
N  N189  1  0.77810050  0.07185788  0.25454433  1  -1.225779  0  -0.279224  0.031192  0  3.710343  0
N  N190  1  0.27813718  0.18269113  0.25453922  1  -1.218468  0  -0.279698  0.031055  0  3.710283  0
N  N191  1  0.22189984  0.92814216  0.74545595  1  -1.225793  0  -0.279228  0.031165  0  3.710361  0
O  O192  1  0.38193021  0.08163095  0.60967140  1  -1.194601  0  -0.382825  -0.64912  0  2.332795  0
O  O193  1  0.11806784  0.47192117  0.39031022  1  -1.199237  0  -0.383259  -0.65036  0  2.333425  0
O  O194  1  0.61806937  0.91836899  0.39032876  1  -1.194604  0  -0.382778  -0.649025  0  2.332845  0
O  O195  1  0.88193249  0.52807888  0.60969006  1  -1.199233  0  -0.383263  -0.650349  0  2.33343  0
O  O196  1  0.34424114  0.07953891  0.46422167  1  -1.19936  0  -0.38553  -0.674756  0  2.35048  0
O  O197  1  0.15578408  0.61525677  0.53577016  1  -1.20456  0  -0.385603  -0.675419  0  2.350352  0
O  O198  1  0.65575919  0.92046050  0.53577797  1  -1.199357  0  -0.38554  -0.674763  0  2.350484  0
O  O199  1  0.84421619  0.38474308  0.46422916  1  -1.204563  0  -0.385566  -0.675366  0  2.350373  0
O  O200  1  0.96294072  0.43988925  0.22814673  1  -1.19101  0  -0.384064  -0.642473  0  2.205648  0
O  O201  1  0.53700890  0.21177028  0.77181157  1  -1.194124  0  -0.384046  -0.642757  0  2.206823  0
O  O202  1  0.03705886  0.56011068  0.77185344  1  -1.190955  0  -0.384058  -0.642455  0  2.205665  0
O  O203  1  0.46299143  0.78822913  0.22818807  1  -1.194122  0  -0.384012  -0.642704  0  2.206867  0
O  O204  1  0.01097775  0.28571570  0.20982834  1  -1.169475  0  -0.387815  -0.635732  0  2.192959  0
O  O205  1  0.48900490  0.07593012  0.79016609  1  -1.178155  0  -0.387137  -0.635032  0  2.192077  0
O  O206  1  0.98902182  0.71428423  0.79017183  1  -1.16947  0  -0.387811  -0.635708  0  2.192965  0
O  O207  1  0.51099467  0.92406982  0.20983407  1  -1.178141  0  -0.387127  -0.635001  0  2.192094  0
O  O208  1  0.05074131  0.42884163  0.53147487  1  -1.207245  0  -0.41982  -0.729565  0  2.461698  0
O  O209  1  0.44923589  0.89738042  0.46855326  1  -1.209304  0  -0.420067  -0.729963  0  2.463977  0
O  O210  1  0.94925827  0.57115831  0.46852530  1  -1.207223  0  -0.419839  -0.729567  0  2.461658  0
O  O211  1  0.55076368  0.10261952  0.53144690  1  -1.209318  0  -0.420074  -0.729996  0  2.463943  0
O  O212  1  0.05100188  0.27529953  0.40446968  1  -1.187124  0  -0.370399  -0.620327  0  2.168755  0
O  O213  1  0.44889848  0.87087203  0.59556157  1  -1.187566  0  -0.370798  -0.620437  0  2.169199  0
O  O214  1  0.94899763  0.72470084  0.59553016  1  -1.187108  0  -0.370407  -0.62034  0  2.168699  0
O  O215  1  0.55110102  0.12912772  0.40443764  1  -1.18759  0  -0.370794  -0.620445  0  2.169202  0
O  O216  1  0.65349533  0.95283005  0.72671830  1  -1.151974  0  -0.357206  -0.539081  0  2.361456  0
O  O217  1  0.84642587  0.22613005  0.27327231  1  -1.159225  0  -0.358379  -0.540224  0  2.360133  0
O  O218  1  0.34650500  0.04716999  0.27328197  1  -1.151974  0  -0.357207  -0.539078  0  2.361456  0
O  O219  1  0.15357439  0.77387044  0.72672763  1  -1.159206  0  -0.358369  -0.540205  0  2.360138  0
O  O220  1  0.72170406  0.12652869  0.69574085  1  -1.169382  0  -0.349199  -0.528359  0  2.338123  0
O  O221  1  0.77826110  0.43080429  0.30425591  1  -1.170365  0  -0.349114  -0.528243  0  2.337228  0
O  O222  1  0.27829551  0.87347061  0.30425868  1  -1.169399  0  -0.349212  -0.52838  0  2.33816  0
O  O223  1  0.22173848  0.56919501  0.69574363  1  -1.170381  0  -0.349111  -0.528247  0  2.337288  0
O  O224  1  0.15148934  0.27884337  0.84562177  1  -1.080954  0  -0.17911  -0.216221  0  2.578668  0
O  O225  1  0.34857470  0.43327422  0.15440139  1  -1.08129  0  -0.178913  -0.216833  0  2.579301  0
O  O226  1  0.84851099  0.72115605  0.15437787  1  -1.080963  0  -0.179121  -0.216183  0  2.57866  0
O  O227  1  0.65142487  0.56672509  0.84559815  1  -1.081296  0  -0.178899  -0.216786  0  2.579288  0
