# generated using pymatgen
data_CoH17C22N5O6
_symmetry_space_group_name_H-M   'P 1'
_cell_length_a   9.32633356
_cell_length_b   10.07526406
_cell_length_c   12.14880000
_cell_angle_alpha   102.73411264
_cell_angle_beta   108.96170723
_cell_angle_gamma   98.75960989
_symmetry_Int_Tables_number   1
_chemical_formula_structural   CoH17C22N5O6
_chemical_formula_sum   'Co2 H34 C44 N10 O12'
_cell_volume   1021.57092579
_cell_formula_units_Z   2
loop_
 _symmetry_equiv_pos_site_id
 _symmetry_equiv_pos_as_xyz
  1  'x, y, z'
loop_
 _atom_site_type_symbol
 _atom_site_label
 _atom_site_symmetry_multiplicity
 _atom_site_fract_x
 _atom_site_fract_y
 _atom_site_fract_z
 _atom_site_occupancy
 _atom_site_pbe_bader_charge
 _atom_site_pbe_bader_spin_density
 _atom_site_pbe_cm5_charge
 _atom_site_pbe_ddec_charge
 _atom_site_pbe_ddec_spin_density
 _atom_site_pbe_ddec_sum_bond_order
 _atom_site_pbe_magmom
Co  Co0  1  0.21461898  0.92016899  0.82729499  1  1.207755  -2.558178  0.68719  0.833711  -2.776528  2.543624  -2.495
Co  Co1  1  0.78538045  0.07983077  0.17270589  1  1.207837  -2.558179  0.68717  0.833674  -2.776539  2.543593  -2.495
H  H2  1  0.98631121  0.13443691  0.78357494  1  0.189877  -0.000629  0.131575  0.110042  -7.4e-05  1.050895  -0.001
H  H3  1  0.01368935  0.86556284  0.21642541  1  0.189873  -0.000629  0.131591  0.110041  -7.4e-05  1.050879  -0.001
H  H4  1  0.63579272  0.62596984  0.28924895  1  0.084793  -8.1e-05  0.10664  0.108076  4.2e-05  1.011461  0.0
H  H5  1  0.36420274  0.37402782  0.71075056  1  0.084747  -8.1e-05  0.106649  0.108078  4.2e-05  1.011501  0.0
H  H6  1  0.27566937  0.29770781  0.44354777  1  0.051109  1.5e-05  0.098391  0.096461  7.6e-05  1.030303  0.0
H  H7  1  0.72433148  0.70229300  0.55645283  1  0.05108  1.5e-05  0.098383  0.096452  7.6e-05  1.030333  0.0
H  H8  1  0.31097241  0.66818605  0.67493564  1  0.189344  -0.000567  0.138516  0.118602  -9e-05  1.023874  -0.001
H  H9  1  0.68902759  0.33181580  0.32506495  1  0.189494  -0.000567  0.138527  0.118624  -9e-05  1.023861  -0.001
H  H10  1  0.41688045  0.41942437  0.24309179  1  0.104325  -0.000129  0.104831  0.10642  -2.5e-05  1.013225  0.0
H  H11  1  0.58311501  0.58057329  0.75690607  1  0.104502  -0.000129  0.104811  0.106397  -2.5e-05  1.013265  0.0
H  H12  1  0.35642802  0.03850195  0.63930671  1  0.09725  2.6e-05  0.101413  0.105735  0.000214  1.042872  0.0
H  H13  1  0.64357538  0.96149990  0.36069555  1  0.097232  2.6e-05  0.101375  0.105682  0.000214  1.04291  0.0
H  H14  1  0.96570276  0.70098708  0.35824778  1  0.177869  -0.000734  0.120963  0.131969  -0.000276  1.056546  0.0
H  H15  1  0.03429809  0.29901373  0.64175282  1  0.177861  -0.000734  0.120943  0.131938  -0.000276  1.056563  0.0
H  H16  1  0.97637684  0.89767997  0.56215473  1  0.106921  -0.001113  0.11835  0.112349  -0.00037  1.017789  -0.001
H  H17  1  0.02362486  0.10232398  0.43784419  1  0.106952  -0.001113  0.118365  0.11239  -0.00037  1.017757  -0.001
H  H18  1  0.54438757  0.26425120  0.50744693  1  0.098859  7e-06  0.097902  0.099751  1.4e-05  1.044667  0.0
H  H19  1  0.45561469  0.73575066  0.49255422  1  0.098839  7e-06  0.0979  0.099752  1.4e-05  1.044656  0.0
H  H20  1  0.78683704  0.02856860  0.58107693  1  0.091979  -2.9e-05  0.095447  0.088153  5.7e-05  1.054021  0.0
H  H21  1  0.21316438  0.97143430  0.41892420  1  0.092017  -2.9e-05  0.095456  0.088169  5.7e-05  1.054021  0.0
H  H22  1  0.18555395  0.35726909  0.04634112  1  0.117717  -3e-05  0.112882  0.115219  5.2e-05  1.025838  0.0
H  H23  1  0.81444208  0.64273067  0.95365644  1  0.11773  -3e-05  0.11287  0.115201  5.2e-05  1.025866  0.0
H  H24  1  0.72765143  0.19852432  0.79534320  1  0.095581  -0.000135  0.116557  0.113256  -3.4e-05  0.961877  0.0
H  H25  1  0.27235084  0.80147754  0.20466042  1  0.095605  -0.000134  0.116569  0.113287  -3.4e-05  0.961851  0.0
H  H26  1  0.58887314  0.07088341  0.81115258  1  0.109379  -0.000413  0.119564  0.120331  5.6e-05  1.007466  0.0
H  H27  1  0.41112770  0.92911740  0.18884885  1  0.109404  -0.000413  0.119574  0.120349  5.6e-05  1.007479  0.0
H  H28  1  0.94500007  0.76178820  0.88525473  1  0.114354  -0.001006  0.117574  0.113139  -0.00024  1.014597  -0.001
H  H29  1  0.05499823  0.23821156  0.11474422  1  0.114352  -0.001006  0.117563  0.113108  -0.00024  1.014602  -0.001
H  H30  1  0.66248161  0.84567097  0.84796135  1  0.198805  -0.000846  0.128022  0.148721  -0.00039  1.02854  0.0
H  H31  1  0.33751669  0.15432878  0.15203761  1  0.198833  -0.000846  0.128031  0.148741  -0.00039  1.028554  0.0
H  H32  1  0.14952120  0.54869007  0.32649910  1  0.108299  -0.000289  0.114676  0.104005  -0.000138  0.996631  0.0
H  H33  1  0.85048220  0.45131179  0.67350315  1  0.108273  -0.00029  0.114642  0.103989  -0.000138  0.996663  0.0
H  H34  1  0.09951675  0.43557786  0.40747475  1  0.103432  -0.000141  0.110156  0.098364  4.2e-05  0.998952  0.0
H  H35  1  0.90048552  0.56442399  0.59252722  1  0.10338  -0.000142  0.110146  0.098342  4.2e-05  0.998923  0.0
C  C36  1  0.52438292  0.68226476  0.12834087  1  0.024664  -0.007542  -0.009845  -0.057244  -0.003821  3.942424  -0.005
C  C37  1  0.47561481  0.31773290  0.87165838  1  0.02466  -0.007542  -0.009897  -0.057332  -0.003821  3.942597  -0.005
C  C38  1  0.37419263  0.74776822  0.93878782  1  1.652685  -0.003359  0.207839  0.583981  -0.003057  4.260761  -0.001
C  C39  1  0.62580709  0.25222839  0.06120844  1  1.652672  -0.003358  0.207801  0.583963  -0.003056  4.260401  -0.001
C  C40  1  0.39330922  0.65168641  0.02000554  1  0.019578  -0.003537  0.01126  -0.054687  -0.001168  3.864395  -0.002
C  C41  1  0.60668964  0.34831125  0.97999399  1  0.01962  -0.003537  0.011267  -0.054745  -0.001168  3.864525  -0.002
C  C42  1  0.93631976  0.04312563  0.80430070  1  0.940432  -0.001254  0.135393  0.071911  -0.000306  3.925589  -0.002
C  C43  1  0.06368194  0.95687413  0.19570157  1  0.940391  -0.001255  0.135327  0.071912  -0.000307  3.925627  -0.002
C  C44  1  0.58280526  0.03903586  0.62742106  1  -0.027508  -0.000266  -0.012975  0.086394  -0.000144  3.96419  0.0
C  C45  1  0.41719644  0.96096390  0.37257957  1  -0.027412  -0.000266  -0.012966  0.086416  -0.000144  3.964234  0.0
C  C46  1  0.53163247  0.59824773  0.20686545  1  -0.028542  -0.000768  -0.071703  -0.070437  -8e-06  3.938  0.0
C  C47  1  0.46836327  0.40175098  0.79313268  1  -0.028515  -0.000767  -0.071727  -0.070417  -8e-06  3.938097  0.0
C  C48  1  0.37423520  0.38682998  0.46837063  1  -0.06927  -0.000145  -0.091355  -0.132452  -5.3e-05  3.992415  0.0
C  C49  1  0.62576792  0.61317082  0.53162972  1  -0.069264  -0.000144  -0.09136  -0.132476  -5.3e-05  3.992485  0.0
C  C50  1  0.27492106  0.53184533  0.99469677  1  0.176089  -0.003336  0.081065  0.033677  -0.00171  3.92589  -0.002
C  C51  1  0.72507752  0.46815128  0.00530003  1  0.176065  -0.003335  0.081013  0.033669  -0.00171  3.925921  -0.002
C  C52  1  0.21876864  0.70345836  0.61681177  1  0.965368  -0.004324  0.144374  0.098489  -0.002859  3.888777  -0.004
C  C53  1  0.78123165  0.29654455  0.38318826  1  0.965196  -0.004325  0.14436  0.09843  -0.00286  3.888833  -0.004
C  C54  1  0.40970703  0.48341633  0.18114480  1  0.000447  -0.004349  -0.080225  -0.053028  -0.002225  3.984853  -0.003
C  C55  1  0.59028843  0.51658133  0.81885306  1  0.000285  -0.004349  -0.080241  -0.053088  -0.002224  3.984916  -0.003
C  C56  1  0.34641657  0.51873583  0.46390032  1  -0.031979  -0.000163  -0.013727  0.081126  -6.5e-05  3.980594  0.0
C  C57  1  0.65358570  0.48126602  0.53610165  1  -0.03201  -0.000163  -0.013757  0.081084  -6.5e-05  3.98074  0.0
C  C58  1  0.42071334  0.02265685  0.57893651  1  0.01316  -0.000122  -0.093834  -0.129052  -8e-06  3.971107  0.0
C  C59  1  0.57929006  0.97734501  0.42106492  1  0.013182  -0.000122  -0.093846  -0.129067  -8e-06  3.971079  0.0
C  C60  1  0.03835238  0.72357365  0.45335023  1  0.321498  -0.004054  0.002121  -0.104292  -0.002057  3.899486  -0.003
C  C61  1  0.96164932  0.27643030  0.54665034  1  0.321143  -0.004055  0.002136  -0.104288  -0.002057  3.899563  -0.003
C  C62  1  0.04340882  0.81948868  0.55507692  1  0.345066  -0.002753  -0.00525  -0.040443  -0.001606  4.018808  -0.002
C  C63  1  0.95659260  0.18051422  0.44492339  1  0.345061  -0.002754  -0.005248  -0.040476  -0.001606  4.018752  -0.002
C  C64  1  0.52588127  0.36785487  0.50392203  1  -0.017879  -0.000128  -0.091307  -0.130343  -5.1e-05  3.978423  0.0
C  C65  1  0.47412241  0.63214803  0.49608132  1  -0.017874  -0.000128  -0.091282  -0.130315  -5.1e-05  3.978303  0.0
C  C66  1  0.66055075  0.01563322  0.54651026  1  -0.163989  -0.000124  -0.097335  -0.138309  -3.3e-05  3.9994  0.0
C  C67  1  0.33945124  0.98436758  0.45349228  1  -0.164078  -0.000124  -0.097372  -0.13836  -3.3e-05  3.999396  0.0
C  C68  1  0.28073956  0.44918561  0.07355864  1  -0.007186  -0.000179  -0.074841  -0.107851  6.7e-05  3.964732  0.0
C  C69  1  0.71925731  0.55081310  0.92643895  1  -0.007161  -0.000178  -0.074766  -0.107715  6.8e-05  3.96466  0.0
C  C70  1  0.66965076  0.08609601  0.76414206  1  0.288811  -0.001321  -0.045627  -0.118999  -0.000756  3.871498  -0.001
C  C71  1  0.33035037  0.91390584  0.23586046  1  0.290455  -0.001319  -0.045668  -0.119107  -0.000756  3.871689  -0.001
C  C72  1  0.90879392  0.84976494  0.85652125  1  0.340886  -0.002422  -0.006246  -0.036829  -0.00138  3.995657  -0.002
C  C73  1  0.09120494  0.15023272  0.14347829  1  0.340911  -0.002422  -0.006221  -0.036731  -0.001381  3.995671  -0.002
C  C74  1  0.76993512  0.88921303  0.83772039  1  0.302708  -0.00478  0.006887  -0.099339  -0.00243  3.865405  -0.003
C  C75  1  0.23006431  0.11078673  0.16227967  1  0.302718  -0.00478  0.006866  -0.099415  -0.00243  3.865524  -0.003
C  C76  1  0.18033155  0.53278308  0.41716751  1  0.246333  -0.001063  -0.046111  -0.108118  -0.000643  3.876504  -0.001
C  C77  1  0.81967072  0.46721878  0.58283446  1  0.246342  -0.001062  -0.04606  -0.108058  -0.000642  3.876437  -0.001
C  C78  1  0.65829333  0.80824312  0.16815722  1  1.561061  -0.002196  0.201613  0.553588  -0.002173  4.239709  -0.001
C  C79  1  0.34170213  0.19175454  0.83184312  1  1.561157  -0.002196  0.201699  0.553689  -0.002173  4.239793  -0.001
N  N80  1  0.78989333  0.01140080  0.80454383  1  -1.23106  -0.004895  -0.236583  0.065093  -0.002114  3.76586  -0.004
N  N81  1  0.21010723  0.98859896  0.19545733  1  -1.232714  -0.004896  -0.236531  0.065145  -0.002114  3.765987  -0.004
N  N82  1  0.01126966  0.94618870  0.83507383  1  -1.214969  -0.072013  -0.370047  -0.315549  -0.037125  3.69576  -0.047
N  N83  1  0.98872949  0.05381001  0.16492679  1  -1.215012  -0.072017  -0.370033  -0.315576  -0.037125  3.695778  -0.047
N  N84  1  0.15644136  0.80615576  0.65651330  1  -1.225007  -0.068676  -0.369609  -0.32802  -0.035884  3.699336  -0.043
N  N85  1  0.84355892  0.19384715  0.34348672  1  -1.225001  -0.068677  -0.369602  -0.327995  -0.035884  3.699318  -0.043
N  N86  1  0.15013005  0.65128363  0.49407294  1  -1.228763  -0.005466  -0.237179  0.054527  -0.002413  3.73336  -0.004
N  N87  1  0.84986995  0.34871823  0.50592765  1  -1.228386  -0.005466  -0.237191  0.05457  -0.002414  3.733386  -0.004
N  N88  1  0.13944532  0.48680541  0.88064340  1  0.369749  -0.000511  0.056533  0.524187  -9.6e-05  4.179027  0.0
N  N89  1  0.86055581  0.51319225  0.11935341  1  0.369733  -0.000511  0.056476  0.523958  -9.6e-05  4.179108  0.0
O  O90  1  0.26773170  0.81515975  0.94478687  1  -1.130286  -0.103448  -0.327206  -0.545208  -0.052287  2.349711  -0.079
O  O91  1  0.73226830  0.18483791  0.05521048  1  -1.130333  -0.10344  -0.327198  -0.54519  -0.052282  2.349668  -0.079
O  O92  1  0.45215403  0.75581665  0.87375041  1  -1.151369  -0.018477  -0.30032  -0.534029  -0.008775  2.198938  -0.014
O  O93  1  0.54784427  0.24418311  0.12625266  1  -1.151373  -0.01848  -0.300269  -0.533982  -0.008776  2.198515  -0.014
O  O94  1  0.15211288  0.52757830  0.79405291  1  -0.484889  -0.001007  -0.113744  -0.333796  -0.000252  2.024782  -0.001
O  O95  1  0.84788995  0.47242146  0.20594388  1  -0.484761  -0.001006  -0.113677  -0.333624  -0.000251  2.024777  -0.001
O  O96  1  0.01825303  0.40813371  0.87438043  1  -0.486644  -0.000688  -0.139549  -0.359285  -0.000294  1.948587  -0.001
O  O97  1  0.98174867  0.59186185  0.12561367  1  -0.4867  -0.000688  -0.139515  -0.359184  -0.000293  1.948554  -0.001
O  O98  1  0.79079936  0.80762111  0.23778823  1  -1.182946  -0.014462  -0.319262  -0.552101  -0.006935  2.15125  -0.011
O  O99  1  0.20919978  0.19237760  0.76221239  1  -1.183066  -0.01446  -0.319258  -0.552072  -0.006934  2.151244  -0.011
O  O100  1  0.62262147  0.91333313  0.12938614  1  -1.133921  -0.097833  -0.31381  -0.527809  -0.049652  2.418869  -0.072
O  O101  1  0.37737654  0.08666558  0.87061585  1  -1.133913  -0.097833  -0.313869  -0.527892  -0.049655  2.418921  -0.072
