# generated using pymatgen
data_YH7(C3O4)2
_symmetry_space_group_name_H-M   'P 1'
_cell_length_a   8.05743848
_cell_length_b   9.54206440
_cell_length_c   12.27714037
_cell_angle_alpha   91.39803747
_cell_angle_beta   89.99998644
_cell_angle_gamma   89.99998531
_symmetry_Int_Tables_number   1
_chemical_formula_structural   YH7(C3O4)2
_chemical_formula_sum   'Y4 H28 C24 O32'
_cell_volume   943.64200672
_cell_formula_units_Z   4
loop_
 _symmetry_equiv_pos_site_id
 _symmetry_equiv_pos_as_xyz
  1  'x, y, z'
loop_
 _atom_site_type_symbol
 _atom_site_label
 _atom_site_symmetry_multiplicity
 _atom_site_fract_x
 _atom_site_fract_y
 _atom_site_fract_z
 _atom_site_occupancy
 _atom_site_hle17_bader_spin_density
 _atom_site_hle17_ddec_charge
 _atom_site_hle17_ddec_spin_density
 _atom_site_hle17_ddec_sum_bond_order
 _atom_site_hle17_magmom
 _atom_site_hse06_10hf_bader_spin_density
 _atom_site_hse06_10hf_ddec_charge
 _atom_site_hse06_10hf_ddec_spin_density
 _atom_site_hse06_10hf_ddec_sum_bond_order
 _atom_site_hse06_10hf_magmom
 _atom_site_hse06_bader_spin_density
 _atom_site_hse06_ddec_charge
 _atom_site_hse06_ddec_spin_density
 _atom_site_hse06_ddec_sum_bond_order
 _atom_site_hse06_magmom
 _atom_site_pbe_bader_spin_density
 _atom_site_pbe_cm5_charge
 _atom_site_pbe_ddec_charge
 _atom_site_pbe_ddec_spin_density
 _atom_site_pbe_ddec_sum_bond_order
 _atom_site_pbe_magmom
Y  Y0  1  0.44452571  0.69166873  0.41728474  1  0  2.067673  0  1.840035  0  0  1.866605  0  2.342751  0  0  1.939433  0  2.273208  0  0  1.29377  1.814456  0  2.390853  0
Y  Y1  1  0.94452585  0.80833180  0.08271510  1  0  2.067657  0  1.840074  0  0  1.866593  0  2.342779  0  0  1.939435  0  2.273212  0  0  1.293765  1.814444  0  2.390883  0
Y  Y2  1  0.55547415  0.30833110  0.58271566  1  0  2.067689  0  1.84004  0  0  1.866617  0  2.342766  0  0  1.939446  0  2.273214  0  0  1.293771  1.814466  0  2.390871  0
Y  Y3  1  0.05547401  0.19166803  0.91728448  1  0  2.067669  0  1.840035  0  0  1.866594  0  2.342757  0  0  1.939437  0  2.273185  0  0  1.293767  1.814444  0  2.390861  0
H  H4  1  0.83215022  0.43036100  0.17988589  1  0  0.134661  0  0.94577  0  0  0.138503  0  1.013369  0  0  0.143264  0  1.010427  0  0  0.115819  0.135258  0  1.01541  0
H  H5  1  0.33215140  0.06963832  0.32011343  1  0  0.134626  0  0.945805  0  0  0.138487  0  1.013375  0  0  0.143249  0  1.010431  0  0  0.115811  0.135236  0  1.015422  0
H  H6  1  0.16784840  0.56963883  0.82011369  1  0  0.13467  0  0.94579  0  0  0.138507  0  1.01338  0  0  0.143269  0  1.010438  0  0  0.115827  0.135259  0  1.015424  0
H  H7  1  0.66784846  0.93036151  0.67988697  1  0  0.134667  0  0.945774  0  0  0.138508  0  1.013372  0  0  0.143271  0  1.010428  0  0  0.11582  0.135261  0  1.015415  0
H  H8  1  0.68692667  0.17088758  0.29233368  1  0  0.127516  0  0.944178  0  0  0.132828  0  1.008824  0  0  0.137026  0  1.00666  0  0  0.114095  0.129708  0  1.010682  0
H  H9  1  0.18692656  0.32911177  0.20766648  1  0  0.127508  0  0.944145  0  0  0.132822  0  1.008788  0  0  0.137021  0  1.006623  0  0  0.114087  0.129702  0  1.010648  0
H  H10  1  0.31307319  0.82911225  0.70766591  1  0  0.127512  0  0.94418  0  0  0.132823  0  1.00883  0  0  0.137023  0  1.006665  0  0  0.114094  0.129704  0  1.010688  0
H  H11  1  0.81307329  0.67088806  0.79233392  1  0  0.127513  0  0.944182  0  0  0.132825  0  1.008828  0  0  0.137023  0  1.006665  0  0  0.114095  0.129704  0  1.010687  0
H  H12  1  0.89127559  0.86585543  0.49893261  1  0  0.135423  0  0.947404  0  0  0.140018  0  1.012386  0  0  0.144441  0  1.010004  0  0  0.119123  0.136842  0  1.01415  0
H  H13  1  0.39127562  0.63414407  0.00106803  1  0  0.135441  0  0.947371  0  0  0.14004  0  1.012352  0  0  0.144464  0  1.009966  0  0  0.119129  0.136863  0  1.014116  0
H  H14  1  0.10872427  0.13414440  0.50106860  1  0  0.135398  0  0.947449  0  0  0.140046  0  1.012378  0  0  0.144476  0  1.009991  0  0  0.11912  0.13687  0  1.01414  0
H  H15  1  0.60872424  0.36585576  0.99893156  1  0  0.135439  0  0.947373  0  0  0.140037  0  1.012356  0  0  0.144461  0  1.00997  0  0  0.11913  0.13686  0  1.01412  0
H  H16  1  0.64272761  0.96320666  0.42301584  1  0  0.4374  0  0.858619  0  0  0.405565  0  0.923093  0  0  0.417127  0  0.906243  0  0  0.301805  0.397322  0  0.935138  0
H  H17  1  0.14272765  0.53679394  0.07698405  1  0  0.437401  0  0.858624  0  0  0.405572  0  0.92309  0  0  0.417135  0  0.90624  0  0  0.301812  0.397328  0  0.935137  0
H  H18  1  0.35727224  0.03679422  0.57698458  1  0  0.437401  0  0.85862  0  0  0.405566  0  0.923093  0  0  0.417127  0  0.906245  0  0  0.301814  0.397322  0  0.935138  0
H  H19  1  0.85727221  0.46320589  0.92301554  1  0  0.43741  0  0.85861  0  0  0.405583  0  0.923074  0  0  0.417145  0  0.906224  0  0  0.301819  0.397339  0  0.935121  0
H  H20  1  0.70900057  0.87465908  0.32178450  1  0  0.432187  0  0.85661  0  0  0.403593  0  0.919961  0  0  0.414463  0  0.903966  0  0  0.307161  0.395794  0  0.931481  0
H  H21  1  0.20899930  0.62534150  0.17821537  1  0  0.432204  0  0.856594  0  0  0.403611  0  0.919935  0  0  0.41448  0  0.903941  0  0  0.307173  0.395811  0  0.931457  0
H  H22  1  0.29099929  0.12534179  0.67821510  1  0  0.432204  0  0.856588  0  0  0.403612  0  0.919934  0  0  0.414481  0  0.903939  0  0  0.307175  0.395812  0  0.931455  0
H  H23  1  0.79100056  0.37465833  0.82178421  1  0  0.432197  0  0.856596  0  0  0.403604  0  0.919944  0  0  0.414472  0  0.90395  0  0  0.307167  0.395803  0  0.931465  0
H  H24  1  0.48178448  0.75180274  0.18149614  1  0  0.437196  0  0.860547  0  0  0.406162  0  0.922748  0  0  0.417577  0  0.906362  0  0  0.303939  0.398075  0  0.934363  0
H  H25  1  0.98178331  0.74819778  0.31850451  1  0  0.437258  0  0.860476  0  0  0.406233  0  0.922659  0  0  0.417648  0  0.906273  0  0  0.30396  0.398146  0  0.934274  0
H  H26  1  0.51821662  0.24819709  0.81850426  1  0  0.437252  0  0.860475  0  0  0.406226  0  0.92266  0  0  0.417641  0  0.906275  0  0  0.30395  0.398139  0  0.934275  0
H  H27  1  0.01821655  0.25180205  0.68149589  1  0  0.43725  0  0.860481  0  0  0.406221  0  0.922673  0  0  0.417635  0  0.906288  0  0  0.303945  0.398133  0  0.934289  0
H  H28  1  0.30816229  0.81851306  0.21915395  1  0  0.429763  0  0.877801  0  0  0.396759  0  0.944192  0  0  0.408024  0  0.928083  0  0  0.305347  0.388856  0  0.95548  0
H  H29  1  0.80816239  0.68148645  0.28084589  1  0  0.429859  0  0.877668  0  0  0.396811  0  0.944121  0  0  0.408076  0  0.928012  0  0  0.305359  0.388908  0  0.955409  0
H  H30  1  0.69183757  0.18148677  0.78084563  1  0  0.429865  0  0.877656  0  0  0.39682  0  0.944103  0  0  0.408084  0  0.927996  0  0  0.305374  0.388917  0  0.955391  0
H  H31  1  0.19183746  0.31851337  0.71915451  1  0  0.42987  0  0.877652  0  0  0.396829  0  0.944096  0  0  0.408092  0  0.927989  0  0  0.305369  0.388926  0  0.955384  0
C  C32  1  0.15741830  0.85634925  0.46049884  1  0  0.689227  0  3.878477  0  0  0.637402  0  4.172884  0  0  0.672551  0  4.164592  0  0  0.215673  0.613608  0  4.177853  0
C  C33  1  0.65741850  0.64365030  0.03950021  1  0  0.689156  0  3.878647  0  0  0.637326  0  4.173065  0  0  0.672472  0  4.164779  0  0  0.215652  0.613531  0  4.178032  0
C  C34  1  0.84258155  0.14365058  0.53950156  1  0  0.689207  0  3.878552  0  0  0.637361  0  4.172996  0  0  0.672508  0  4.164708  0  0  0.215652  0.613566  0  4.177965  0
C  C35  1  0.34258135  0.35634953  0.96049856  1  0  0.689168  0  3.87845  0  0  0.637326  0  4.172895  0  0  0.672472  0  4.164608  0  0  0.215627  0.613532  0  4.177864  0
C  C36  1  0.69886093  0.44841217  0.33708183  1  0  0.752997  0  3.830207  0  0  0.705821  0  4.112726  0  0  0.743235  0  4.099819  0  0  0.242475  0.680412  0  4.12082  0
C  C37  1  0.19886093  0.05158822  0.16291754  1  0  0.752979  0  3.83014  0  0  0.705789  0  4.112685  0  0  0.743201  0  4.099782  0  0  0.242449  0.680381  0  4.12078  0
C  C38  1  0.30113893  0.55158871  0.66291778  1  0  0.752976  0  3.830258  0  0  0.705772  0  4.112806  0  0  0.743184  0  4.099902  0  0  0.24246  0.680364  0  4.120899  0
C  C39  1  0.80113893  0.94841161  0.83708205  1  0  0.752985  0  3.830209  0  0  0.705793  0  4.112749  0  0  0.743206  0  4.099847  0  0  0.242463  0.680385  0  4.120843  0
C  C40  1  0.77074609  0.36990151  0.24262158  1  0  -0.17139  0  3.621492  0  0  -0.191158  0  3.875555  0  0  -0.197624  0  3.889178  0  0  -0.076542  -0.187161  0  3.866506  0
C  C41  1  0.27074603  0.13009887  0.25737777  1  0  -0.171365  0  3.621536  0  0  -0.191122  0  3.875579  0  0  -0.197586  0  3.889202  0  0  -0.076519  -0.18712  0  3.866533  0
C  C42  1  0.22925377  0.63009832  0.75737800  1  0  -0.171409  0  3.621572  0  0  -0.191144  0  3.875618  0  0  -0.19761  0  3.889241  0  0  -0.076545  -0.187144  0  3.86657  0
C  C43  1  0.72925383  0.86990200  0.74262184  1  0  -0.17142  0  3.621527  0  0  -0.191189  0  3.875602  0  0  -0.197655  0  3.889225  0  0  -0.076555  -0.187188  0  3.866555  0
C  C44  1  0.74897989  0.23095888  0.22973018  1  0  -0.152268  0  3.611385  0  0  -0.171812  0  3.861805  0  0  -0.177174  0  3.876215  0  0  -0.072981  -0.168115  0  3.852134  0
C  C45  1  0.24897978  0.26904045  0.27026997  1  0  -0.152249  0  3.611415  0  0  -0.171805  0  3.861824  0  0  -0.177167  0  3.876237  0  0  -0.072963  -0.168108  0  3.852153  0
C  C46  1  0.25101997  0.76904095  0.77026941  1  0  -0.152264  0  3.611386  0  0  -0.171822  0  3.861797  0  0  -0.177185  0  3.876207  0  0  -0.072977  -0.168125  0  3.852124  0
C  C47  1  0.75102007  0.73095937  0.72973043  1  0  -0.152242  0  3.611375  0  0  -0.171786  0  3.861794  0  0  -0.177148  0  3.876205  0  0  -0.072971  -0.168089  0  3.852123  0
C  C48  1  0.00290392  0.93026762  0.49246575  1  0  -0.153941  0  3.625723  0  0  -0.171893  0  3.879509  0  0  -0.177354  0  3.893353  0  0  -0.070603  -0.168281  0  3.870322  0
C  C49  1  0.50290416  0.56973196  0.00753495  1  0  -0.153957  0  3.625702  0  0  -0.171911  0  3.879477  0  0  -0.177369  0  3.893315  0  0  -0.070618  -0.168297  0  3.870289  0
C  C50  1  0.99709594  0.06973221  0.50753546  1  0  -0.15391  0  3.625775  0  0  -0.171895  0  3.879528  0  0  -0.177362  0  3.893376  0  0  -0.070588  -0.168282  0  3.870342  0
C  C51  1  0.49709570  0.43026787  0.99246464  1  0  -0.153931  0  3.625682  0  0  -0.171876  0  3.87946  0  0  -0.177335  0  3.893299  0  0  -0.070591  -0.168264  0  3.870273  0
C  C52  1  0.81546755  0.14958144  0.13416652  1  0  0.742831  0  3.856068  0  0  0.70005  0  4.138822  0  0  0.736838  0  4.126564  0  0  0.234677  0.675072  0  4.14628  0
C  C53  1  0.31546738  0.35041893  0.36583364  1  0  0.742948  0  3.855994  0  0  0.700181  0  4.138736  0  0  0.736966  0  4.126482  0  0  0.23474  0.675203  0  4.146197  0
C  C54  1  0.18453231  0.85041839  0.86583388  1  0  0.74296  0  3.855965  0  0  0.700186  0  4.138708  0  0  0.736975  0  4.126448  0  0  0.234733  0.675208  0  4.146169  0
C  C55  1  0.68453247  0.64958195  0.63416597  1  0  0.742824  0  3.856075  0  0  0.700042  0  4.138831  0  0  0.736832  0  4.126571  0  0  0.234674  0.675065  0  4.146289  0
O  O56  1  0.30129032  0.90259532  0.48749561  1  0  -0.671827  0  1.979086  0  0  -0.599834  0  2.204333  0  0  -0.629336  0  2.194308  0  0  -0.329262  -0.579501  0  2.211017  0
O  O57  1  0.80128930  0.59740629  0.01250102  1  0  -0.671783  0  1.979142  0  0  -0.599807  0  2.2044  0  0  -0.629313  0  2.194378  0  0  -0.329256  -0.579475  0  2.211089  0
O  O58  1  0.69870954  0.09740450  0.51250479  1  0  -0.671825  0  1.979106  0  0  -0.599833  0  2.204361  0  0  -0.629334  0  2.194334  0  0  -0.329254  -0.5795  0  2.211047  0
O  O59  1  0.19870931  0.40259564  0.98749617  1  0  -0.671782  0  1.979025  0  0  -0.599806  0  2.2043  0  0  -0.629312  0  2.19428  0  0  -0.329231  -0.579466  0  2.210972  0
O  O60  1  0.38590164  0.73832042  0.23226368  1  0  -0.889638  0  1.910872  0  0  -0.825984  0  2.10956  0  0  -0.851003  0  2.07672  0  0  -0.613637  -0.808405  0  2.132398  0
O  O61  1  0.88590173  0.76167908  0.26773696  1  0  -0.889793  0  1.910772  0  0  -0.826111  0  2.109519  0  0  -0.85113  0  2.076676  0  0  -0.613671  -0.808531  0  2.132359  0
O  O62  1  0.61409821  0.26167941  0.76773672  1  0  -0.889775  0  1.910768  0  0  -0.826095  0  2.109519  0  0  -0.851114  0  2.07668  0  0  -0.613653  -0.808515  0  2.132359  0
O  O63  1  0.11409937  0.23832075  0.73226344  1  0  -0.889776  0  1.910771  0  0  -0.8261  0  2.109513  0  0  -0.85112  0  2.076672  0  0  -0.613645  -0.80852  0  2.132353  0
O  O64  1  0.66490595  0.57876034  0.32248154  1  0  -0.710593  0  2.042231  0  0  -0.63482  0  2.27398  0  0  -0.66566  0  2.26251  0  0  -0.354869  -0.613205  0  2.281314  0
O  O65  1  0.16490583  0.92124025  0.17751835  1  0  -0.71055  0  2.042227  0  0  -0.634796  0  2.273979  0  0  -0.665637  0  2.262508  0  0  -0.35486  -0.613181  0  2.281313  0
O  O66  1  0.33509390  0.42123949  0.67751805  1  0  -0.710586  0  2.042203  0  0  -0.634796  0  2.273954  0  0  -0.665633  0  2.262481  0  0  -0.354877  -0.613181  0  2.281289  0
O  O67  1  0.83509402  0.07876063  0.82248207  1  0  -0.710579  0  2.042228  0  0  -0.634779  0  2.273961  0  0  -0.665619  0  2.262488  0  0  -0.354867  -0.613165  0  2.281295  0
O  O68  1  0.14441668  0.74298897  0.40317896  1  0  -0.648508  0  1.972209  0  0  -0.580505  0  2.188008  0  0  -0.608412  0  2.178061  0  0  -0.325385  -0.561138  0  2.19449  0
O  O69  1  0.64441807  0.75700953  0.09682088  1  0  -0.64848  0  1.97228  0  0  -0.580458  0  2.188073  0  0  -0.608368  0  2.178128  0  0  -0.325371  -0.561091  0  2.194556  0
O  O70  1  0.85558318  0.25701086  0.59682062  1  0  -0.648494  0  1.972223  0  0  -0.580482  0  2.188036  0  0  -0.608392  0  2.178091  0  0  -0.325382  -0.561116  0  2.194519  0
O  O71  1  0.35558303  0.24298925  0.90317949  1  0  -0.64851  0  1.972206  0  0  -0.580491  0  2.188009  0  0  -0.6084  0  2.178062  0  0  -0.325388  -0.561126  0  2.194492  0
O  O72  1  0.60823901  0.89381690  0.36545191  1  0  -0.873109  0  1.843865  0  0  -0.821729  0  2.041347  0  0  -0.842945  0  2.006731  0  0  -0.615281  -0.806655  0  2.06566  0
O  O73  1  0.10823776  0.60618266  0.13454796  1  0  -0.873128  0  1.843863  0  0  -0.821753  0  2.041321  0  0  -0.84297  0  2.006704  0  0  -0.615297  -0.806679  0  2.065636  0
O  O74  1  0.39176209  0.10618293  0.63454767  1  0  -0.873122  0  1.843853  0  0  -0.821743  0  2.041336  0  0  -0.842961  0  2.006723  0  0  -0.615298  -0.80667  0  2.06565  0
O  O75  1  0.89176210  0.39381717  0.86545163  1  0  -0.873128  0  1.843851  0  0  -0.821751  0  2.041312  0  0  -0.842968  0  2.006697  0  0  -0.615297  -0.806677  0  2.065627  0
O  O76  1  0.85364967  0.21562402  0.04860837  1  0  -0.714919  0  2.014677  0  0  -0.655708  0  2.26671  0  0  -0.685179  0  2.253725  0  0  -0.377565  -0.634853  0  2.275021  0
O  O77  1  0.35364949  0.28437635  0.45139097  1  0  -0.714984  0  2.014657  0  0  -0.655786  0  2.266707  0  0  -0.685255  0  2.253725  0  0  -0.377614  -0.63493  0  2.275019  0
O  O78  1  0.14635019  0.78437581  0.95139121  1  0  -0.714998  0  2.014655  0  0  -0.655788  0  2.266685  0  0  -0.685258  0  2.253698  0  0  -0.377617  -0.634933  0  2.274999  0
O  O79  1  0.64635037  0.71562453  0.54860864  1  0  -0.714921  0  2.01469  0  0  -0.655708  0  2.266721  0  0  -0.685178  0  2.253735  0  0  -0.377566  -0.634853  0  2.275031  0
O  O80  1  0.83327844  0.01877799  0.14709102  1  0  -0.691876  0  2.012058  0  0  -0.632159  0  2.257843  0  0  -0.661439  0  2.245845  0  0  -0.359666  -0.611807  0  2.265425  0
O  O81  1  0.33327824  0.48122238  0.35290832  1  0  -0.691924  0  2.012024  0  0  -0.632218  0  2.257802  0  0  -0.661497  0  2.24581  0  0  -0.359678  -0.611866  0  2.265385  0
O  O82  1  0.16672142  0.98122184  0.85290856  1  0  -0.691916  0  2.012012  0  0  -0.632203  0  2.257789  0  0  -0.661482  0  2.245789  0  0  -0.35967  -0.61185  0  2.265372  0
O  O83  1  0.66672162  0.51877850  0.64709129  1  0  -0.69187  0  2.012047  0  0  -0.632154  0  2.257828  0  0  -0.661432  0  2.24583  0  0  -0.359661  -0.611801  0  2.265411  0
O  O84  1  0.66679242  0.38719130  0.42430124  1  0  -0.708833  0  2.102488  0  0  -0.647727  0  2.35702  0  0  -0.677875  0  2.34623  0  0  -0.358104  -0.626305  0  2.363768  0
O  O85  1  0.16679243  0.11280806  0.07569893  1  0  -0.708841  0  2.102462  0  0  -0.647732  0  2.356993  0  0  -0.677888  0  2.346216  0  0  -0.358112  -0.62631  0  2.363741  0
O  O86  1  0.33320744  0.61280853  0.57569916  1  0  -0.708811  0  2.102517  0  0  -0.647695  0  2.357049  0  0  -0.677847  0  2.34627  0  0  -0.358085  -0.626273  0  2.363795  0
O  O87  1  0.83320743  0.88719177  0.92430066  1  0  -0.70881  0  2.102467  0  0  -0.647705  0  2.357009  0  0  -0.677854  0  2.346218  0  0  -0.358095  -0.626283  0  2.363756  0
