# generated using pymatgen
data_CoH2C4O3
_symmetry_space_group_name_H-M   'P 1'
_cell_length_a   6.48632402
_cell_length_b   14.92299711
_cell_length_c   14.95452572
_cell_angle_alpha   117.99067162
_cell_angle_beta   98.25889570
_cell_angle_gamma   98.35538879
_symmetry_Int_Tables_number   1
_chemical_formula_structural   CoH2C4O3
_chemical_formula_sum   'Co6 H12 C24 O18'
_cell_volume   1226.89371128
_cell_formula_units_Z   6
loop_
 _symmetry_equiv_pos_site_id
 _symmetry_equiv_pos_as_xyz
  1  'x, y, z'
loop_
 _atom_site_type_symbol
 _atom_site_label
 _atom_site_symmetry_multiplicity
 _atom_site_fract_x
 _atom_site_fract_y
 _atom_site_fract_z
 _atom_site_occupancy
 _atom_site_hle17_bader_spin_density
 _atom_site_hle17_ddec_charge
 _atom_site_hle17_ddec_spin_density
 _atom_site_hle17_ddec_sum_bond_order
 _atom_site_hle17_magmom
 _atom_site_hse06_10hf_bader_spin_density
 _atom_site_hse06_10hf_ddec_charge
 _atom_site_hse06_10hf_ddec_spin_density
 _atom_site_hse06_10hf_ddec_sum_bond_order
 _atom_site_hse06_10hf_magmom
 _atom_site_hse06_bader_spin_density
 _atom_site_hse06_ddec_charge
 _atom_site_hse06_ddec_spin_density
 _atom_site_hse06_ddec_sum_bond_order
 _atom_site_hse06_magmom
 _atom_site_pbe_bader_spin_density
 _atom_site_pbe_cm5_charge
 _atom_site_pbe_ddec_charge
 _atom_site_pbe_ddec_spin_density
 _atom_site_pbe_ddec_sum_bond_order
 _atom_site_pbe_magmom
Co  Co0  1  0.46423141  0.27269932  0.58358645  1  0  0.752867  0  2.855709  0  0  0.821492  0  3.252493  0  0  0.91385  0  3.168702  0  0  0.55951  0.768817  0  3.304938  0
Co  Co1  1  0.19160932  0.31100578  0.72812005  1  0  0.752691  0  2.853569  0  0  0.821807  0  3.249765  0  0  0.914254  0  3.165815  0  0  0.559218  0.768652  0  3.302741  0
Co  Co2  1  0.88127572  0.41769471  0.68994425  1  0  0.75223  0  2.855639  0  0  0.82268  0  3.252123  0  0  0.91496  0  3.168435  0  0  0.559257  0.769848  0  3.304667  0
Co  Co3  1  0.53605194  0.72768588  0.41666971  1  0  0.751365  0  2.853285  0  0  0.821321  0  3.250287  0  0  0.91387  0  3.16631  0  0  0.55902  0.768351  0  3.303043  0
Co  Co4  1  0.80813349  0.68847888  0.27175259  1  0  0.752281  0  2.853042  0  0  0.822807  0  3.24928  0  0  0.915032  0  3.165475  0  0  0.560081  0.769861  0  3.302014  0
Co  Co5  1  0.11894580  0.58229123  0.31073146  1  0  0.752324  0  2.853394  0  0  0.8229  0  3.249981  0  0  0.915105  0  3.166303  0  0  0.559423  0.770086  0  3.302562  0
H  H6  1  0.32700752  0.22293984  0.47970255  1  0  -0.121698  0  0.763971  0  0  -0.16932  0  0.890912  0  0  -0.177665  0  0.881272  0  0  -0.031426  -0.163897  0  0.896993  0
H  H7  1  0.10369220  0.25661258  0.77772828  1  0  -0.12167  0  0.763163  0  0  -0.169084  0  0.889687  0  0  -0.177432  0  0.88003  0  0  -0.031311  -0.163817  0  0.895929  0
H  H8  1  0.84829642  0.52190492  0.74426427  1  0  -0.121457  0  0.76356  0  0  -0.169161  0  0.890263  0  0  -0.177456  0  0.880535  0  0  -0.03128  -0.163811  0  0.896433  0
H  H9  1  0.67304525  0.77830541  0.52071274  1  0  -0.121567  0  0.7635  0  0  -0.168834  0  0.889867  0  0  -0.177113  0  0.880141  0  0  -0.031326  -0.16352  0  0.896104  0
H  H10  1  0.89551071  0.74216612  0.22142814  1  0  -0.12177  0  0.763557  0  0  -0.169058  0  0.889878  0  0  -0.177537  0  0.880392  0  0  -0.031095  -0.163678  0  0.895978  0
H  H11  1  0.15191620  0.47803957  0.25692911  1  0  -0.121006  0  0.763465  0  0  -0.168679  0  0.890108  0  0  -0.177022  0  0.880452  0  0  -0.030983  -0.16331  0  0.89625  0
H  H12  1  0.83460897  0.44409946  0.46587892  1  0  0.134381  0  0.933869  0  0  0.142614  0  0.993482  0  0  0.14643  0  0.990894  0  0  0.119028  0.13996  0  0.995273  0
H  H13  1  0.39045233  0.02152311  0.55519078  1  0  0.134874  0  0.932877  0  0  0.143225  0  0.992092  0  0  0.14702  0  0.989523  0  0  0.119271  0.140576  0  0.993855  0
H  H14  1  0.36872357  0.53431734  0.97850624  1  0  0.133622  0  0.933378  0  0  0.142029  0  0.992868  0  0  0.145868  0  0.990263  0  0  0.118936  0.139347  0  0.994668  0
H  H15  1  0.16522462  0.55612051  0.53471046  1  0  0.1341  0  0.93367  0  0  0.142377  0  0.993407  0  0  0.146195  0  0.99081  0  0  0.118845  0.1397  0  0.995215  0
H  H16  1  0.60963035  0.97849654  0.44231985  1  0  0.135059  0  0.931793  0  0  0.142953  0  0.991739  0  0  0.146782  0  0.989164  0  0  0.119068  0.140281  0  0.993535  0
H  H17  1  0.63082413  0.46560891  0.02192628  1  0  0.133413  0  0.934039  0  0  0.141352  0  0.994015  0  0  0.145164  0  0.991486  0  0  0.11833  0.138676  0  0.995808  0
C  C18  1  0.24770014  0.43497721  0.61235174  1  0  0.659324  0  3.749256  0  0  0.629901  0  4.029495  0  0  0.676872  0  4.013863  0  0  0.240944  0.594614  0  4.043636  0
C  C19  1  0.81317609  0.17755157  0.56547419  1  0  0.663402  0  3.742014  0  0  0.631417  0  4.028577  0  0  0.678401  0  4.012713  0  0  0.240585  0.59617  0  4.042877  0
C  C20  1  0.63552995  0.38885940  0.82319961  1  0  0.660553  0  3.747971  0  0  0.632781  0  4.028793  0  0  0.679034  0  4.012822  0  0  0.242261  0.597514  0  4.043082  0
C  C21  1  0.75273337  0.56553574  0.38861516  1  0  0.660344  0  3.747302  0  0  0.630455  0  4.027655  0  0  0.677435  0  4.01202  0  0  0.241315  0.595127  0  4.041841  0
C  C22  1  0.18687097  0.82254924  0.43347390  1  0  0.660534  0  3.746794  0  0  0.632599  0  4.027186  0  0  0.679538  0  4.011354  0  0  0.241782  0.598154  0  4.041626  0
C  C23  1  0.36423591  0.61054252  0.17705989  1  0  0.661153  0  3.748484  0  0  0.630132  0  4.030372  0  0  0.677167  0  4.014511  0  0  0.240088  0.594863  0  4.044643  0
C  C24  1  0.37893445  0.46588689  0.55419551  1  0  -0.148539  0  3.741951  0  0  -0.142797  0  3.987139  0  0  -0.155776  0  4.009587  0  0  -0.015105  -0.134712  0  3.974364  0
C  C25  1  0.91336145  0.08831042  0.53371650  1  0  -0.13965  0  3.725128  0  0  -0.138007  0  3.979313  0  0  -0.150583  0  4.001211  0  0  -0.014384  -0.130258  0  3.966948  0
C  C26  1  0.82479056  0.44669578  0.91219393  1  0  -0.143294  0  3.731354  0  0  -0.144145  0  3.987998  0  0  -0.154227  0  4.006707  0  0  -0.016102  -0.136248  0  3.975537  0
C  C27  1  0.62128378  0.53463248  0.44667011  1  0  -0.149716  0  3.74129  0  0  -0.142623  0  3.985367  0  0  -0.155609  0  4.007805  0  0  -0.015948  -0.134517  0  3.972596  0
C  C28  1  0.08656459  0.91169189  0.46439152  1  0  -0.138116  0  3.728223  0  0  -0.138024  0  3.98074  0  0  -0.150649  0  4.002655  0  0  -0.014616  -0.132996  0  3.971961  0
C  C29  1  0.17483868  0.55286246  0.08819207  1  0  -0.14893  0  3.741692  0  0  -0.141479  0  3.985647  0  0  -0.154428  0  4.007936  0  0  -0.015687  -0.133526  0  3.973089  0
C  C30  1  0.57223195  0.43371181  0.53541282  1  0  0.307929  0  3.76351  0  0  0.299464  0  4.039821  0  0  0.313104  0  4.061326  0  0  0.09016  0.289345  0  4.026564  0
C  C31  1  0.13861271  0.10161239  0.56620793  1  0  0.305654  0  3.757655  0  0  0.295825  0  4.035701  0  0  0.309316  0  4.05725  0  0  0.089394  0.285911  0  4.022274  0
C  C32  1  0.03690026  0.46546300  0.89879224  1  0  0.308787  0  3.755444  0  0  0.298906  0  4.038327  0  0  0.311696  0  4.059474  0  0  0.091352  0.288716  0  4.025153  0
C  C33  1  0.42802559  0.56684452  0.46545355  1  0  0.307298  0  3.762519  0  0  0.297786  0  4.039713  0  0  0.311445  0  4.061253  0  0  0.090184  0.287685  0  4.0264  0
C  C34  1  0.86119374  0.89833622  0.43212054  1  0  0.303845  0  3.758156  0  0  0.296885  0  4.035077  0  0  0.310467  0  4.05655  0  0  0.090271  0.287655  0  4.02221  0
C  C35  1  0.96276558  0.53406703  0.10160321  1  0  0.304843  0  3.764552  0  0  0.295946  0  4.040565  0  0  0.30962  0  4.062145  0  0  0.09027  0.285739  0  4.02741  0
C  C36  1  0.68828795  0.46919606  0.48177357  1  0  -0.123524  0  3.660349  0  0  -0.1625  0  3.917786  0  0  -0.165144  0  3.936644  0  0  -0.07778  -0.160825  0  3.905739  0
C  C37  1  0.21909019  0.01235669  0.53015438  1  0  -0.127423  0  3.655335  0  0  -0.163763  0  3.914559  0  0  -0.166466  0  3.933331  0  0  -0.077866  -0.161151  0  3.903306  0
C  C38  1  0.20654596  0.51844429  0.98776766  1  0  -0.124845  0  3.658384  0  0  -0.162665  0  3.916571  0  0  -0.165346  0  3.93562  0  0  -0.078873  -0.160934  0  3.904577  0
C  C39  1  0.31180468  0.53123282  0.51898044  1  0  -0.122279  0  3.658547  0  0  -0.160897  0  3.916782  0  0  -0.163537  0  3.935644  0  0  -0.077187  -0.159209  0  3.904713  0
C  C40  1  0.78088566  0.98764623  0.46767388  1  0  -0.127179  0  3.653254  0  0  -0.163533  0  3.911845  0  0  -0.166352  0  3.930653  0  0  -0.077627  -0.16162  0  3.8996  0
C  C41  1  0.79305284  0.48124782  0.01263754  1  0  -0.123996  0  3.658377  0  0  -0.159687  0  3.91791  0  0  -0.163235  0  3.936048  0  0  -0.07756  -0.157937  0  3.905927  0
O  O42  1  0.30224358  0.37000573  0.63973935  1  0  -0.514367  0  2.442361  0  0  -0.494349  0  2.726233  0  0  -0.539801  0  2.714077  0  0  -0.300948  -0.46585  0  2.736186  0
O  O43  1  0.93253032  0.26993574  0.63117015  1  0  -0.518175  0  2.440945  0  0  -0.496317  0  2.725688  0  0  -0.54164  0  2.713305  0  0  -0.301008  -0.467987  0  2.735848  0
O  O44  1  0.66293915  0.36168620  0.73100385  1  0  -0.517834  0  2.443865  0  0  -0.496739  0  2.726387  0  0  -0.54216  0  2.714366  0  0  -0.301785  -0.468461  0  2.736589  0
O  O45  1  0.69876644  0.63064928  0.36132254  1  0  -0.514628  0  2.443129  0  0  -0.494683  0  2.727143  0  0  -0.540104  0  2.714881  0  0  -0.301036  -0.466179  0  2.737195  0
O  O46  1  0.06755366  0.72996973  0.36855305  1  0  -0.51707  0  2.442596  0  0  -0.4968  0  2.725795  0  0  -0.542005  0  2.713315  0  0  -0.301192  -0.468482  0  2.735665  0
O  O47  1  0.33742328  0.63758676  0.26931385  1  0  -0.51712  0  2.44531  0  0  -0.496433  0  2.729828  0  0  -0.541666  0  2.717282  0  0  -0.301235  -0.468149  0  2.740069  0
O  O48  1  0.08628449  0.47217663  0.63593048  1  0  -0.484113  0  2.112504  0  0  -0.458222  0  2.361508  0  0  -0.494048  0  2.346621  0  0  -0.271278  -0.435177  0  2.372673  0
O  O49  1  0.61466546  0.16414058  0.52848833  1  0  -0.487237  0  2.112006  0  0  -0.459499  0  2.362133  0  0  -0.495381  0  2.347274  0  0  -0.270857  -0.436476  0  2.373289  0
O  O50  1  0.45034642  0.36504268  0.83657226  1  0  -0.48446  0  2.113472  0  0  -0.458225  0  2.361922  0  0  -0.494195  0  2.347348  0  0  -0.270894  -0.435115  0  2.373084  0
O  O51  1  0.91400781  0.52819172  0.36502672  1  0  -0.484541  0  2.112858  0  0  -0.458421  0  2.362029  0  0  -0.49424  0  2.347134  0  0  -0.27155  -0.435372  0  2.373217  0
O  O52  1  0.38539970  0.83623950  0.47066770  1  0  -0.486733  0  2.11516  0  0  -0.46017  0  2.36316  0  0  -0.496112  0  2.348309  0  0  -0.271948  -0.437027  0  2.374027  0
O  O53  1  0.54925335  0.63427316  0.16349055  1  0  -0.483909  0  2.113325  0  0  -0.457362  0  2.362889  0  0  -0.493226  0  2.348035  0  0  -0.270099  -0.434296  0  2.374018  0
O  O54  1  0.65187467  0.36892976  0.56409551  1  0  -0.46092  0  2.27713  0  0  -0.46771  0  2.575869  0  0  -0.519379  0  2.575084  0  0  -0.313374  -0.433189  0  2.5764  0
O  O55  1  0.28300397  0.19511724  0.63183302  1  0  -0.465113  0  2.277663  0  0  -0.465865  0  2.571047  0  0  -0.517635  0  2.570266  0  0  -0.312981  -0.431435  0  2.571742  0
O  O56  1  0.08801719  0.43715999  0.80545909  1  0  -0.460408  0  2.27474  0  0  -0.465542  0  2.573691  0  0  -0.517245  0  2.573192  0  0  -0.313001  -0.431027  0  2.574267  0
O  O57  1  0.34858295  0.63168750  0.43677290  1  0  -0.460181  0  2.273121  0  0  -0.466704  0  2.57173  0  0  -0.51845  0  2.57095  0  0  -0.312937  -0.432164  0  2.572292  0
O  O58  1  0.71670012  0.80467328  0.36737979  1  0  -0.460644  0  2.272891  0  0  -0.467166  0  2.570687  0  0  -0.518937  0  2.569887  0  0  -0.313524  -0.432562  0  2.571041  0
O  O59  1  0.91180853  0.56228246  0.19496348  1  0  -0.458761  0  2.274752  0  0  -0.465191  0  2.573019  0  0  -0.516825  0  2.572172  0  0  -0.312791  -0.430734  0  2.573656  0
