# generated using pymatgen
data_Cu2Mo3H10C7(N3O5)2
_symmetry_space_group_name_H-M   'P 1'
_cell_length_a   7.60321835
_cell_length_b   11.20678162
_cell_length_c   11.24647938
_cell_angle_alpha   68.32137993
_cell_angle_beta   72.71043921
_cell_angle_gamma   76.46529098
_symmetry_Int_Tables_number   1
_chemical_formula_structural   Cu2Mo3H10C7(N3O5)2
_chemical_formula_sum   'Cu4 Mo6 H20 C14 N12 O20'
_cell_volume   841.89115707
_cell_formula_units_Z   2
loop_
 _symmetry_equiv_pos_site_id
 _symmetry_equiv_pos_as_xyz
  1  'x, y, z'
loop_
 _atom_site_type_symbol
 _atom_site_label
 _atom_site_symmetry_multiplicity
 _atom_site_fract_x
 _atom_site_fract_y
 _atom_site_fract_z
 _atom_site_occupancy
 _atom_site_hle17_bader_spin_density
 _atom_site_hle17_ddec_charge
 _atom_site_hle17_ddec_spin_density
 _atom_site_hle17_ddec_sum_bond_order
 _atom_site_hle17_magmom
 _atom_site_hse06_10hf_bader_spin_density
 _atom_site_hse06_10hf_ddec_charge
 _atom_site_hse06_10hf_ddec_spin_density
 _atom_site_hse06_10hf_ddec_sum_bond_order
 _atom_site_hse06_10hf_magmom
 _atom_site_hse06_bader_spin_density
 _atom_site_hse06_ddec_charge
 _atom_site_hse06_ddec_spin_density
 _atom_site_hse06_ddec_sum_bond_order
 _atom_site_hse06_magmom
 _atom_site_pbe_bader_spin_density
 _atom_site_pbe_cm5_charge
 _atom_site_pbe_ddec_charge
 _atom_site_pbe_ddec_spin_density
 _atom_site_pbe_ddec_sum_bond_order
 _atom_site_pbe_magmom
Cu  Cu0  1  0.26133481  0.12598878  0.21422413  1  0  0.649079  0  1.885437  0  0  0.540746  0  2.401208  0  0  0.530269  0  2.354752  0  0  0.57228  0.549996  0  2.43102  0
Cu  Cu1  1  0.73866529  0.87401140  0.78577556  1  0  0.649011  0  1.885376  0  0  0.540725  0  2.401179  0  0  0.530243  0  2.35471  0  0  0.572267  0.549963  0  2.430986  0
Cu  Cu2  1  0.26768969  0.95371219  0.77494535  1  0  0.583124  0  1.748537  0  0  0.4596  0  2.238904  0  0  0.465584  0  2.186112  0  0  0.541586  0.458156  0  2.27357  0
Cu  Cu3  1  0.73231041  0.04628798  0.22505434  1  0  0.583111  0  1.748498  0  0  0.459604  0  2.238877  0  0  0.465563  0  2.186054  0  0  0.541596  0.458163  0  2.273555  0
Mo  Mo4  1  0.93781958  0.41622751  0.17693959  1  0  2.249328  0  4.017736  0  0  2.256571  0  4.530375  0  0  2.356153  0  4.496859  0  0  1.511686  2.181916  0  4.562787  0
Mo  Mo5  1  0.06217934  0.58377169  0.82305979  1  0  2.249317  0  4.017679  0  0  2.256539  0  4.530325  0  0  2.356124  0  4.496812  0  0  1.511677  2.181885  0  4.562742  0
Mo  Mo6  1  0.44861697  0.40367234  0.17487065  1  0  2.253823  0  3.994372  0  0  2.259132  0  4.504911  0  0  2.359156  0  4.471972  0  0  1.504057  2.18401  0  4.537442  0
Mo  Mo7  1  0.55138156  0.59632880  0.82512899  1  0  2.253809  0  3.994417  0  0  2.259115  0  4.504965  0  0  2.359142  0  4.472024  0  0  1.504061  2.183997  0  4.537493  0
Mo  Mo8  1  0.16878058  0.66157077  0.06027313  1  0  2.178775  0  4.120457  0  0  2.175063  0  4.656245  0  0  2.275764  0  4.62117  0  0  1.478348  2.102258  0  4.685227  0
Mo  Mo9  1  0.83121953  0.33842940  0.93972566  1  0  2.17867  0  4.120402  0  0  2.174934  0  4.656216  0  0  2.275648  0  4.621133  0  0  1.478299  2.102127  0  4.685198  0
H  H10  1  0.14709161  0.75736721  0.41056511  1  0  0.103564  0  0.897052  0  0  0.123162  0  0.948686  0  0  0.123103  0  0.947621  0  0  0.123419  0.122904  0  0.949138  0
H  H11  1  0.85290869  0.24263199  0.58943490  1  0  0.103553  0  0.897086  0  0  0.12315  0  0.948706  0  0  0.123089  0  0.947642  0  0  0.123411  0.122889  0  0.949156  0
H  H12  1  0.27521571  0.86700124  0.27077733  1  0  0.067781  0  0.954702  0  0  0.073421  0  1.045939  0  0  0.077238  0  1.039243  0  0  0.109323  0.070643  0  1.049708  0
H  H13  1  0.72478576  0.13299893  0.72922298  1  0  0.06776  0  0.954692  0  0  0.073391  0  1.045931  0  0  0.077206  0  1.039238  0  0  0.109303  0.07061  0  1.049699  0
H  H14  1  0.42540930  0.63171194  0.32075305  1  0  0.116594  0  0.930126  0  0  0.130782  0  0.989848  0  0  0.131185  0  0.990931  0  0  0.108122  0.130198  0  0.989562  0
H  H15  1  0.57459098  0.36828726  0.67924784  1  0  0.116591  0  0.93012  0  0  0.130794  0  0.989829  0  0  0.131195  0  0.990914  0  0  0.108122  0.13021  0  0.989545  0
H  H16  1  0.44268984  0.62946666  0.47317266  1  0  0.117543  0  0.921262  0  0  0.135581  0  0.974426  0  0  0.1361  0  0.975212  0  0  0.109132  0.135033  0  0.974038  0
H  H17  1  0.55731025  0.37053351  0.52682792  1  0  0.11754  0  0.921254  0  0  0.135587  0  0.974415  0  0  0.136104  0  0.975204  0  0  0.10913  0.13504  0  0.974026  0
H  H18  1  0.58249181  0.70937415  0.07982380  1  0  0.143576  0  0.94398  0  0  0.151616  0  1.001834  0  0  0.15508  0  0.997792  0  0  0.14636  0.148621  0  1.005513  0
H  H19  1  0.41750828  0.29062602  0.92017677  1  0  0.143535  0  0.943958  0  0  0.151585  0  1.001803  0  0  0.155047  0  0.997764  0  0  0.146334  0.14859  0  1.005485  0
H  H20  1  0.33349094  0.74631797  0.62749259  1  0  0.107367  0  0.982454  0  0  0.107026  0  1.059947  0  0  0.108779  0  1.056546  0  0  0.143872  0.105497  0  1.061935  0
H  H21  1  0.66650778  0.25368220  0.37250737  1  0  0.107332  0  0.98242  0  0  0.106983  0  1.059928  0  0  0.108738  0  1.056524  0  0  0.143848  0.105454  0  1.061916  0
H  H22  1  0.74416458  0.66145761  0.32098995  1  0  0.116957  0  0.92451  0  0  0.131595  0  0.981711  0  0  0.131957  0  0.98181  0  0  0.121448  0.131182  0  0.98199  0
H  H23  1  0.25583571  0.33854159  0.67901005  1  0  0.116967  0  0.924512  0  0  0.131607  0  0.981711  0  0  0.131974  0  0.981811  0  0  0.121456  0.131193  0  0.981989  0
H  H24  1  0.64828695  0.80589419  0.36232584  1  0  0.061016  0  0.95355  0  0  0.067553  0  1.041704  0  0  0.071012  0  1.036653  0  0  0.105446  0.065227  0  1.044858  0
H  H25  1  0.35171492  0.19410404  0.63767421  1  0  0.061012  0  0.953535  0  0  0.067552  0  1.041692  0  0  0.071019  0  1.036638  0  0  0.105443  0.065228  0  1.044845  0
H  H26  1  0.22019743  0.15475348  0.48784615  1  0  0.111922  0  0.903857  0  0  0.126096  0  0.955499  0  0  0.127521  0  0.953756  0  0  0.150133  0.124658  0  0.957337  0
H  H27  1  0.77980522  0.84524766  0.51215268  1  0  0.111916  0  0.903867  0  0  0.126108  0  0.955487  0  0  0.127531  0  0.953746  0  0  0.15015  0.124671  0  0.957324  0
H  H28  1  0.80107622  0.06335183  0.93238892  1  0  0.101338  0  0.94306  0  0  0.109569  0  1.007794  0  0  0.111689  0  1.004864  0  0  0.139248  0.107895  0  1.010145  0
H  H29  1  0.19892388  0.93664834  0.06761076  1  0  0.101345  0  0.943058  0  0  0.109577  0  1.007785  0  0  0.111699  0  1.004853  0  0  0.13925  0.107904  0  1.010136  0
C  C30  1  0.27697646  0.79993177  0.37052549  1  0  0.000999  0  3.614755  0  0  -0.082502  0  3.883979  0  0  -0.066955  0  3.89501  0  0  -0.045842  -0.085693  0  3.878146  0
C  C31  1  0.72302620  0.20006938  0.62947334  1  0  0.000973  0  3.614749  0  0  -0.082472  0  3.883947  0  0  -0.066916  0  3.894963  0  0  -0.045815  -0.085652  0  3.878097  0
C  C32  1  0.44310569  0.69337780  0.37182284  1  0  -0.159228  0  3.647755  0  0  -0.196903  0  3.906834  0  0  -0.199444  0  3.919651  0  0  -0.155867  -0.194541  0  3.896234  0
C  C33  1  0.55689598  0.30662141  0.62817689  1  0  -0.159191  0  3.647705  0  0  -0.1969  0  3.90681  0  0  -0.199432  0  3.91963  0  0  -0.155854  -0.194547  0  3.896223  0
C  C34  1  0.63608493  0.79460071  0.07255024  1  0  0.216435  0  3.527045  0  0  0.142835  0  3.785257  0  0  0.15654  0  3.795088  0  0  0.174905  0.133778  0  3.779238  0
C  C35  1  0.36391537  0.20539849  0.92744976  1  0  0.216452  0  3.52696  0  0  0.142874  0  3.785185  0  0  0.15658  0  3.795021  0  0  0.174917  0.133816  0  3.779169  0
C  C36  1  0.29956496  0.84599322  0.56908355  1  0  0.216636  0  3.573479  0  0  0.141698  0  3.830597  0  0  0.166322  0  3.848055  0  0  0.175006  0.13302  0  3.821214  0
C  C37  1  0.70043395  0.15400597  0.43091672  1  0  0.216617  0  3.5735  0  0  0.141716  0  3.830618  0  0  0.166346  0  3.84807  0  0  0.174986  0.133038  0  3.821234  0
C  C38  1  0.63040033  0.74288696  0.31278940  1  0  -0.006531  0  3.607149  0  0  -0.085668  0  3.869594  0  0  -0.081524  0  3.879877  0  0  -0.049558  -0.088223  0  3.862381  0
C  C39  1  0.36960115  0.25711321  0.68721002  1  0  -0.006567  0  3.606998  0  0  -0.085691  0  3.869484  0  0  -0.081575  0  3.879805  0  0  -0.04958  -0.088246  0  3.862273  0
C  C40  1  0.24226150  0.05305368  0.49625291  1  0  0.216541  0  3.664106  0  0  0.157922  0  3.949305  0  0  0.170723  0  3.956844  0  0  0.149933  0.14953  0  3.942341  0
C  C41  1  0.75773998  0.94694649  0.50374650  1  0  0.21657  0  3.664071  0  0  0.157934  0  3.949279  0  0  0.170734  0  3.956815  0  0  0.149925  0.149544  0  3.942315  0
C  C42  1  0.74533248  0.97484696  0.99768241  1  0  0.226861  0  3.676032  0  0  0.169321  0  3.959122  0  0  0.181979  0  3.970329  0  0  0.151503  0.160856  0  3.95196  0
C  C43  1  0.25466762  0.02515321  0.00231728  1  0  0.226846  0  3.676058  0  0  0.169303  0  3.959152  0  0  0.181971  0  3.97035  0  0  0.151504  0.160841  0  3.951988  0
N  N44  1  0.24313163  0.01408041  0.39766841  1  0  -0.283897  0  3.221511  0  0  -0.257371  0  3.551135  0  0  -0.25035  0  3.556897  0  0  -0.274676  -0.255861  0  3.55105  0
N  N45  1  0.75687103  0.98592073  0.60233041  1  0  -0.283907  0  3.221485  0  0  -0.257368  0  3.551144  0  0  -0.250339  0  3.556902  0  0  -0.274655  -0.255857  0  3.551054  0
N  N46  1  0.27679680  0.95209910  0.60414855  1  0  -0.387727  0  3.378805  0  0  -0.319374  0  3.727539  0  0  -0.333961  0  3.725362  0  0  -0.389458  -0.309783  0  3.726222  0
N  N47  1  0.72320192  0.04790107  0.39585140  1  0  -0.387756  0  3.378861  0  0  -0.319416  0  3.727602  0  0  -0.333991  0  3.725397  0  0  -0.389474  -0.309828  0  3.726295  0
N  N48  1  0.65366080  0.82276930  0.17397889  1  0  0.038587  0  3.509587  0  0  0.16065  0  3.688393  0  0  0.147613  0  3.717034  0  0  -0.133133  0.168633  0  3.670172  0
N  N49  1  0.34633949  0.17722990  0.82602200  1  0  0.038635  0  3.509543  0  0  0.160621  0  3.688448  0  0  0.147588  0  3.717097  0  0  -0.133142  0.168612  0  3.670211  0
N  N50  1  0.69201985  0.88950808  0.96000878  1  0  -0.392542  0  3.336587  0  0  -0.331276  0  3.683489  0  0  -0.343909  0  3.685505  0  0  -0.38367  -0.323019  0  3.681903  0
N  N51  1  0.30798181  0.11049112  0.03999184  1  0  -0.392553  0  3.336588  0  0  -0.331281  0  3.683464  0  0  -0.343924  0  3.685493  0  0  -0.383671  -0.323028  0  3.681887  0
N  N52  1  0.27835329  0.88161560  0.44625331  1  0  0.038282  0  3.512988  0  0  0.163194  0  3.689289  0  0  0.118292  0  3.755484  0  0  -0.132973  0.171237  0  3.671939  0
N  N53  1  0.72164956  0.11838458  0.55374583  1  0  0.038398  0  3.512979  0  0  0.163228  0  3.689331  0  0  0.118313  0  3.755552  0  0  -0.132945  0.171267  0  3.671983  0
N  N54  1  0.72238326  0.93843240  0.12763514  1  0  -0.29367  0  3.25362  0  0  -0.258508  0  3.581402  0  0  -0.266954  0  3.58406  0  0  -0.28234  -0.253592  0  3.580214  0
N  N55  1  0.27761684  0.06156777  0.87236454  1  0  -0.293678  0  3.253708  0  0  -0.258481  0  3.581492  0  0  -0.266937  0  3.58417  0  0  -0.28232  -0.253566  0  3.580301  0
O  O56  1  0.16637986  0.81478591  0.93880531  1  0  -0.775207  0  1.749008  0  0  -0.741345  0  2.074373  0  0  -0.768221  0  2.055979  0  0  -0.563112  -0.722923  0  2.087778  0
O  O57  1  0.83361886  0.18521426  0.06119464  1  0  -0.775172  0  1.74898  0  0  -0.741299  0  2.074341  0  0  -0.768169  0  2.055936  0  0  -0.563102  -0.722878  0  2.087749  0
O  O58  1  0.44782544  0.23678930  0.20862810  1  0  -0.797382  0  1.723305  0  0  -0.776083  0  2.060793  0  0  -0.79376  0  2.036359  0  0  -0.553977  -0.763902  0  2.07946  0
O  O59  1  0.55217582  0.76321184  0.79137367  1  0  -0.797371  0  1.723272  0  0  -0.77607  0  2.060758  0  0  -0.793752  0  2.036327  0  0  -0.554001  -0.76389  0  2.079423  0
O  O60  1  0.83139666  0.44724545  0.32187190  1  0  -0.673551  0  1.393635  0  0  -0.661056  0  1.615988  0  0  -0.684051  0  1.606868  0  0  -0.50724  -0.644248  0  1.624096  0
O  O61  1  0.16860266  0.55275181  0.67812812  1  0  -0.673564  0  1.393598  0  0  -0.66106  0  1.615945  0  0  -0.684061  0  1.606829  0  0  -0.507245  -0.644251  0  1.624053  0
O  O62  1  0.41485991  0.41767678  0.32722475  1  0  -0.681828  0  1.395261  0  0  -0.669984  0  1.620088  0  0  -0.692317  0  1.610753  0  0  -0.512259  -0.653471  0  1.628553  0
O  O63  1  0.58513644  0.58232144  0.67277727  1  0  -0.681822  0  1.395283  0  0  -0.670003  0  1.620137  0  0  -0.692339  0  1.610801  0  0  -0.512263  -0.65349  0  1.628601  0
O  O64  1  0.02658849  0.25063013  0.22803101  1  0  -0.763867  0  1.725285  0  0  -0.748036  0  2.056017  0  0  -0.768063  0  2.035973  0  0  -0.55543  -0.733673  0  2.070713  0
O  O65  1  0.97341317  0.74936907  0.77197051  1  0  -0.763832  0  1.725252  0  0  -0.747993  0  2.055994  0  0  -0.768023  0  2.035948  0  0  -0.555435  -0.733631  0  2.070688  0
O  O66  1  0.09537400  0.69697808  0.20531427  1  0  -0.716738  0  1.387414  0  0  -0.705192  0  1.624726  0  0  -0.729772  0  1.614773  0  0  -0.535403  -0.688004  0  1.632709  0
O  O67  1  0.90462650  0.30302015  0.79468516  1  0  -0.716708  0  1.387389  0  0  -0.705159  0  1.624713  0  0  -0.729746  0  1.614763  0  0  -0.535393  -0.687972  0  1.632696  0
O  O68  1  0.43190954  0.60046526  0.04940892  1  0  -0.980662  0  1.720454  0  0  -0.970189  0  2.005066  0  0  -1.009892  0  1.996783  0  0  -0.596257  -0.940024  0  2.010792  0
O  O69  1  0.56808898  0.39953587  0.95059072  1  0  -0.980628  0  1.720405  0  0  -0.970178  0  2.005069  0  0  -1.009863  0  1.996739  0  0  -0.596248  -0.940012  0  2.01079  0
O  O70  1  0.95758933  0.60315950  0.04633662  1  0  -0.966128  0  1.710451  0  0  -0.961966  0  2.005632  0  0  -1.001887  0  1.998091  0  0  -0.596041  -0.931885  0  2.010845  0
O  O71  1  0.04241057  0.39684164  0.95366275  1  0  -0.966109  0  1.71043  0  0  -0.961956  0  2.005625  0  0  -1.001879  0  1.998087  0  0  -0.596047  -0.931877  0  2.010839  0
O  O72  1  0.19704395  0.45156195  0.15145691  1  0  -1.026412  0  1.99122  0  0  -1.015282  0  2.297135  0  0  -1.062266  0  2.29577  0  0  -0.630692  -0.979494  0  2.297975  0
O  O73  1  0.80295732  0.54843919  0.84854307  1  0  -1.026436  0  1.991281  0  0  -1.015302  0  2.297201  0  0  -1.062289  0  2.295834  0  0  -0.630702  -0.979504  0  2.298016  0
O  O74  1  0.71935208  0.40883798  0.12895875  1  0  -1.010727  0  1.938094  0  0  -1.002345  0  2.242753  0  0  -1.048689  0  2.240425  0  0  -0.617837  -0.966857  0  2.244112  0
O  O75  1  0.28064643  0.59116316  0.87104267  1  0  -1.010701  0  1.938011  0  0  -1.002352  0  2.242739  0  0  -1.048659  0  2.240331  0  0  -0.61783  -0.966868  0  2.244111  0
