# generated using pymatgen
data_CdH14C12S2NCl2
_symmetry_space_group_name_H-M   'P 1'
_cell_length_a   8.23569763
_cell_length_b   14.84411890
_cell_length_c   18.50851172
_cell_angle_alpha   83.38151594
_cell_angle_beta   77.78148165
_cell_angle_gamma   73.93287510
_symmetry_Int_Tables_number   1
_chemical_formula_structural   CdH14C12S2NCl2
_chemical_formula_sum   'Cd4 H56 C48 S8 N4 Cl8'
_cell_volume   2121.18388457
_cell_formula_units_Z   4
loop_
 _symmetry_equiv_pos_site_id
 _symmetry_equiv_pos_as_xyz
  1  'x, y, z'
loop_
 _atom_site_type_symbol
 _atom_site_label
 _atom_site_symmetry_multiplicity
 _atom_site_fract_x
 _atom_site_fract_y
 _atom_site_fract_z
 _atom_site_occupancy
 _atom_site_hle17_bader_spin_density
 _atom_site_hle17_ddec_charge
 _atom_site_hle17_ddec_spin_density
 _atom_site_hle17_ddec_sum_bond_order
 _atom_site_hle17_magmom
 _atom_site_hse06_10hf_bader_spin_density
 _atom_site_hse06_10hf_ddec_charge
 _atom_site_hse06_10hf_ddec_spin_density
 _atom_site_hse06_10hf_ddec_sum_bond_order
 _atom_site_hse06_10hf_magmom
 _atom_site_hse06_bader_spin_density
 _atom_site_hse06_ddec_charge
 _atom_site_hse06_ddec_spin_density
 _atom_site_hse06_ddec_sum_bond_order
 _atom_site_hse06_magmom
 _atom_site_pbe_bader_charge
 _atom_site_pbe_bader_spin_density
 _atom_site_pbe_cm5_charge
 _atom_site_pbe_ddec_charge
 _atom_site_pbe_ddec_spin_density
 _atom_site_pbe_ddec_sum_bond_order
 _atom_site_pbe_magmom
Cd  Cd0  1  0.11711796  0.88342859  0.95031045  1  0  0.782069  0  2.155503  0  0  0.620164  0  2.620472  0  0  0.663502  0  2.586551  0  1.054469  0  0.526569  0.589832  0  2.643252  0
Cd  Cd1  1  0.95102798  0.61714495  0.54918747  1  0  0.78203  0  2.154183  0  0  0.620289  0  2.618913  0  0  0.66356  0  2.585034  0  1.053621  0  0.526834  0.589987  0  2.641694  0
Cd  Cd2  1  0.88288589  0.11657310  0.04968670  1  0  0.782079  0  2.155546  0  0  0.620204  0  2.620473  0  0  0.663543  0  2.586547  0  1.054522  0  0.52657  0.589867  0  2.643257  0
Cd  Cd3  1  0.04898085  0.38285464  0.45081204  1  0  0.78208  0  2.154114  0  0  0.620337  0  2.618823  0  0  0.66361  0  2.584943  0  1.053484  0  0.526884  0.590035  0  2.641605  0
H  H4  1  0.37915832  0.88672885  0.74555961  1  0  0.128558  0  0.933672  0  0  0.15322  0  0.98476  0  0  0.15435  0  0.984734  0  0.053373  0  0.097733  0.152341  0  0.984863  0
H  H5  1  0.01702196  0.61270129  0.75370898  1  0  0.129164  0  0.933579  0  0  0.153697  0  0.984848  0  0  0.154831  0  0.984816  0  0.046056  0  0.098054  0.152843  0  0.98493  0
H  H6  1  0.62084410  0.11327706  0.25443801  1  0  0.128457  0  0.933701  0  0  0.153169  0  0.984739  0  0  0.15431  0  0.984707  0  0.053393  0  0.097729  0.152287  0  0.984845  0
H  H7  1  0.98299585  0.38728847  0.24628670  1  0  0.129129  0  0.93349  0  0  0.153648  0  0.984785  0  0  0.154783  0  0.984754  0  0.045966  0  0.098039  0.152797  0  0.984857  0
H  H8  1  0.59441894  0.86166051  0.76227403  1  0  0.134676  0  0.932383  0  0  0.155184  0  0.986707  0  0  0.156852  0  0.986318  0  0.106445  0  0.094214  0.153892  0  0.98714  0
H  H9  1  0.22256619  0.63819033  0.73853545  1  0  0.134709  0  0.931563  0  0  0.155107  0  0.985914  0  0  0.156817  0  0.985457  0  0.088008  0  0.094136  0.153805  0  0.986381  0
H  H10  1  0.40558252  0.13834751  0.23772470  1  0  0.134689  0  0.932358  0  0  0.155177  0  0.986712  0  0  0.156846  0  0.986325  0  0.10646  0  0.094198  0.153881  0  0.987151  0
H  H11  1  0.77743834  0.36180785  0.26146536  1  0  0.134799  0  0.931486  0  0  0.155174  0  0.985848  0  0  0.156885  0  0.985392  0  0.08801  0  0.094166  0.153872  0  0.986313  0
H  H12  1  0.45004166  0.79251520  0.80921498  1  0  0.132863  0  0.949377  0  0  0.149478  0  1.010657  0  0  0.151456  0  1.010124  0  0.090408  0  0.091279  0.147996  0  1.011153  0
H  H13  1  0.05532009  0.70733845  0.69080212  1  0  0.131821  0  0.950837  0  0  0.148174  0  1.012482  0  0  0.15013  0  1.011993  0  0.101927  0  0.089591  0.146713  0  1.012949  0
H  H14  1  0.54996939  0.20748509  0.19077820  1  0  0.132791  0  0.949467  0  0  0.149406  0  1.010755  0  0  0.151386  0  1.010222  0  0.090268  0  0.091226  0.147925  0  1.011248  0
H  H15  1  0.94468358  0.29265552  0.30919676  1  0  0.131967  0  0.950901  0  0  0.148322  0  1.012492  0  0  0.150278  0  1.012004  0  0.102415  0  0.089687  0.146847  0  1.012975  0
H  H16  1  0.48385500  0.94367465  0.96708019  1  0  0.126903  0  0.935146  0  0  0.142683  0  0.99391  0  0  0.144485  0  0.992574  0  0.126636  0  0.099985  0.141326  0  0.995006  0
H  H17  1  0.39485859  0.55706043  0.53342082  1  0  0.128213  0  0.934586  0  0  0.143475  0  0.993248  0  0  0.145236  0  0.991925  0  0.125084  0  0.100278  0.142125  0  0.994339  0
H  H18  1  0.51615839  0.05632213  0.03291623  1  0  0.126968  0  0.935076  0  0  0.142646  0  0.993948  0  0  0.144458  0  0.992602  0  0.126603  0  0.09995  0.141289  0  0.995043  0
H  H19  1  0.60515737  0.44293916  0.46657531  1  0  0.128165  0  0.934733  0  0  0.143427  0  0.993318  0  0  0.145233  0  0.99194  0  0.125147  0  0.10025  0.142069  0  0.994423  0
H  H20  1  0.65779779  0.89995166  0.89444820  1  0  0.126496  0  0.931278  0  0  0.140468  0  0.989146  0  0  0.142473  0  0.987985  0  0.113845  0  0.100383  0.138967  0  0.990118  0
H  H21  1  0.45333627  0.60104187  0.60668230  1  0  0.126273  0  0.930296  0  0  0.140584  0  0.987282  0  0  0.142591  0  0.98609  0  0.118372  0  0.100528  0.139074  0  0.988274  0
H  H22  1  0.34220999  0.10004863  0.10554700  1  0  0.126497  0  0.931401  0  0  0.140416  0  0.989303  0  0  0.142418  0  0.988143  0  0.113982  0  0.100322  0.138913  0  0.990281  0
H  H23  1  0.54666744  0.39897036  0.39331072  1  0  0.126266  0  0.930264  0  0  0.140555  0  0.987257  0  0  0.142562  0  0.986067  0  0.118335  0  0.100493  0.139042  0  0.988247  0
H  H24  1  0.80613044  0.75003674  0.93423567  1  0  0.121891  0  0.990234  0  0  0.126234  0  1.062885  0  0  0.13005  0  1.061376  0  0.137676  0  0.093367  0.123441  0  1.064205  0
H  H25  1  0.49145964  0.75046657  0.56602298  1  0  0.122014  0  0.992333  0  0  0.126516  0  1.064887  0  0  0.130341  0  1.06342  0  0.159726  0  0.093231  0.123706  0  1.066178  0
H  H26  1  0.19387449  0.24996144  0.06577597  1  0  0.121859  0  0.990155  0  0  0.126181  0  1.062844  0  0  0.129998  0  1.061335  0  0.136577  0  0.093311  0.123384  0  1.064174  0
H  H27  1  0.50852885  0.24953794  0.43397184  1  0  0.122177  0  0.992369  0  0  0.126677  0  1.064871  0  0  0.130502  0  1.063408  0  0.159606  0  0.093282  0.123868  0  1.066161  0
H  H28  1  0.51680648  0.55574917  0.04882531  1  0  0.108573  0  0.950415  0  0  0.119282  0  1.011047  0  0  0.122746  0  1.010078  0  0.088304  0  0.104603  0.116821  0  1.011874  0
H  H29  1  0.11852731  0.94466915  0.45076486  1  0  0.109251  0  0.949384  0  0  0.119652  0  1.01026  0  0  0.123135  0  1.009292  0  0.048981  0  0.104515  0.117176  0  1.011093  0
H  H30  1  0.48319340  0.44424410  0.95116774  1  0  0.108556  0  0.950408  0  0  0.119303  0  1.011001  0  0  0.122769  0  1.010027  0  0.088379  0  0.104588  0.11684  0  1.011831  0
H  H31  1  0.88144874  0.05533746  0.54923754  1  0  0.109324  0  0.949259  0  0  0.119707  0  1.010149  0  0  0.123189  0  1.00918  0  0.04911  0  0.104546  0.117231  0  1.010981  0
H  H32  1  0.21165870  0.60657976  0.07383970  1  0  0.107238  0  0.9231  0  0  0.124289  0  0.976571  0  0  0.125772  0  0.976497  0  0.057601  0  0.10147  0.123246  0  0.976685  0
H  H33  1  0.88756709  0.89401976  0.42584351  1  0  0.107795  0  0.921751  0  0  0.124811  0  0.975504  0  0  0.126244  0  0.975355  0  0.055773  0  0.10197  0.123803  0  0.975661  0
H  H34  1  0.78834211  0.39341842  0.92615109  1  0  0.107226  0  0.923077  0  0  0.124243  0  0.97657  0  0  0.125726  0  0.976494  0  0.057937  0  0.101454  0.123199  0  0.976689  0
H  H35  1  0.11240765  0.10598264  0.57415991  1  0  0.107734  0  0.921728  0  0  0.124841  0  0.975423  0  0  0.126284  0  0.975282  0  0.055907  0  0.10198  0.123835  0  0.975575  0
H  H36  1  0.16789269  0.64983430  0.98427910  1  0  0.11981  0  0.963666  0  0  0.133187  0  1.027918  0  0  0.134246  0  1.028869  0  0.121663  0  0.099474  0.132382  0  1.027411  0
H  H37  1  0.80103803  0.85015912  0.51511468  1  0  0.12032  0  0.962282  0  0  0.133755  0  1.026801  0  0  0.134741  0  1.027749  0  0.131678  0  0.099364  0.133  0  1.02627  0
H  H38  1  0.83211178  0.35017512  0.01571339  1  0  0.119943  0  0.96356  0  0  0.133294  0  1.027822  0  0  0.134352  0  1.028776  0  0.121964  0  0.099539  0.132487  0  1.027319  0
H  H39  1  0.19893881  0.14983766  0.48488834  1  0  0.120382  0  0.962147  0  0  0.133855  0  1.026645  0  0  0.134851  0  1.027603  0  0.131852  0  0.099415  0.133099  0  1.026123  0
H  H40  1  0.98210019  0.84477574  0.17560686  1  0  0.131049  0  0.932911  0  0  0.154152  0  0.985559  0  0  0.155349  0  0.985499  0  0.086632  0  0.100347  0.153219  0  0.985713  0
H  H41  1  0.99948866  0.65520784  0.32375973  1  0  0.131585  0  0.932162  0  0  0.15491  0  0.984405  0  0  0.156155  0  0.984286  0  0.074229  0  0.100335  0.153963  0  0.984571  0
H  H42  1  0.01791066  0.15521753  0.82439643  1  0  0.131145  0  0.932848  0  0  0.154201  0  0.985546  0  0  0.155397  0  0.98549  0  0.086561  0  0.100408  0.15329  0  0.985675  0
H  H43  1  0.00052756  0.34479034  0.67624062  1  0  0.131602  0  0.932159  0  0  0.15489  0  0.984436  0  0  0.156137  0  0.984311  0  0.074143  0  0.100373  0.153944  0  0.9846  0
H  H44  1  0.11086915  0.72669964  0.18693376  1  0  0.119881  0  0.944322  0  0  0.142288  0  0.998449  0  0  0.143389  0  0.998768  0  0.051162  0  0.093959  0.141476  0  0.998255  0
H  H45  1  0.02073211  0.77339491  0.31300580  1  0  0.120048  0  0.944947  0  0  0.142466  0  0.999051  0  0  0.143582  0  0.999352  0  0.057488  0  0.09447  0.141636  0  0.998885  0
H  H46  1  0.88914316  0.27329011  0.81306369  1  0  0.119921  0  0.944289  0  0  0.142357  0  0.998369  0  0  0.14346  0  0.998689  0  0.051053  0  0.094024  0.141549  0  0.998173  0
H  H47  1  0.97928174  0.22660468  0.68699369  1  0  0.12002  0  0.944978  0  0  0.142385  0  0.999142  0  0  0.143502  0  0.999442  0  0.057486  0  0.094406  0.141555  0  0.998975  0
H  H48  1  0.20231285  0.81576099  0.13155428  1  0  0.134322  0  0.953747  0  0  0.151735  0  1.012849  0  0  0.15366  0  1.012448  0  0.097803  0  0.09044  0.150311  0  1.013206  0
H  H49  1  0.14586670  0.68451336  0.36941236  1  0  0.13531  0  0.952365  0  0  0.152238  0  1.01193  0  0  0.154146  0  1.011562  0  0.07707  0  0.090686  0.150818  0  1.012279  0
H  H50  1  0.79769469  0.18423087  0.86844682  1  0  0.134289  0  0.95364  0  0  0.151739  0  1.0127  0  0  0.153671  0  1.012296  0  0.097809  0  0.090436  0.150313  0  1.013062  0
H  H51  1  0.85413613  0.31548764  0.63059366  1  0  0.13515  0  0.95252  0  0  0.152113  0  1.012061  0  0  0.154021  0  1.011692  0  0.077179  0  0.090655  0.150691  0  1.012409  0
H  H52  1  0.76024106  0.51814349  0.10890562  1  0  0.097191  0  0.936268  0  0  0.111137  0  0.98917  0  0  0.114142  0  0.987799  0  0.057703  0  0.106162  0.108998  0  0.990227  0
H  H53  1  0.38364485  0.98138989  0.39075386  1  0  0.097228  0  0.93605  0  0  0.111179  0  0.98886  0  0  0.114212  0  0.987465  0  0.066105  0  0.106306  0.108986  0  0.989974  0
H  H54  1  0.23976170  0.48185539  0.89110158  1  0  0.097231  0  0.936318  0  0  0.111197  0  0.989202  0  0  0.114202  0  0.98783  0  0.057652  0  0.106197  0.109059  0  0.99026  0
H  H55  1  0.61634647  0.01860619  0.60925501  1  0  0.09718  0  0.935806  0  0  0.11113  0  0.988633  0  0  0.114155  0  0.987249  0  0.065917  0  0.106292  0.108937  0  0.989747  0
H  H56  1  0.97138769  0.60651866  0.88695748  1  0  0.102313  0  0.964907  0  0  0.112358  0  1.026151  0  0  0.115213  0  1.024848  0  0.118675  0  0.100057  0.110296  0  1.027194  0
H  H57  1  0.46744205  0.89434845  0.61343246  1  0  0.103023  0  0.96625  0  0  0.112779  0  1.027807  0  0  0.115606  0  1.026557  0  0.084081  0  0.10017  0.110723  0  1.028844  0
H  H58  1  0.02861419  0.39347952  0.11304722  1  0  0.102354  0  0.965142  0  0  0.11249  0  1.026278  0  0  0.115327  0  1.024994  0  0.118436  0  0.100098  0.110422  0  1.027335  0
H  H59  1  0.53254558  0.10564833  0.38657599  1  0  0.102873  0  0.966256  0  0  0.112697  0  1.027787  0  0  0.115526  0  1.026533  0  0.082327  0  0.100148  0.11064  0  1.028824  0
C  C60  1  0.46073827  0.86286290  0.78736143  1  0  -0.326338  0  3.649688  0  0  -0.401732  0  3.901798  0  0  -0.402625  0  3.910118  0  -0.171473  0  -0.231916  -0.400888  0  3.896099  0
C  C61  1  0.11529733  0.63693035  0.71259635  1  0  -0.326618  0  3.649579  0  0  -0.401656  0  3.902251  0  0  -0.402574  0  3.910635  0  -0.15568  0  -0.232644  -0.400858  0  3.896508  0
C  C62  1  0.53925885  0.13714020  0.21263796  1  0  -0.326171  0  3.64966  0  0  -0.401605  0  3.901784  0  0  -0.402512  0  3.91009  0  -0.171417  0  -0.231878  -0.400754  0  3.896092  0
C  C63  1  0.88471153  0.36306222  0.28740432  1  0  -0.326794  0  3.649588  0  0  -0.401802  0  3.902255  0  0  -0.402719  0  3.910629  0  -0.156271  0  -0.23271  -0.400994  0  3.896531  0
C  C64  1  0.52784502  0.89586339  0.92156749  1  0  -0.236787  0  3.649189  0  0  -0.277049  0  3.898676  0  0  -0.278117  0  3.9082  0  -0.163605  0  -0.147695  -0.276235  0  3.892158  0
C  C65  1  0.34615298  0.60485694  0.57895931  1  0  -0.238531  0  3.653355  0  0  -0.277468  0  3.900941  0  0  -0.278532  0  3.910495  0  -0.163004  0  -0.14761  -0.276603  0  3.894283  0
C  C66  1  0.47216331  0.10413480  0.07843076  1  0  -0.236875  0  3.649324  0  0  -0.276967  0  3.898776  0  0  -0.27804  0  3.908296  0  -0.163468  0  -0.147583  -0.276156  0  3.892261  0
C  C67  1  0.65385856  0.39514827  0.42103456  1  0  -0.238504  0  3.653144  0  0  -0.277366  0  3.900672  0  0  -0.278464  0  3.91021  0  -0.163066  0  -0.14757  -0.276498  0  3.894032  0
C  C68  1  0.52916699  0.79742661  0.95300133  1  0  0.300632  0  3.71298  0  0  0.302914  0  3.954702  0  0  0.31216  0  3.975446  0  0.493128  0  0.12432  0.296787  0  3.940552  0
C  C69  1  0.27939793  0.70323051  0.54731976  1  0  0.300321  0  3.714924  0  0  0.302108  0  3.957054  0  0  0.311447  0  3.977712  0  0.492222  0  0.124746  0.295929  0  3.942931  0
C  C70  1  0.47083993  0.20257368  0.04700096  1  0  0.300891  0  3.712591  0  0  0.303064  0  3.954427  0  0  0.312305  0  3.975182  0  0.493564  0  0.124365  0.296936  0  3.940278  0
C  C71  1  0.72059555  0.29677189  0.45267741  1  0  0.30052  0  3.714641  0  0  0.30221  0  3.956807  0  0  0.31155  0  3.977474  0  0.492202  0  0.124784  0.296036  0  3.942684  0
C  C72  1  0.68509330  0.73151483  0.95732068  1  0  -0.203137  0  3.63522  0  0  -0.228276  0  3.877228  0  0  -0.237672  0  3.897788  0  0.015052  0  -0.084673  -0.222251  0  3.863577  0
C  C73  1  0.37396160  0.76903342  0.54288514  1  0  -0.203354  0  3.63463  0  0  -0.229207  0  3.876276  0  0  -0.238638  0  3.896881  0  -0.00367  0  -0.085517  -0.223137  0  3.862641  0
C  C74  1  0.31491782  0.26848616  0.04268330  1  0  -0.20319  0  3.635072  0  0  -0.228311  0  3.877109  0  0  -0.237709  0  3.897676  0  0.015573  0  -0.084683  -0.222284  0  3.863457  0
C  C75  1  0.62602627  0.23096898  0.45711139  1  0  -0.20379  0  3.634718  0  0  -0.229595  0  3.876405  0  0  -0.239044  0  3.897002  0  -0.004064  0  -0.085644  -0.223517  0  3.862782  0
C  C76  1  0.68392817  0.64276111  0.99257245  1  0  0.124217  0  3.784372  0  0  0.132522  0  4.023438  0  0  0.138594  0  4.044902  0  -0.089733  0  0.012238  0.128695  0  4.008713  0
C  C77  1  0.31824960  0.85768882  0.50742757  1  0  0.124372  0  3.786277  0  0  0.134669  0  4.023155  0  0  0.14063  0  4.044792  0  -0.071359  0  0.012016  0.130796  0  4.00847  0
C  C78  1  0.31607632  0.35723848  0.00743016  1  0  0.124373  0  3.784655  0  0  0.132761  0  4.023556  0  0  0.138838  0  4.045014  0  -0.089607  0  0.012379  0.128936  0  4.008822  0
C  C79  1  0.68172813  0.14231569  0.49257800  1  0  0.124431  0  3.78612  0  0  0.134761  0  4.023077  0  0  0.140755  0  4.044671  0  -0.071607  0  0.012053  0.130857  0  4.008435  0
C  C80  1  0.52408712  0.62414439  0.02166583  1  0  -0.223285  0  3.687696  0  0  -0.248605  0  3.93335  0  0  -0.257871  0  3.953537  0  -0.023255  0  -0.092094  -0.242573  0  3.919751  0
C  C81  1  0.16771435  0.87637437  0.47816772  1  0  -0.221816  0  3.687984  0  0  -0.247988  0  3.932058  0  0  -0.257252  0  3.952329  0  0.001296  0  -0.090705  -0.241934  0  3.918463  0
C  C82  1  0.47590840  0.37585379  0.97833274  1  0  -0.223412  0  3.688008  0  0  -0.248803  0  3.933679  0  0  -0.258072  0  3.953861  0  -0.023812  0  -0.092163  -0.24277  0  3.920082  0
C  C83  1  0.83226970  0.12363435  0.52183680  1  0  -0.221867  0  3.68788  0  0  -0.248012  0  3.931948  0  0  -0.257283  0  3.952203  0  0.000564  0  -0.090667  -0.241951  0  3.918363  0
C  C84  1  0.37331623  0.69186467  0.01200403  1  0  0.290387  0  3.745489  0  0  0.291269  0  3.991774  0  0  0.300954  0  4.011993  0  0.550771  0  0.119466  0.284909  0  3.977911  0
C  C85  1  0.07506422  0.80877278  0.48795258  1  0  0.285939  0  3.749548  0  0  0.289061  0  3.993033  0  0  0.298627  0  4.013305  0  0.550231  0  0.118114  0.282762  0  3.979185  0
C  C86  1  0.62668030  0.30814054  0.98799111  1  0  0.290507  0  3.745044  0  0  0.291383  0  3.991344  0  0  0.301071  0  4.011563  0  0.551109  0  0.119436  0.285023  0  3.97748  0
C  C87  1  0.92491907  0.19123453  0.51204345  1  0  0.285995  0  3.749638  0  0  0.28914  0  3.993121  0  0  0.298719  0  4.013404  0  0.550407  0  0.118134  0.282843  0  3.979271  0
C  C88  1  0.20232488  0.66790952  0.03413151  1  0  -0.243732  0  3.679839  0  0  -0.284862  0  3.934391  0  0  -0.286497  0  3.94496  0  -0.128174  0  -0.150238  -0.283774  0  3.927252  0
C  C89  1  0.90168177  0.83249616  0.46541386  1  0  -0.244166  0  3.678082  0  0  -0.286103  0  3.932176  0  0  -0.287406  0  3.9423  0  -0.13805  0  -0.150872  -0.285225  0  3.925314  0
C  C90  1  0.79768389  0.33209077  0.96586020  1  0  -0.243828  0  3.67975  0  0  -0.284862  0  3.934233  0  0  -0.286499  0  3.944806  0  -0.128898  0  -0.150204  -0.283781  0  3.927103  0
C  C91  1  0.09830129  0.16750834  0.53458513  1  0  -0.244219  0  3.677979  0  0  -0.286337  0  3.932239  0  0  -0.287697  0  3.942436  0  -0.138372  0  -0.150952  -0.285464  0  3.925385  0
C  C92  1  0.08765066  0.78906604  0.14866923  1  0  -0.335228  0  3.664127  0  0  -0.40876  0  3.913869  0  0  -0.40967  0  3.921632  0  -0.183478  0  -0.232896  -0.407939  0  3.908508  0
C  C93  1  0.02199092  0.71105800  0.35123362  1  0  -0.33654  0  3.664041  0  0  -0.409904  0  3.913869  0  0  -0.410874  0  3.921615  0  -0.165453  0  -0.233359  -0.409085  0  3.908558  0
C  C94  1  0.91236313  0.21092652  0.85132900  1  0  -0.335318  0  3.663918  0  0  -0.408867  0  3.913685  0  0  -0.409788  0  3.921454  0  -0.183307  0  -0.233055  -0.408073  0  3.908312  0
C  C95  1  0.97801278  0.28894088  0.64876890  1  0  -0.336331  0  3.664102  0  0  -0.409647  0  3.91389  0  0  -0.410616  0  3.921638  0  -0.165515  0  -0.233266  -0.408825  0  3.908574  0
C  C96  1  0.84574121  0.57032116  0.99711094  1  0  0.039497  0  3.778339  0  0  0.054149  0  4.01478  0  0  0.052848  0  4.038418  0  -0.027919  0  -0.00788  0.055067  0  3.998572  0
C  C97  1  0.41257871  0.92992228  0.50288395  1  0  0.041107  0  3.776863  0  0  0.054544  0  4.013917  0  0  0.053258  0  4.037591  0  -0.032315  0  -0.007738  0.055483  0  3.997711  0
C  C98  1  0.15426546  0.42967281  0.00289367  1  0  0.039289  0  3.778557  0  0  0.054007  0  4.014935  0  0  0.052703  0  4.038572  0  -0.027595  0  -0.00799  0.054927  0  3.998727  0
C  C99  1  0.58739198  0.07008082  0.49712440  1  0  0.041059  0  3.776512  0  0  0.054281  0  4.013989  0  0  0.052983  0  4.037661  0  -0.029694  0  -0.00777  0.055232  0  3.997785  0
C  C100  1  0.86465265  0.51001049  0.06079525  1  0  -0.101996  0  3.743277  0  0  -0.123337  0  3.994004  0  0  -0.125308  0  4.013986  0  -0.046883  0  -0.085005  -0.121885  0  3.980258  0
C  C101  1  0.43338454  0.98971885  0.43899987  1  0  -0.103194  0  3.744716  0  0  -0.124382  0  3.99548  0  0  -0.126354  0  4.015451  0  -0.039771  0  -0.085937  -0.122907  0  3.98179  0
C  C102  1  0.13534852  0.48998910  0.93920818  1  0  -0.101987  0  3.743437  0  0  -0.123384  0  3.994125  0  0  -0.125361  0  4.014128  0  -0.046986  0  -0.084985  -0.121937  0  3.980387  0
C  C103  1  0.56659822  0.01028214  0.56100625  1  0  -0.102891  0  3.744395  0  0  -0.124027  0  3.995204  0  0  -0.125993  0  4.01518  0  -0.040171  0  -0.085831  -0.122553  0  3.981511  0
C  C104  1  0.98335686  0.55947294  0.93637340  1  0  -0.101073  0  3.734607  0  0  -0.121038  0  3.982276  0  0  -0.123006  0  4.00236  0  -0.042044  0  -0.086035  -0.119618  0  3.968622  0
C  C105  1  0.48066349  0.94104512  0.56383218  1  0  -0.102665  0  3.734734  0  0  -0.122078  0  3.982472  0  0  -0.124055  0  4.002602  0  -0.029838  0  -0.085602  -0.12065  0  3.96876  0
C  C106  1  0.01664379  0.44052314  0.06363114  1  0  -0.101095  0  3.734782  0  0  -0.121203  0  3.982449  0  0  -0.123153  0  4.002539  0  -0.042138  0  -0.086042  -0.119782  0  3.968793  0
C  C107  1  0.51931123  0.05895658  0.43617662  1  0  -0.102199  0  3.73438  0  0  -0.121677  0  3.98228  0  0  -0.123648  0  4.002406  0  -0.029768  0  -0.085514  -0.120251  0  3.968567  0
S  S108  1  0.37925338  0.94569596  0.85903915  1  0  0.04465  0  2.480676  0  0  0.074024  0  2.83009  0  0  0.067367  0  2.828411  0  0.001415  0  -0.012721  0.078655  0  2.831152  0
S  S109  1  0.18735532  0.55451728  0.64059564  1  0  0.045418  0  2.487854  0  0  0.074102  0  2.837658  0  0  0.067472  0  2.835968  0  0.003281  0  -0.012828  0.078729  0  2.838714  0
S  S110  1  0.62075144  0.05430152  0.14096048  1  0  0.044591  0  2.480644  0  0  0.073958  0  2.829999  0  0  0.067303  0  2.828331  0  0.001419  0  -0.012727  0.078593  0  2.831058  0
S  S111  1  0.81266578  0.44547950  0.35939807  1  0  0.04542  0  2.487758  0  0  0.074083  0  2.837523  0  0  0.067449  0  2.835853  0  0.003361  0  -0.01284  0.078716  0  2.838573  0
S  S112  1  0.01906164  0.76159643  0.06933520  1  0  0.063187  0  2.476199  0  0  0.088531  0  2.829912  0  0  0.082708  0  2.829819  0  0.024  0  -0.002594  0.0926  0  2.830051  0
S  S113  1  0.84765303  0.73855080  0.42948501  1  0  0.062311  0  2.474538  0  0  0.087683  0  2.828052  0  0  0.08175  0  2.82779  0  0.03589  0  -0.002999  0.09188  0  2.828217  0
S  S114  1  0.98094469  0.23840597  0.93066284  1  0  0.063198  0  2.476292  0  0  0.088517  0  2.829997  0  0  0.082696  0  2.829908  0  0.023939  0  -0.002555  0.092593  0  2.830144  0
S  S115  1  0.15234451  0.26144879  0.57051081  1  0  0.06226  0  2.474454  0  0  0.087664  0  2.828019  0  0  0.081745  0  2.82778  0  0.036145  0  -0.003048  0.09186  0  2.828184  0
N  N116  1  0.37744900  0.77669868  0.97880122  1  0  -0.398788  0  3.218949  0  0  -0.331567  0  3.460066  0  0  -0.352365  0  3.480332  0  -1.236237  0  -0.327478  -0.317419  0  3.445974  0
N  N117  1  0.13171956  0.72401041  0.52139387  1  0  -0.396286  0  3.220389  0  0  -0.329864  0  3.461273  0  0  -0.350623  0  3.481444  0  -1.239039  0  -0.327233  -0.315779  0  3.447243  0
N  N118  1  0.62256523  0.22329881  0.02119649  1  0  -0.398983  0  3.21842  0  0  -0.331749  0  3.459652  0  0  -0.352546  0  3.479912  0  -1.236297  0  -0.327508  -0.317599  0  3.445564  0
N  N119  1  0.86826640  0.27599128  0.47860243  1  0  -0.396389  0  3.220384  0  0  -0.3299  0  3.461216  0  0  -0.350651  0  3.48137  0  -1.238882  0  -0.327317  -0.315805  0  3.44716  0
Cl  Cl120  1  0.09210289  0.77191298  0.86157233  1  0  -0.612934  0  0.817095  0  0  -0.559369  0  1.042387  0  0  -0.575931  0  1.024882  0  -0.690347  0  -0.377127  -0.547316  0  1.054278  0
Cl  Cl121  1  0.72916256  0.72835855  0.63797344  1  0  -0.613417  0  0.815512  0  0  -0.55994  0  1.040143  0  0  -0.576395  0  1.022612  0  -0.689957  0  -0.377689  -0.547909  0  1.052033  0
Cl  Cl122  1  0.90789161  0.22809082  0.13842557  1  0  -0.612933  0  0.817119  0  0  -0.559371  0  1.042425  0  0  -0.575934  0  1.024919  0  -0.690318  0  -0.37712  -0.547315  0  1.054318  0
Cl  Cl123  1  0.27084533  0.27163963  0.36202775  1  0  -0.613419  0  0.815534  0  0  -0.559944  0  1.040156  0  0  -0.576402  0  1.022627  0  -0.689848  0  -0.377689  -0.547915  0  1.052045  0
Cl  Cl124  1  0.83492708  0.00846802  0.94838288  1  0  -0.552276  0  1.028953  0  0  -0.493721  0  1.299733  0  0  -0.512325  0  1.280251  0  -0.643248  0  -0.315883  -0.480367  0  1.312838  0
Cl  Cl125  1  0.79343427  0.49146470  0.55132237  1  0  -0.552685  0  1.025928  0  0  -0.494294  0  1.296347  0  0  -0.512877  0  1.276873  0  -0.642853  0  -0.316528  -0.480971  0  1.309487  0
Cl  Cl126  1  0.16506982  0.99152736  0.05161703  1  0  -0.552269  0  1.028957  0  0  -0.493718  0  1.299726  0  0  -0.512322  0  1.280241  0  -0.643268  0  -0.315886  -0.480365  0  1.312831  0
Cl  Cl127  1  0.20657763  0.50853418  0.44867569  1  0  -0.552738  0  1.025951  0  0  -0.494328  0  1.296339  0  0  -0.512905  0  1.276859  0  -0.642888  0  -0.316535  -0.481  0  1.309475  0
