# generated using pymatgen
data_ZnH15C12BrN5ClO
_symmetry_space_group_name_H-M   'P 1'
_cell_length_a   7.20897649
_cell_length_b   9.34534377
_cell_length_c   22.68500000
_cell_angle_alpha   90.00000000
_cell_angle_beta   90.00000000
_cell_angle_gamma   94.90676075
_symmetry_Int_Tables_number   1
_chemical_formula_structural   ZnH15C12BrN5ClO
_chemical_formula_sum   'Zn4 H60 C48 Br4 N20 Cl4 O4'
_cell_volume   1522.69581188
_cell_formula_units_Z   4
loop_
 _symmetry_equiv_pos_site_id
 _symmetry_equiv_pos_as_xyz
  1  'x, y, z'
loop_
 _atom_site_type_symbol
 _atom_site_label
 _atom_site_symmetry_multiplicity
 _atom_site_fract_x
 _atom_site_fract_y
 _atom_site_fract_z
 _atom_site_occupancy
 _atom_site_hle17_bader_spin_density
 _atom_site_hle17_ddec_charge
 _atom_site_hle17_ddec_spin_density
 _atom_site_hle17_ddec_sum_bond_order
 _atom_site_hle17_magmom
 _atom_site_hse06_10hf_bader_spin_density
 _atom_site_hse06_10hf_ddec_charge
 _atom_site_hse06_10hf_ddec_spin_density
 _atom_site_hse06_10hf_ddec_sum_bond_order
 _atom_site_hse06_10hf_magmom
 _atom_site_hse06_bader_spin_density
 _atom_site_hse06_ddec_charge
 _atom_site_hse06_ddec_spin_density
 _atom_site_hse06_ddec_sum_bond_order
 _atom_site_hse06_magmom
 _atom_site_pbe_bader_charge
 _atom_site_pbe_bader_spin_density
 _atom_site_pbe_cm5_charge
 _atom_site_pbe_ddec_charge
 _atom_site_pbe_ddec_spin_density
 _atom_site_pbe_ddec_sum_bond_order
 _atom_site_pbe_magmom
Zn  Zn0  1  0.18388303  0.31601761  0.25867005  1  0  0.954043  0  1.899723  0  0  0.775866  0  2.355254  0  0  0.815105  0  2.311641  0  1.234161  0  0.709204  0.748771  0  2.385898  0
Zn  Zn1  1  0.31611554  0.68398077  0.75866872  1  0  0.954076  0  1.899758  0  0  0.775863  0  2.355302  0  0  0.815108  0  2.311687  0  1.234283  0  0.709203  0.74877  0  2.385938  0
Zn  Zn2  1  0.81612018  0.68398292  0.74132995  1  0  0.954037  0  1.899809  0  0  0.77583  0  2.355367  0  0  0.815073  0  2.311752  0  1.234201  0  0.709168  0.748737  0  2.386005  0
Zn  Zn3  1  0.68388200  0.31601868  0.24133084  1  0  0.954038  0  1.899776  0  0  0.775811  0  2.35532  0  0  0.815057  0  2.311706  0  1.234332  0  0.709175  0.748718  0  2.385964  0
H  H4  1  0.18398375  0.62471385  0.00330262  1  0  0.114323  0  0.963393  0  0  0.122549  0  1.031945  0  0  0.126153  0  1.028612  0  0.064613  0  0.100731  0.120107  0  1.033754  0
H  H5  1  0.31602278  0.37528132  0.50330130  1  0  0.11437  0  0.963368  0  0  0.122594  0  1.031927  0  0  0.1262  0  1.028587  0  0.064741  0  0.100714  0.120151  0  1.033737  0
H  H6  1  0.81601934  0.37528561  0.99669694  1  0  0.114349  0  0.963378  0  0  0.122596  0  1.031905  0  0  0.126202  0  1.028571  0  0.064606  0  0.10073  0.120154  0  1.033714  0
H  H7  1  0.68397151  0.62471385  0.49669738  1  0  0.114425  0  0.963325  0  0  0.122654  0  1.03187  0  0  0.12626  0  1.028533  0  0.06478  0  0.100746  0.12021  0  1.033681  0
H  H8  1  0.12714226  0.84336804  0.16835266  1  0  0.11043  0  0.977242  0  0  0.114842  0  1.050517  0  0  0.11776  0  1.048041  0  0.126506  0  0.102504  0.113171  0  1.05174  0
H  H9  1  0.37286276  0.15662605  0.66835266  1  0  0.110411  0  0.977362  0  0  0.114835  0  1.050624  0  0  0.117742  0  1.048159  0  0.1265  0  0.10252  0.113162  0  1.051851  0
H  H10  1  0.87286071  0.15663034  0.83164734  1  0  0.110429  0  0.977282  0  0  0.114828  0  1.050576  0  0  0.117748  0  1.048099  0  0.126524  0  0.10249  0.113155  0  1.051803  0
H  H11  1  0.62714587  0.84337341  0.33164734  1  0  0.110364  0  0.977341  0  0  0.114793  0  1.0506  0  0  0.117712  0  1.048123  0  0.126546  0  0.102492  0.113121  0  1.051823  0
H  H12  1  0.15908960  0.74155725  0.25502535  1  0  0.07064  0  0.933873  0  0  0.081339  0  1.003486  0  0  0.083045  0  0.999858  0  0.103704  0  0.116172  0.07995  0  1.005925  0
H  H13  1  0.34091439  0.25844006  0.75502579  1  0  0.070609  0  0.933867  0  0  0.081294  0  1.00351  0  0  0.083001  0  0.999879  0  0.103687  0  0.116152  0.079909  0  1.005945  0
H  H14  1  0.84091373  0.25844436  0.74497333  1  0  0.07062  0  0.933864  0  0  0.081313  0  1.003483  0  0  0.083019  0  0.999854  0  0.10383  0  0.116156  0.079925  0  1.005921  0
H  H15  1  0.65908743  0.74156047  0.24497377  1  0  0.070581  0  0.933853  0  0  0.081278  0  1.003486  0  0  0.082985  0  0.999855  0  0.103812  0  0.116153  0.079893  0  1.00592  0
H  H16  1  0.03611550  0.59161355  0.34904915  1  0  0.060313  0  0.963689  0  0  0.078938  0  1.024913  0  0  0.077825  0  1.027729  0  0.059709  0  0.101011  0.079783  0  1.022671  0
H  H17  1  0.46388306  0.40838483  0.84904783  1  0  0.060314  0  0.963698  0  0  0.078939  0  1.024917  0  0  0.077825  0  1.027735  0  0.059719  0  0.101008  0.079784  0  1.022676  0
H  H18  1  0.96388794  0.40838913  0.65094997  1  0  0.060394  0  0.963669  0  0  0.078995  0  1.024916  0  0  0.077884  0  1.02773  0  0.059909  0  0.101007  0.079838  0  1.022673  0
H  H19  1  0.53611285  0.59161248  0.15095129  1  0  0.060372  0  0.963652  0  0  0.078953  0  1.024898  0  0  0.07784  0  1.027713  0  0.059693  0  0.101014  0.079796  0  1.022655  0
H  H20  1  0.27309234  0.65979457  0.35023363  1  0  0.074468  0  0.932759  0  0  0.095532  0  0.991134  0  0  0.0943  0  0.9936  0  0.070583  0  0.108224  0.096436  0  0.988885  0
H  H21  1  0.22690646  0.34020596  0.85023275  1  0  0.074481  0  0.932715  0  0  0.095543  0  0.991098  0  0  0.09431  0  0.993565  0  0.07032  0  0.108244  0.096448  0  0.988848  0
H  H22  1  0.72691352  0.34020488  0.64976637  1  0  0.074495  0  0.932798  0  0  0.09556  0  0.991173  0  0  0.094327  0  0.993639  0  0.070235  0  0.108212  0.096466  0  0.988923  0
H  H23  1  0.77308727  0.65979672  0.14976637  1  0  0.074475  0  0.932781  0  0  0.09552  0  0.991149  0  0  0.094286  0  0.993617  0  0.070224  0  0.10822  0.096426  0  0.988898  0
H  H24  1  0.37579250  0.42548271  0.37436412  1  0  0.062823  0  0.957906  0  0  0.079005  0  1.021825  0  0  0.078497  0  1.023999  0  0.029526  0  0.099058  0.079236  0  1.020411  0
H  H25  1  0.12420884  0.57451567  0.87436324  1  0  0.062864  0  0.957875  0  0  0.07904  0  1.021783  0  0  0.078533  0  1.023957  0  0.029551  0  0.099066  0.079271  0  1.02037  0
H  H26  1  0.62420758  0.57451459  0.62563632  1  0  0.062851  0  0.957928  0  0  0.079014  0  1.021833  0  0  0.078508  0  1.024007  0  0.029537  0  0.099056  0.079244  0  1.020419  0
H  H27  1  0.87579183  0.42548701  0.12563676  1  0  0.062837  0  0.957906  0  0  0.079002  0  1.021815  0  0  0.078492  0  1.023986  0  0.029544  0  0.099066  0.079232  0  1.020403  0
H  H28  1  0.18921263  0.45722119  0.42251796  1  0  0.04891  0  0.950066  0  0  0.061816  0  1.024084  0  0  0.062489  0  1.023391  0  0.056754  0  0.089774  0.061383  0  1.024583  0
H  H29  1  0.31078871  0.54277719  0.92251708  1  0  0.048959  0  0.950047  0  0  0.061846  0  1.024068  0  0  0.062518  0  1.023377  0  0.056773  0  0.089787  0.061412  0  1.024569  0
H  H30  1  0.81078479  0.54277719  0.57748115  1  0  0.048931  0  0.95007  0  0  0.061807  0  1.024085  0  0  0.062481  0  1.023394  0  0.056705  0  0.089784  0.061374  0  1.024585  0
H  H31  1  0.68921172  0.45722334  0.07748204  1  0  0.048915  0  0.950052  0  0  0.061804  0  1.024058  0  0  0.062473  0  1.023366  0  0.056747  0  0.089783  0.061369  0  1.02456  0
H  H32  1  0.15640653  0.20086467  0.43620939  1  0  0.036418  0  0.947538  0  0  0.052211  0  1.019358  0  0  0.052355  0  1.019516  0  0.046501  0  0.084452  0.052615  0  1.018785  0
H  H33  1  0.34359354  0.79913479  0.93620939  1  0  0.036414  0  0.947507  0  0  0.052225  0  1.019336  0  0  0.05237  0  1.019492  0  0.046506  0  0.084456  0.052628  0  1.018764  0
H  H34  1  0.84359263  0.79913694  0.56379017  1  0  0.036426  0  0.94751  0  0  0.052211  0  1.019354  0  0  0.052379  0  1.019488  0  0.046861  0  0.084469  0.052616  0  1.018781  0
H  H35  1  0.65640828  0.20086574  0.06379105  1  0  0.036389  0  0.947506  0  0  0.052163  0  1.019366  0  0  0.052334  0  1.019497  0  0.046525  0  0.084444  0.052568  0  1.018791  0
H  H36  1  0.32603849  0.16597726  0.38287503  1  0  0.059478  0  0.924323  0  0  0.076175  0  0.987699  0  0  0.076324  0  0.988319  0  0.051102  0  0.097324  0.076161  0  0.987281  0
H  H37  1  0.17396297  0.83402220  0.88287547  1  0  0.05947  0  0.924312  0  0  0.07618  0  0.987701  0  0  0.076328  0  0.988322  0  0.051112  0  0.09733  0.076167  0  0.987282  0
H  H38  1  0.67396032  0.83402113  0.61712453  1  0  0.059445  0  0.924322  0  0  0.076149  0  0.987715  0  0  0.076297  0  0.988339  0  0.051086  0  0.097313  0.076136  0  0.987298  0
H  H39  1  0.82603897  0.16597940  0.11712541  1  0  0.059425  0  0.924313  0  0  0.07613  0  0.987701  0  0  0.076278  0  0.988326  0  0.051095  0  0.09732  0.07612  0  0.987276  0
H  H40  1  0.07960231  0.01506375  0.32598942  1  0  0.049907  0  0.972656  0  0  0.064356  0  1.042387  0  0  0.063284  0  1.045111  0  0.020637  0  0.081615  0.06511  0  1.040803  0
H  H41  1  0.42039613  0.98493356  0.82598898  1  0  0.049878  0  0.972713  0  0  0.064342  0  1.042425  0  0  0.063269  0  1.045151  0  0.020654  0  0.081602  0.065096  0  1.040842  0
H  H42  1  0.92039475  0.98493141  0.67401190  1  0  0.049864  0  0.972706  0  0  0.064325  0  1.042427  0  0  0.063255  0  1.045148  0  0.02063  0  0.081598  0.065079  0  1.040845  0
H  H43  1  0.57960581  0.01506805  0.17401190  1  0  0.049846  0  0.972709  0  0  0.06431  0  1.042437  0  0  0.063238  0  1.04516  0  0.02063  0  0.081589  0.065064  0  1.040854  0
H  H44  1  0.91104700  0.05811776  0.37813313  1  0  0.061321  0  0.941875  0  0  0.077638  0  1.006318  0  0  0.078774  0  1.006206  0  0.054502  0  0.080028  0.076411  0  1.00714  0
H  H45  1  0.58895368  0.94188277  0.87813313  1  0  0.06133  0  0.941869  0  0  0.07764  0  1.006315  0  0  0.078776  0  1.006202  0  0.054497  0  0.080017  0.076415  0  1.007134  0
H  H46  1  0.08894940  0.94188384  0.62186731  1  0  0.061368  0  0.941857  0  0  0.077676  0  1.006301  0  0  0.078811  0  1.006191  0  0.054543  0  0.080053  0.076452  0  1.007121  0
H  H47  1  0.41104838  0.05811991  0.12186908  1  0  0.061369  0  0.941797  0  0  0.077667  0  1.006271  0  0  0.078803  0  1.006158  0  0.054509  0  0.080025  0.076441  0  1.007093  0
H  H48  1  0.25605619  0.89484426  0.40442319  1  0  0.082366  0  0.986982  0  0  0.09829  0  1.061133  0  0  0.099426  0  1.061547  0  0.011872  0  0.070861  0.097794  0  1.060246  0
H  H49  1  0.24394099  0.10515412  0.90442231  1  0  0.082363  0  0.987069  0  0  0.098298  0  1.061211  0  0  0.099435  0  1.061624  0  0.011863  0  0.070879  0.097802  0  1.060324  0
H  H50  1  0.74393870  0.10515627  0.59558078  1  0  0.0823  0  0.987069  0  0  0.098257  0  1.061192  0  0  0.099393  0  1.061606  0  0.011809  0  0.070837  0.097761  0  1.060307  0
H  H51  1  0.75605528  0.89484641  0.09557814  1  0  0.082353  0  0.986993  0  0  0.098287  0  1.061137  0  0  0.099422  0  1.061551  0  0.0119  0  0.070856  0.097792  0  1.06025  0
H  H52  1  0.02270995  0.81710905  0.39939079  1  0  0.086852  0  0.986491  0  0  0.108125  0  1.049991  0  0  0.108305  0  1.052354  0  0.021071  0  0.075664  0.108082  0  1.047816  0
H  H53  1  0.47728874  0.18289041  0.89939079  1  0  0.086796  0  0.986513  0  0  0.10809  0  1.049996  0  0  0.108264  0  1.052364  0  0.021092  0  0.075659  0.108058  0  1.047813  0
H  H54  1  0.97728633  0.18289148  0.60061230  1  0  0.086821  0  0.986513  0  0  0.108103  0  1.050013  0  0  0.108282  0  1.052377  0  0.021064  0  0.075661  0.108061  0  1.047839  0
H  H55  1  0.52270765  0.81711119  0.10061098  1  0  0.086827  0  0.986487  0  0  0.108112  0  1.049982  0  0  0.108287  0  1.052348  0  0.02114  0  0.075672  0.108079  0  1.0478  0
H  H56  1  0.08885794  0.93696820  0.45772625  1  0  0.085325  0  0.967084  0  0  0.103882  0  1.035003  0  0  0.105644  0  1.034529  0  0.016437  0  0.071388  0.102234  0  1.036069  0
H  H57  1  0.41113936  0.06303125  0.95772669  1  0  0.085325  0  0.96705  0  0  0.10389  0  1.034966  0  0  0.105652  0  1.034492  0  0.016443  0  0.071385  0.102243  0  1.036032  0
H  H58  1  0.91113314  0.06303555  0.54227551  1  0  0.085324  0  0.967011  0  0  0.10389  0  1.034937  0  0  0.105652  0  1.034463  0  0.01655  0  0.07138  0.102242  0  1.036004  0
H  H59  1  0.58885576  0.93697142  0.04227463  1  0  0.085328  0  0.967079  0  0  0.103886  0  1.034993  0  0  0.105648  0  1.034519  0  0.016451  0  0.07138  0.102239  0  1.036059  0
H  H60  1  0.98723873  0.30996569  0.35538241  1  0  0.253849  0  0.947573  0  0  0.242936  0  1.007485  0  0  0.248983  0  1.003924  0  0.440581  0  0.280641  0.238696  0  1.009722  0
H  H61  1  0.51276333  0.69003484  0.85538197  1  0  0.253831  0  0.947622  0  0  0.242911  0  1.007546  0  0  0.248958  0  1.003986  0  0.440567  0  0.280623  0.238671  0  1.00978  0
H  H62  1  0.01276297  0.69003377  0.64461627  1  0  0.253869  0  0.947522  0  0  0.242958  0  1.007437  0  0  0.249005  0  1.003876  0  0.440567  0  0.28063  0.238718  0  1.00967  0
H  H63  1  0.48723861  0.30996676  0.14461803  1  0  0.25383  0  0.947629  0  0  0.24292  0  1.007541  0  0  0.248967  0  1.00398  0  0.440571  0  0.280644  0.238681  0  1.009777  0
C  C64  1  0.17988983  0.61985620  0.17524399  1  0  -0.098924  0  3.784044  0  0  -0.076639  0  4.028439  0  0  -0.090295  0  4.055112  0  -0.043422  0  -0.03477  -0.067131  0  4.010031  0
C  C65  1  0.32011115  0.38013896  0.67524311  1  0  -0.098799  0  3.783952  0  0  -0.076531  0  4.028317  0  0  -0.090192  0  4.054997  0  -0.043596  0  -0.034792  -0.067022  0  4.009908  0
C  C66  1  0.82011857  0.38014111  0.82475733  1  0  -0.09879  0  3.783934  0  0  -0.076507  0  4.028325  0  0  -0.090166  0  4.055004  0  -0.043659  0  -0.034744  -0.066998  0  4.009916  0
C  C67  1  0.67988651  0.61986157  0.32475601  1  0  -0.098821  0  3.78394  0  0  -0.076557  0  4.028335  0  0  -0.090214  0  4.05501  0  -0.043417  0  -0.034785  -0.067049  0  4.009926  0
C  C68  1  0.21183470  0.48861170  0.14478290  1  0  0.294513  0  3.887657  0  0  0.269235  0  4.152013  0  0  0.287944  0  4.164763  0  0.714592  0  0.083817  0.256208  0  4.142779  0
C  C69  1  0.28816815  0.51138776  0.64478113  1  0  0.294358  0  3.887709  0  0  0.269142  0  4.151997  0  0  0.287852  0  4.164748  0  0.714621  0  0.083878  0.256117  0  4.142759  0
C  C70  1  0.78817406  0.51138883  0.85521710  1  0  0.294419  0  3.88762  0  0  0.269123  0  4.152  0  0  0.287832  0  4.164749  0  0.713725  0  0.083766  0.256097  0  4.142765  0
C  C71  1  0.71183066  0.48861063  0.35521666  1  0  0.294334  0  3.887812  0  0  0.269088  0  4.152153  0  0  0.287798  0  4.164905  0  0.714158  0  0.083776  0.256061  0  4.142918  0
C  C72  1  0.21402916  0.49891983  0.08162971  1  0  -0.03202  0  3.667687  0  0  -0.016282  0  3.941901  0  0  -0.020033  0  3.961734  0  -0.0858  0  -0.037987  -0.014188  0  3.928933  0
C  C73  1  0.28597702  0.50107211  0.58162883  1  0  -0.031877  0  3.667801  0  0  -0.01616  0  3.941999  0  0  -0.019907  0  3.961829  0  -0.08558  0  -0.037996  -0.014068  0  3.929036  0
C  C74  1  0.78597797  0.50107855  0.91837029  1  0  -0.032006  0  3.667707  0  0  -0.016271  0  3.941936  0  0  -0.020013  0  3.961762  0  -0.085823  0  -0.038003  -0.014178  0  3.928971  0
C  C75  1  0.71401854  0.49892198  0.41837029  1  0  -0.031939  0  3.667738  0  0  -0.016213  0  3.941948  0  0  -0.019963  0  3.961784  0  -0.085831  0  -0.037995  -0.014117  0  3.928978  0
C  C76  1  0.18389143  0.62326826  0.05124664  1  0  -0.153256  0  3.795311  0  0  -0.192395  0  4.057823  0  0  -0.188944  0  4.075491  0  0.104136  0  -0.10262  -0.193364  0  4.044647  0
C  C77  1  0.31611209  0.37672475  0.55124532  1  0  -0.153294  0  3.795621  0  0  -0.192467  0  4.058146  0  0  -0.189018  0  4.075823  0  0.104083  0  -0.102581  -0.193439  0  4.044969  0
C  C78  1  0.81611444  0.37673120  0.94875380  1  0  -0.153224  0  3.795349  0  0  -0.192422  0  4.057882  0  0  -0.188962  0  4.075525  0  0.104196  0  -0.102607  -0.193392  0  4.044705  0
C  C79  1  0.68388069  0.62326933  0.44875292  1  0  -0.153374  0  3.795445  0  0  -0.192509  0  4.057966  0  0  -0.189057  0  4.075628  0  0.104046  0  -0.102601  -0.193478  0  4.04479  0
C  C80  1  0.15291640  0.74824711  0.08284858  1  0  0.109574  0  3.842146  0  0  0.121604  0  4.114809  0  0  0.119735  0  4.137135  0  -0.039398  0  -0.007197  0.122781  0  4.09931  0
C  C81  1  0.34709279  0.25174697  0.58284902  1  0  0.109473  0  3.842522  0  0  0.121549  0  4.115126  0  0  0.119674  0  4.13746  0  -0.039461  0  -0.00721  0.122734  0  4.099618  0
C  C82  1  0.84709224  0.25175234  0.91715186  1  0  0.109458  0  3.842403  0  0  0.12154  0  4.114991  0  0  0.119665  0  4.137329  0  -0.039455  0  -0.007213  0.122722  0  4.099484  0
C  C83  1  0.65291006  0.74825034  0.41715098  1  0  0.10961  0  3.842208  0  0  0.121612  0  4.11491  0  0  0.119744  0  4.137237  0  -0.039426  0  -0.007175  0.12279  0  4.099409  0
C  C84  1  0.15194045  0.74672635  0.14371611  1  0  -0.139695  0  3.752928  0  0  -0.176529  0  4.010516  0  0  -0.172922  0  4.029747  0  0.024037  0  -0.092413  -0.178774  0  3.997024  0
C  C85  1  0.34806644  0.25327204  0.64371523  1  0  -0.139712  0  3.753202  0  0  -0.17658  0  4.01079  0  0  -0.172962  0  4.030037  0  0.024192  0  -0.092425  -0.178827  0  3.997295  0
C  C86  1  0.84806554  0.25327418  0.85628433  1  0  -0.139746  0  3.753138  0  0  -0.176587  0  4.010708  0  0  -0.172979  0  4.029943  0  0.024711  0  -0.092416  -0.178833  0  3.997215  0
C  C87  1  0.65193792  0.74672635  0.35628389  1  0  -0.139703  0  3.753144  0  0  -0.176534  0  4.010729  0  0  -0.17293  0  4.029961  0  0.024409  0  -0.092426  -0.17878  0  3.997235  0
C  C88  1  0.17624708  0.63267854  0.23857791  1  0  0.182438  0  3.678176  0  0  0.13387  0  3.932019  0  0  0.150524  0  3.943564  0  0.644913  0  0.082347  0.12294  0  3.924006  0
C  C89  1  0.32375461  0.36732307  0.73857747  1  0  0.182538  0  3.678441  0  0  0.133939  0  3.932268  0  0  0.1506  0  3.94382  0  0.644906  0  0.082443  0.123009  0  3.92425  0
C  C90  1  0.82375854  0.36731877  0.76142253  1  0  0.182498  0  3.67795  0  0  0.133917  0  3.931804  0  0  0.150579  0  3.94335  0  0.644794  0  0.082382  0.122988  0  3.923791  0
C  C91  1  0.67624594  0.63267854  0.26142209  1  0  0.182643  0  3.678299  0  0  0.134026  0  3.932129  0  0  0.150687  0  3.943682  0  0.644792  0  0.082456  0.123095  0  3.924111  0
C  C92  1  0.17856844  0.56510432  0.33911616  1  0  0.003177  0  3.672801  0  0  -0.05371  0  3.927665  0  0  -0.050122  0  3.941792  0  0.28627  0  -0.070353  -0.056109  0  3.918056  0
C  C93  1  0.32143175  0.43489622  0.83911572  1  0  0.003237  0  3.672751  0  0  -0.053678  0  3.927583  0  0  -0.050082  0  3.941713  0  0.286537  0  -0.070353  -0.056075  0  3.917975  0
C  C94  1  0.82143604  0.43489514  0.66088340  1  0  0.003021  0  3.673005  0  0  -0.053877  0  3.927802  0  0  -0.050282  0  3.941931  0  0.286475  0  -0.070344  -0.056271  0  3.91819  0
C  C95  1  0.67856476  0.56510646  0.16088428  1  0  0.003139  0  3.672898  0  0  -0.053685  0  3.927541  0  0  -0.050088  0  3.941663  0  0.286816  0  -0.070317  -0.05608  0  3.91793  0
C  C96  1  0.22569937  0.43745768  0.37616310  1  0  0.008335  0  3.658845  0  0  -0.048795  0  3.919887  0  0  -0.045041  0  3.932006  0  0.278208  0  -0.078896  -0.051565  0  3.911686  0
C  C97  1  0.27430348  0.56254178  0.87616266  1  0  0.008251  0  3.658965  0  0  -0.04884  0  3.919951  0  0  -0.045089  0  3.932073  0  0.278195  0  -0.078906  -0.051611  0  3.911749  0
C  C98  1  0.77430071  0.56253963  0.62383646  1  0  0.008299  0  3.658912  0  0  -0.048708  0  3.919789  0  0  -0.044962  0  3.931917  0  0.278087  0  -0.078868  -0.051479  0  3.911591  0
C  C99  1  0.72569719  0.43746090  0.12383734  1  0  0.008374  0  3.658782  0  0  -0.048693  0  3.919685  0  0  -0.044927  0  3.931787  0  0.278052  0  -0.078875  -0.051461  0  3.911488  0
C  C100  1  0.17668161  0.17856224  0.38886445  1  0  0.033042  0  3.668847  0  0  -0.024495  0  3.934308  0  0  -0.020781  0  3.948408  0  0.252789  0  -0.079788  -0.026819  0  3.923218  0
C  C101  1  0.32331822  0.82143507  0.88886401  1  0  0.033129  0  3.668682  0  0  -0.024498  0  3.934288  0  0  -0.020786  0  3.948391  0  0.25279  0  -0.07976  -0.02682  0  3.923192  0
C  C102  1  0.82331732  0.82143722  0.61113511  1  0  0.033133  0  3.668688  0  0  -0.024457  0  3.934261  0  0  -0.020763  0  3.948375  0  0.252428  0  -0.07976  -0.026772  0  3.923152  0
C  C103  1  0.67668348  0.17856439  0.11113599  1  0  0.033254  0  3.668524  0  0  -0.024305  0  3.934071  0  0  -0.020614  0  3.94818  0  0.252792  0  -0.079714  -0.02662  0  3.922973  0
C  C104  1  0.05942192  0.04103492  0.37267445  1  0  -0.088218  0  3.713572  0  0  -0.119193  0  3.968995  0  0  -0.120618  0  3.985676  0  -0.039721  0  -0.175581  -0.11808  0  3.957505  0
C  C105  1  0.44057815  0.95896454  0.87267490  1  0  -0.088232  0  3.713524  0  0  -0.1192  0  3.968986  0  0  -0.120626  0  3.985668  0  -0.039696  0  -0.175572  -0.118089  0  3.957499  0
C  C106  1  0.94057574  0.95896562  0.62732599  1  0  -0.08829  0  3.713595  0  0  -0.119258  0  3.969062  0  0  -0.120688  0  3.985754  0  -0.039766  0  -0.175617  -0.118147  0  3.957578  0
C  C107  1  0.55942240  0.04103706  0.12732643  1  0  -0.088217  0  3.713486  0  0  -0.119207  0  3.968969  0  0  -0.120634  0  3.985657  0  -0.039729  0  -0.175556  -0.118095  0  3.957483  0
C  C108  1  0.10956219  0.91525862  0.41065594  1  0  -0.292253  0  3.733304  0  0  -0.363194  0  3.974668  0  0  -0.36602  0  3.986466  0  -0.032342  0  -0.2608  -0.360781  0  3.965717  0
C  C109  1  0.39043511  0.08474084  0.91065594  1  0  -0.292198  0  3.733347  0  0  -0.363148  0  3.974671  0  0  -0.365969  0  3.986474  0  -0.032347  0  -0.260801  -0.360745  0  3.965708  0
C  C110  1  0.89043282  0.08474299  0.58934626  1  0  -0.29214  0  3.733351  0  0  -0.363117  0  3.974648  0  0  -0.365942  0  3.98645  0  -0.032324  0  -0.260751  -0.360701  0  3.965688  0
C  C111  1  0.60956128  0.91526077  0.08934494  1  0  -0.292267  0  3.733255  0  0  -0.363204  0  3.97461  0  0  -0.366025  0  3.986412  0  -0.0324  0  -0.260809  -0.3608  0  3.965653  0
Br  Br112  1  0.25735879  0.33096107  0.03780516  1  0  -0.031345  0  1.300984  0  0  -0.018544  0  1.559463  0  0  -0.022388  0  1.552657  0  -0.063065  0  0.05749  -0.016582  0  1.567141  0
Br  Br113  1  0.24263906  0.66903087  0.53780207  1  0  -0.03139  0  1.300837  0  0  -0.018584  0  1.559328  0  0  -0.022429  0  1.552524  0  -0.063298  0  0.057473  -0.016623  0  1.56701  0
Br  Br114  1  0.74263827  0.66903409  0.96219572  1  0  -0.031334  0  1.300947  0  0  -0.018531  0  1.559445  0  0  -0.022379  0  1.552635  0  -0.063037  0  0.057495  -0.01657  0  1.567127  0
Br  Br115  1  0.75734516  0.33096107  0.46219528  1  0  -0.031358  0  1.300922  0  0  -0.018559  0  1.559427  0  0  -0.022405  0  1.552624  0  -0.063032  0  0.057482  -0.016594  0  1.5671  0
N  N116  1  0.19095783  0.53048218  0.27641084  1  0  -0.35097  0  3.206994  0  0  -0.262102  0  3.492102  0  0  -0.281827  0  3.504065  0  -1.219511  0  -0.357752  -0.250416  0  3.484948  0
N  N117  1  0.30904466  0.46951406  0.77640908  1  0  -0.351183  0  3.207363  0  0  -0.26223  0  3.492368  0  0  -0.281971  0  3.504344  0  -1.219526  0  -0.357867  -0.250544  0  3.485214  0
N  N118  1  0.80904978  0.46952050  0.72358783  1  0  -0.351034  0  3.206931  0  0  -0.262131  0  3.492017  0  0  -0.281869  0  3.503991  0  -1.219432  0  -0.35776  -0.250444  0  3.484861  0
N  N119  1  0.69095324  0.53048862  0.22358960  1  0  -0.351199  0  3.207374  0  0  -0.262217  0  3.492316  0  0  -0.281967  0  3.5043  0  -1.219519  0  -0.357856  -0.250531  0  3.485161  0
N  N120  1  0.12946882  0.30314372  0.35373948  1  0  -0.435401  0  3.25526  0  0  -0.356988  0  3.508417  0  0  -0.376494  0  3.519423  0  -1.096803  0  -0.486582  -0.34127  0  3.498863  0
N  N121  1  0.37053252  0.69685466  0.85373948  1  0  -0.435406  0  3.255364  0  0  -0.356983  0  3.508537  0  0  -0.376487  0  3.519543  0  -1.096893  0  -0.486584  -0.34126  0  3.498975  0
N  N122  1  0.87053137  0.69685466  0.64626008  1  0  -0.435384  0  3.255167  0  0  -0.356989  0  3.508318  0  0  -0.376495  0  3.519332  0  -1.096766  0  -0.486611  -0.341273  0  3.498767  0
N  N123  1  0.62946803  0.30314694  0.14626141  1  0  -0.435453  0  3.255097  0  0  -0.357064  0  3.50827  0  0  -0.376576  0  3.519279  0  -1.096908  0  -0.486668  -0.341356  0  3.498728  0
N  N124  1  0.42371616  0.20654284  0.26164999  1  0  -0.584931  0  2.820218  0  0  -0.531297  0  3.1531  0  0  -0.552417  0  3.150029  0  -0.382583  0  -0.31995  -0.518945  0  3.157145  0
N  N125  1  0.07628704  0.79345984  0.76164867  1  0  -0.58484  0  2.820138  0  0  -0.531216  0  3.153059  0  0  -0.552335  0  3.149987  0  -0.38243  0  -0.319959  -0.518866  0  3.157108  0
N  N126  1  0.57628392  0.79345447  0.73834913  1  0  -0.58501  0  2.81982  0  0  -0.531362  0  3.152726  0  0  -0.55249  0  3.149658  0  -0.382691  0  -0.31999  -0.519007  0  3.156776  0
N  N127  1  0.92371375  0.20654391  0.23835089  1  0  -0.584973  0  2.820179  0  0  -0.531344  0  3.153104  0  0  -0.552466  0  3.150034  0  -0.382693  0  -0.319966  -0.518984  0  3.157128  0
N  N128  1  0.41340201  0.07756982  0.26946793  1  0  0.402234  0  4.183218  0  0  0.435417  0  4.458329  0  0  0.450576  0  4.485333  0  -0.345133  0  0.095277  0.425264  0  4.441556  0
N  N129  1  0.08660421  0.92243500  0.76946793  1  0  0.402006  0  4.183313  0  0  0.435182  0  4.458426  0  0  0.45034  0  4.485436  0  -0.345193  0  0.095188  0.425031  0  4.441647  0
N  N130  1  0.58660053  0.92243715  0.73053163  1  0  0.402254  0  4.183368  0  0  0.435406  0  4.458499  0  0  0.450565  0  4.485505  0  -0.345268  0  0.095302  0.425255  0  4.441725  0
N  N131  1  0.91340075  0.07756875  0.23053251  1  0  0.402264  0  4.183286  0  0  0.435431  0  4.458397  0  0  0.450589  0  4.485403  0  -0.345249  0  0.095266  0.425281  0  4.441618  0
N  N132  1  0.40429563  0.95409830  0.27643685  1  0  -0.33961  0  2.4106  0  0  -0.337957  0  2.636302  0  0  -0.343683  0  2.645934  0  0.033137  0  -0.156671  -0.335537  0  2.630896  0
N  N133  1  0.09571439  0.04590330  0.77643685  1  0  -0.339453  0  2.410692  0  0  -0.337776  0  2.63638  0  0  -0.343499  0  2.646017  0  0.033131  0  -0.156576  -0.335358  0  2.630973  0
N  N134  1  0.59570964  0.04589578  0.72356491  1  0  -0.339528  0  2.411168  0  0  -0.337834  0  2.636851  0  0  -0.343551  0  2.64648  0  0.033353  0  -0.156612  -0.335431  0  2.631463  0
N  N135  1  0.90429346  0.95410153  0.22356447  1  0  -0.339591  0  2.410683  0  0  -0.337918  0  2.636378  0  0  -0.343639  0  2.646009  0  0.033309  0  -0.156635  -0.335512  0  2.630988  0
Cl  Cl136  1  0.12157622  0.90524906  0.04485255  1  0  -0.096179  0  1.414317  0  0  -0.07762  0  1.661768  0  0  -0.081629  0  1.657681  0  -0.231603  0  0.007337  -0.076137  0  1.668632  0
Cl  Cl137  1  0.37842591  0.09474396  0.54485210  1  0  -0.096144  0  1.414476  0  0  -0.077592  0  1.661912  0  0  -0.081598  0  1.657828  0  -0.231725  0  0.007325  -0.076113  0  1.668775  0
Cl  Cl138  1  0.87842398  0.09474933  0.95514613  1  0  -0.096107  0  1.41446  0  0  -0.077566  0  1.661889  0  0  -0.081574  0  1.657806  0  -0.231416  0  0.007355  -0.076087  0  1.668752  0
Cl  Cl139  1  0.62157127  0.90525228  0.45514701  1  0  -0.096181  0  1.414377  0  0  -0.077609  0  1.661842  0  0  -0.081619  0  1.657757  0  -0.231456  0  0.007325  -0.076129  0  1.668706  0
O  O140  1  0.24137905  0.36905756  0.17085960  1  0  -0.602011  0  2.127504  0  0  -0.537905  0  2.396546  0  0  -0.563856  0  2.38945  0  -1.167076  0  -0.333555  -0.51746  0  2.398943  0
O  O141  1  0.25861766  0.63093653  0.67085916  1  0  -0.601969  0  2.127489  0  0  -0.537895  0  2.396533  0  0  -0.563847  0  2.389436  0  -1.167006  0  -0.3336  -0.517451  0  2.398926  0
O  O142  1  0.75862706  0.63094405  0.82914040  1  0  -0.601986  0  2.12753  0  0  -0.537847  0  2.39655  0  0  -0.5638  0  2.389457  0  -1.166791  0  -0.33352  -0.5174  0  2.398944  0
O  O143  1  0.74137838  0.36906185  0.32913996  1  0  -0.601897  0  2.127611  0  0  -0.537809  0  2.396656  0  0  -0.563757  0  2.38956  0  -1.167106  0  -0.333507  -0.517364  0  2.399054  0
