# generated using pymatgen
data_ZnH28C20(N5O4)2
_symmetry_space_group_name_H-M   'P 1'
_cell_length_a   7.37970027
_cell_length_b   10.35511767
_cell_length_c   18.50604664
_cell_angle_alpha   95.38252513
_cell_angle_beta   90.00006762
_cell_angle_gamma   89.99999845
_symmetry_Int_Tables_number   1
_chemical_formula_structural   ZnH28C20(N5O4)2
_chemical_formula_sum   'Zn2 H56 C40 N20 O16'
_cell_volume   1407.95317053
_cell_formula_units_Z   2
loop_
 _symmetry_equiv_pos_site_id
 _symmetry_equiv_pos_as_xyz
  1  'x, y, z'
loop_
 _atom_site_type_symbol
 _atom_site_label
 _atom_site_symmetry_multiplicity
 _atom_site_fract_x
 _atom_site_fract_y
 _atom_site_fract_z
 _atom_site_occupancy
 _atom_site_hle17_bader_spin_density
 _atom_site_hle17_ddec_charge
 _atom_site_hle17_ddec_spin_density
 _atom_site_hle17_ddec_sum_bond_order
 _atom_site_hle17_magmom
 _atom_site_hse06_10hf_bader_spin_density
 _atom_site_hse06_10hf_ddec_charge
 _atom_site_hse06_10hf_ddec_spin_density
 _atom_site_hse06_10hf_ddec_sum_bond_order
 _atom_site_hse06_10hf_magmom
 _atom_site_hse06_bader_spin_density
 _atom_site_hse06_ddec_charge
 _atom_site_hse06_ddec_spin_density
 _atom_site_hse06_ddec_sum_bond_order
 _atom_site_hse06_magmom
 _atom_site_pbe_bader_spin_density
 _atom_site_pbe_cm5_charge
 _atom_site_pbe_ddec_charge
 _atom_site_pbe_ddec_spin_density
 _atom_site_pbe_ddec_sum_bond_order
 _atom_site_pbe_magmom
Zn  Zn0  1  0.90214208  0.03879330  0.73330231  1  0  1.03893  0  1.798048  0  0  0.850716  0  2.267003  0  0  0.901494  0  2.2065  0  0  0.684388  0.815121  0  2.308477  0
Zn  Zn1  1  0.40214546  0.96120526  0.26669852  1  0  1.03891  0  1.798049  0  0  0.850685  0  2.267016  0  0  0.901466  0  2.206512  0  0  0.684368  0.815082  0  2.308488  0
H  H2  1  0.79030452  0.21116196  0.94191986  1  0  0.12702  0  0.944165  0  0  0.142914  0  1.009634  0  0  0.145291  0  1.007806  0  0  0.114817  0.14108  0  1.011108  0
H  H3  1  0.29030456  0.78884436  0.05808188  1  0  0.12704  0  0.94423  0  0  0.142944  0  1.009692  0  0  0.14532  0  1.007867  0  0  0.114814  0.141105  0  1.011169  0
H  H4  1  0.65879235  0.33782634  0.90779472  1  0  0.098544  0  0.933351  0  0  0.117826  0  0.997305  0  0  0.119179  0  0.995885  0  0  0.104937  0.116674  0  0.998507  0
H  H5  1  0.15879792  0.66218094  0.09220701  1  0  0.098537  0  0.933379  0  0  0.117824  0  0.997331  0  0  0.119177  0  0.995911  0  0  0.104949  0.11667  0  0.998535  0
H  H6  1  0.65854295  0.17826068  0.86153243  1  0  0.108976  0  0.983908  0  0  0.118434  0  1.061692  0  0  0.119895  0  1.060784  0  0  0.104737  0.117335  0  1.062446  0
H  H7  1  0.15854188  0.82174660  0.13846876  1  0  0.10902  0  0.983793  0  0  0.118483  0  1.061572  0  0  0.119947  0  1.060664  0  0  0.104762  0.117381  0  1.062327  0
H  H8  1  0.41335546  0.26954237  0.84309986  1  0  0.30015  0  0.893795  0  0  0.282439  0  0.957408  0  0  0.288807  0  0.953334  0  0  0.324948  0.278055  0  0.960212  0
H  H9  1  0.91335576  0.73045814  0.15689946  1  0  0.300145  0  0.893754  0  0  0.282501  0  0.957347  0  0  0.28887  0  0.953273  0  0  0.324971  0.278116  0  0.960155  0
H  H10  1  0.06347685  0.35521470  0.90996816  1  0  0.083267  0  0.923532  0  0  0.095104  0  0.982002  0  0  0.09693  0  0.980918  0  0  0.124466  0.093755  0  0.98291  0
H  H11  1  0.56347966  0.64478290  0.09003083  1  0  0.083269  0  0.923486  0  0  0.095051  0  0.982026  0  0  0.096878  0  0.980934  0  0  0.124434  0.093704  0  0.982932  0
H  H12  1  0.05609431  0.52086940  0.82479813  1  0  0.057348  0  0.909164  0  0  0.07533  0  0.958329  0  0  0.07586  0  0.95904  0  0  0.101327  0.07492  0  0.957858  0
H  H13  1  0.55609602  0.47913109  0.17520156  1  0  0.057404  0  0.909206  0  0  0.075418  0  0.958357  0  0  0.075934  0  0.959085  0  0  0.101353  0.075011  0  0.957885  0
H  H14  1  0.24723878  0.41714724  0.72396390  1  0  0.096362  0  0.969071  0  0  0.116545  0  1.034977  0  0  0.117423  0  1.036162  0  0  0.08371  0.115898  0  1.034161  0
H  H15  1  0.74723537  0.58285520  0.27603652  1  0  0.096353  0  0.969027  0  0  0.116533  0  1.034949  0  0  0.117411  0  1.036134  0  0  0.0837  0.115886  0  1.034132  0
H  H16  1  0.44436611  0.43820057  0.77920742  1  0  0.097954  0  0.947026  0  0  0.122442  0  1.003962  0  0  0.123575  0  1.0044  0  0  0.088174  0.121581  0  1.003731  0
H  H17  1  0.94436389  0.56180187  0.22079472  1  0  0.097957  0  0.947011  0  0  0.122453  0  1.003931  0  0  0.123586  0  1.004367  0  0  0.088178  0.121594  0  1.003702  0
H  H18  1  0.32794264  0.57521976  0.75337149  1  0  0.103733  0  0.938704  0  0  0.127741  0  0.994354  0  0  0.129258  0  0.994177  0  0  0.091569  0.126594  0  0.994588  0
H  H19  1  0.82794050  0.42478461  0.24663071  1  0  0.103715  0  0.938716  0  0  0.127736  0  0.994356  0  0  0.129253  0  0.994178  0  0  0.091586  0.126588  0  0.994592  0
H  H20  1  0.18909312  0.56951532  0.94967471  1  0  0.09275  0  0.949949  0  0  0.115465  0  1.009643  0  0  0.11633  0  1.010341  0  0  0.082604  0.114768  0  1.009232  0
H  H21  1  0.68909581  0.43048517  0.05032613  1  0  0.092783  0  0.94996  0  0  0.115513  0  1.009639  0  0  0.11638  0  1.010335  0  0  0.082631  0.114816  0  1.00923  0
H  H22  1  0.28682057  0.66753315  0.88614525  1  0  0.106127  0  0.96346  0  0  0.128205  0  1.021994  0  0  0.129306  0  1.022677  0  0  0.089002  0.127376  0  1.021637  0
H  H23  1  0.78682481  0.33246637  0.11385611  1  0  0.106128  0  0.96346  0  0  0.128245  0  1.021954  0  0  0.129345  0  1.02264  0  0  0.089038  0.127418  0  1.021595  0
H  H24  1  0.40910878  0.53366098  0.91421918  1  0  0.092388  0  0.951095  0  0  0.11138  0  1.01661  0  0  0.113004  0  1.016319  0  0  0.080899  0.110207  0  1.016822  0
H  H25  1  0.90911429  0.46634048  0.08578235  1  0  0.092353  0  0.951096  0  0  0.111357  0  1.016608  0  0  0.112982  0  1.016317  0  0  0.080869  0.110187  0  1.016819  0
H  H26  1  0.94827845  0.14488062  0.06810912  1  0  0.358834  0  0.897072  0  0  0.33859  0  0.963009  0  0  0.347743  0  0.954383  0  0  0.312005  0.332072  0  0.969307  0
H  H27  1  0.44827842  0.85511601  0.93189054  1  0  0.35883  0  0.897085  0  0  0.338595  0  0.963009  0  0  0.347748  0  0.954382  0  0  0.312001  0.332075  0  0.969305  0
H  H28  1  0.10095823  0.08841615  0.13395774  1  0  0.346111  0  0.899575  0  0  0.323814  0  0.962992  0  0  0.334078  0  0.953374  0  0  0.313011  0.316571  0  0.969808  0
H  H29  1  0.60095796  0.91158241  0.86604187  1  0  0.346149  0  0.89955  0  0  0.32379  0  0.963062  0  0  0.334055  0  0.953443  0  0  0.312999  0.316546  0  0.969878  0
H  H30  1  0.37030859  0.89067108  0.57757290  1  0  0.1202  0  0.91879  0  0  0.141005  0  0.976357  0  0  0.142098  0  0.97561  0  0  0.114477  0.140085  0  0.977057  0
H  H31  1  0.87030834  0.10933038  0.42242861  1  0  0.120271  0  0.918599  0  0  0.141  0  0.976267  0  0  0.142093  0  0.975519  0  0  0.114475  0.140081  0  0.976967  0
H  H32  1  0.52182276  0.87052858  0.50226975  1  0  0.131162  0  0.93133  0  0  0.148592  0  0.993474  0  0  0.151024  0  0.991298  0  0  0.117545  0.146784  0  0.995081  0
H  H33  1  0.02182278  0.12947481  0.49773225  1  0  0.131128  0  0.931399  0  0  0.14855  0  0.993543  0  0  0.15098  0  0.991372  0  0  0.117536  0.146741  0  0.99515  0
H  H34  1  0.44577502  0.73244101  0.54338684  1  0  0.10423  0  0.933781  0  0  0.123218  0  0.998959  0  0  0.124575  0  0.997374  0  0  0.110013  0.122083  0  1.000192  0
H  H35  1  0.94577216  0.26756241  0.45661428  1  0  0.104232  0  0.933755  0  0  0.123243  0  0.998903  0  0  0.124602  0  0.997312  0  0  0.110033  0.122108  0  1.000135  0
H  H36  1  0.18212889  0.74357952  0.59640768  1  0  0.299777  0  0.875677  0  0  0.287876  0  0.930305  0  0  0.294823  0  0.925201  0  0  0.329309  0.282879  0  0.934153  0
H  H37  1  0.68212858  0.25642291  0.40359325  1  0  0.299776  0  0.87569  0  0  0.287882  0  0.930312  0  0  0.29483  0  0.925207  0  0  0.32931  0.282885  0  0.934163  0
H  H38  1  0.80672194  0.67132919  0.55291602  1  0  0.077362  0  0.926203  0  0  0.08744  0  0.98704  0  0  0.089387  0  0.985584  0  0  0.117031  0.086038  0  0.98818  0
H  H39  1  0.30671909  0.32866937  0.44708423  1  0  0.077344  0  0.926208  0  0  0.087453  0  0.987056  0  0  0.089401  0  0.985601  0  0  0.117023  0.086051  0  0.988194  0
H  H40  1  0.03635887  0.60485607  0.68224101  1  0  0.046829  0  0.912299  0  0  0.063657  0  0.965828  0  0  0.063662  0  0.966897  0  0  0.097817  0.06358  0  0.965196  0
H  H41  1  0.53635424  0.39513958  0.31775733  1  0  0.046809  0  0.912343  0  0  0.063675  0  0.965854  0  0  0.06368  0  0.966923  0  0  0.097799  0.063599  0  0.965223  0
H  H42  1  0.70966676  0.63557014  0.71652108  1  0  0.107763  0  0.949123  0  0  0.127373  0  1.008738  0  0  0.129077  0  1.008587  0  0  0.087885  0.126145  0  1.008932  0
H  H43  1  0.20965935  0.36442356  0.28347939  1  0  0.107788  0  0.949122  0  0  0.127399  0  1.008751  0  0  0.129103  0  1.008602  0  0  0.0879  0.126172  0  1.008943  0
H  H44  1  0.77638491  0.47010636  0.71517279  1  0  0.119985  0  0.976177  0  0  0.13824  0  1.041671  0  0  0.140309  0  1.041265  0  0  0.087243  0.136686  0  1.042148  0
H  H45  1  0.27637615  0.52988639  0.28482604  1  0  0.119944  0  0.976292  0  0  0.138227  0  1.041745  0  0  0.140295  0  1.041341  0  0  0.087266  0.13667  0  1.042222  0
H  H46  1  0.64553261  0.52356775  0.64257692  1  0  0.087141  0  0.944626  0  0  0.108675  0  1.006362  0  0  0.109708  0  1.006917  0  0  0.078514  0.107983  0  1.005924  0
H  H47  1  0.14552813  0.47642887  0.35742314  1  0  0.08717  0  0.944693  0  0  0.108679  0  1.006456  0  0  0.109711  0  1.007013  0  0  0.078506  0.107988  0  1.006016  0
H  H48  1  0.12381889  0.47105421  0.56738725  1  0  0.093242  0  0.956327  0  0  0.109489  0  1.02616  0  0  0.111511  0  1.025287  0  0  0.079829  0.108024  0  1.026761  0
H  H49  1  0.62381596  0.52894438  0.43260859  1  0  0.093223  0  0.956339  0  0  0.109469  0  1.026166  0  0  0.111496  0  1.025288  0  0  0.079813  0.108005  0  1.026767  0
H  H50  1  0.89199505  0.43094103  0.55129877  1  0  0.084565  0  0.963933  0  0  0.105474  0  1.029345  0  0  0.106233  0  1.030168  0  0  0.079622  0.104858  0  1.028805  0
H  H51  1  0.39199085  0.56905948  0.44870053  1  0  0.084576  0  0.963851  0  0  0.105471  0  1.029277  0  0  0.106234  0  1.030097  0  0  0.079623  0.104852  0  1.02874  0
H  H52  1  0.00658251  0.37488867  0.62694644  1  0  0.103425  0  0.961307  0  0  0.125476  0  1.022425  0  0  0.126226  0  1.023744  0  0  0.087942  0.124979  0  1.021434  0
H  H53  1  0.50657940  0.62510506  0.37305016  1  0  0.103414  0  0.96131  0  0  0.125465  0  1.022411  0  0  0.126218  0  1.023735  0  0  0.087912  0.124973  0  1.021416  0
H  H54  1  0.67702400  0.82457128  0.37591311  1  0  0.348443  0  0.896716  0  0  0.328466  0  0.961693  0  0  0.337284  0  0.953757  0  0  0.312001  0.32218  0  0.967487  0
H  H55  1  0.17702304  0.17542825  0.62408658  1  0  0.348436  0  0.896719  0  0  0.328462  0  0.961691  0  0  0.33728  0  0.953754  0  0  0.312001  0.322176  0  0.967484  0
H  H56  1  0.81070953  0.85750748  0.30013943  1  0  0.348683  0  0.910695  0  0  0.318794  0  0.989959  0  0  0.328767  0  0.980389  0  0  0.307212  0.311733  0  0.996708  0
H  H57  1  0.31070880  0.14249108  0.69986082  1  0  0.348666  0  0.910727  0  0  0.318777  0  0.989983  0  0  0.328748  0  0.980416  0  0  0.307209  0.311715  0  0.996732  0
C  C58  1  0.33699885  0.22883175  0.94373867  1  0  0.576861  0  3.787317  0  0  0.514023  0  4.078965  0  0  0.546229  0  4.08198  0  0  0.368974  0.492437  0  4.076333  0
C  C59  1  0.83700020  0.77116584  0.05626153  1  0  0.57688  0  3.787132  0  0  0.514009  0  4.078954  0  0  0.546215  0  4.08197  0  0  0.368953  0.49242  0  4.076327  0
C  C60  1  0.22072855  0.15635864  0.04788577  1  0  0.513189  0  3.824275  0  0  0.473575  0  4.103126  0  0  0.501956  0  4.10906  0  0  0.25886  0.454762  0  4.098586  0
C  C61  1  0.72072989  0.84363993  0.95211389  1  0  0.513098  0  3.824345  0  0  0.473503  0  4.103171  0  0  0.501886  0  4.109105  0  0  0.258818  0.454689  0  4.098632  0
C  C62  1  0.40013695  0.11937810  0.07128907  1  0  -0.156104  0  3.730969  0  0  -0.155097  0  4.004839  0  0  -0.174866  0  4.024566  0  0  0.075862  -0.14268  0  3.992028  0
C  C63  1  0.90013552  0.88062241  0.92871078  1  0  -0.1561  0  3.73105  0  0  -0.155091  0  4.004902  0  0  -0.174862  0  4.024633  0  0  0.075836  -0.142674  0  3.992092  0
C  C64  1  0.55532611  0.14198055  0.02489165  1  0  0.506993  0  3.832267  0  0  0.454274  0  4.12478  0  0  0.484825  0  4.126876  0  0  0.245041  0.433739  0  4.123076  0
C  C65  1  0.05532350  0.85802189  0.97510761  1  0  0.507002  0  3.832295  0  0  0.454285  0  4.124813  0  0  0.484835  0  4.126911  0  0  0.24508  0.433749  0  4.123108  0
C  C66  1  0.66407578  0.23382787  0.91487759  1  0  -0.173  0  3.649605  0  0  -0.27869  0  3.912213  0  0  -0.274475  0  3.919629  0  0  -0.144631  -0.281136  0  3.907022  0
C  C67  1  0.16407590  0.76617748  0.08512296  1  0  -0.173054  0  3.649563  0  0  -0.278764  0  3.912211  0  0  -0.27455  0  3.919617  0  0  -0.144671  -0.281206  0  3.907022  0
C  C68  1  0.14753981  0.34466590  0.86074557  1  0  0.007559  0  3.587976  0  0  -0.018323  0  3.826734  0  0  -0.018655  0  3.838986  0  0  0.017729  -0.017994  0  3.818266  0
C  C69  1  0.64753870  0.65533557  0.13925368  1  0  0.007528  0  3.587862  0  0  -0.0182  0  3.826703  0  0  -0.018522  0  3.838936  0  0  0.017775  -0.017876  0  3.818236  0
C  C70  1  0.03133988  0.26528849  0.80342078  1  0  0.631585  0  3.878787  0  0  0.582426  0  4.18529  0  0  0.614972  0  4.180276  0  0  0.204263  0.560265  0  4.187577  0
C  C71  1  0.53133895  0.73471396  0.19657685  1  0  0.631702  0  3.87889  0  0  0.582463  0  4.185492  0  0  0.615009  0  4.18048  0  0  0.204251  0.560302  0  4.18778  0
C  C72  1  0.18945476  0.48140007  0.83781576  1  0  0.070504  0  3.64974  0  0  0.074188  0  3.895343  0  0  0.073748  0  3.913721  0  0  -0.087461  0.074571  0  3.88261  0
C  C73  1  0.68945372  0.51860139  0.16218513  1  0  0.070446  0  3.649569  0  0  0.074037  0  3.895324  0  0  0.073603  0  3.913696  0  0  -0.087502  0.074419  0  3.882594  0
C  C74  1  0.30824268  0.47693078  0.76979552  1  0  -0.318593  0  3.680758  0  0  -0.397333  0  3.922144  0  0  -0.400113  0  3.933411  0  0  -0.246428  -0.395124  0  3.914221  0
C  C75  1  0.80823914  0.52307068  0.23020650  1  0  -0.318551  0  3.680596  0  0  -0.397281  0  3.922011  0  0  -0.40006  0  3.933273  0  0  -0.246412  -0.395079  0  3.914103  0
C  C76  1  0.27320758  0.56768026  0.90052273  1  0  -0.313805  0  3.697455  0  0  -0.393325  0  3.941613  0  0  -0.396068  0  3.953288  0  0  -0.249474  -0.391166  0  3.933459  0
C  C77  1  0.77321177  0.43232024  0.09947868  1  0  -0.313863  0  3.697389  0  0  -0.393419  0  3.941594  0  0  -0.39616  0  3.953265  0  0  -0.249528  -0.391258  0  3.933441  0
C  C78  1  0.08649478  0.77413657  0.49696069  1  0  0.56316  0  3.808047  0  0  0.500544  0  4.103964  0  0  0.532399  0  4.107192  0  0  0.362784  0.479149  0  4.101233  0
C  C79  1  0.58649206  0.22586199  0.50303945  1  0  0.563191  0  3.808003  0  0  0.500571  0  4.10392  0  0  0.532427  0  4.107146  0  0  0.362815  0.479173  0  4.101188  0
C  C80  1  0.95185632  0.81753150  0.38960281  1  0  0.50822  0  3.848224  0  0  0.470159  0  4.124223  0  0  0.497733  0  4.130891  0  0  0.258517  0.451875  0  4.119528  0
C  C81  1  0.45185667  0.18246803  0.61039755  1  0  0.50818  0  3.848176  0  0  0.470164  0  4.124174  0  0  0.497745  0  4.130831  0  0  0.258501  0.451878  0  4.119479  0
C  C82  1  0.12514113  0.84807632  0.35972217  1  0  -0.157188  0  3.733428  0  0  -0.161997  0  3.999218  0  0  -0.182279  0  4.021042  0  0  0.073193  -0.149846  0  3.986024  0
C  C83  1  0.62513882  0.15192126  0.64027794  1  0  -0.157094  0  3.73333  0  0  -0.161988  0  3.999247  0  0  -0.182275  0  4.021075  0  0  0.073241  -0.149836  0  3.986053  0
C  C84  1  0.28251615  0.85225847  0.40644745  1  0  0.505177  0  3.841619  0  0  0.451198  0  4.12755  0  0  0.482496  0  4.129806  0  0  0.245609  0.430126  0  4.126155  0
C  C85  1  0.78251506  0.14774495  0.59355251  1  0  0.505147  0  3.841642  0  0  0.451127  0  4.127669  0  0  0.482425  0  4.129925  0  0  0.245609  0.430056  0  4.126273  0
C  C86  1  0.40618396  0.82848233  0.52839532  1  0  -0.15397  0  3.631401  0  0  -0.263174  0  3.895452  0  0  -0.257452  0  3.900392  0  0  -0.133266  -0.266786  0  3.892107  0
C  C87  1  0.90618521  0.17152108  0.47160631  1  0  -0.15397  0  3.631319  0  0  -0.263148  0  3.895359  0  0  -0.257425  0  3.900298  0  0  -0.133266  -0.266761  0  3.892016  0
C  C88  1  0.90744832  0.69365578  0.59580272  1  0  0.006869  0  3.582774  0  0  -0.016385  0  3.817808  0  0  -0.016719  0  3.829295  0  0  0.013454  -0.016063  0  3.80981  0
C  C89  1  0.40744670  0.30634085  0.40419746  1  0  0.006885  0  3.582788  0  0  -0.016508  0  3.818053  0  0  -0.016843  0  3.829545  0  0  0.013442  -0.016183  0  3.810049  0
C  C90  1  0.84673997  0.81593041  0.64347379  1  0  0.628924  0  3.8995  0  0  0.582689  0  4.203385  0  0  0.615147  0  4.198859  0  0  0.198269  0.560669  0  4.205261  0
C  C91  1  0.34674226  0.18406426  0.35652734  1  0  0.628918  0  3.899511  0  0  0.582746  0  4.203363  0  0  0.615205  0  4.198834  0  0  0.198266  0.560723  0  4.205241  0
C  C92  1  0.93083823  0.57762803  0.64134238  1  0  0.078748  0  3.642673  0  0  0.085446  0  3.881852  0  0  0.085417  0  3.899755  0  0  -0.086207  0.085529  0  3.869466  0
C  C93  1  0.43083240  0.42236957  0.35865679  1  0  0.078832  0  3.642716  0  0  0.085473  0  3.882036  0  0  0.085443  0  3.899944  0  0  -0.086147  0.085556  0  3.869644  0
C  C94  1  0.75544228  0.55050130  0.68141644  1  0  -0.329786  0  3.687678  0  0  -0.407525  0  3.927559  0  0  -0.411038  0  3.938469  0  0  -0.250222  -0.404922  0  3.920079  0
C  C95  1  0.25543633  0.44949436  0.31858308  1  0  -0.329857  0  3.687916  0  0  -0.407568  0  3.927815  0  0  -0.411081  0  3.938729  0  0  -0.250277  -0.404969  0  3.920357  0
C  C96  1  0.99306155  0.45706683  0.59394558  1  0  -0.312448  0  3.689849  0  0  -0.392625  0  3.935779  0  0  -0.395408  0  3.947271  0  0  -0.250487  -0.390426  0  3.927617  0
C  C97  1  0.49305858  0.54292982  0.40605194  1  0  -0.312431  0  3.689765  0  0  -0.39257  0  3.935735  0  0  -0.395356  0  3.947212  0  0  -0.250425  -0.390371  0  3.927575  0
N  N98  1  0.51392205  0.19851753  0.96084402  1  0  -0.253322  0  3.396833  0  0  -0.161126  0  3.630498  0  0  -0.18534  0  3.648094  0  0  -0.248799  -0.144861  0  3.61815  0
N  N99  1  0.01392203  0.80148393  0.03915571  1  0  -0.25337  0  3.396798  0  0  -0.161135  0  3.630502  0  0  -0.185343  0  3.648088  0  0  -0.248823  -0.144871  0  3.618155  0
N  N100  1  0.19514220  0.21250377  0.98616610  1  0  -0.545083  0  2.991111  0  0  -0.517892  0  3.279584  0  0  -0.541781  0  3.283094  0  0  -0.347888  -0.501819  0  3.276806  0
N  N101  1  0.69514478  0.78749480  0.01383355  1  0  -0.545134  0  2.991203  0  0  -0.517883  0  3.279666  0  0  -0.541774  0  3.283176  0  0  -0.347887  -0.501809  0  3.276889  0
N  N102  1  0.31280401  0.28086944  0.88068088  1  0  -0.400305  0  3.309329  0  0  -0.342253  0  3.555773  0  0  -0.362713  0  3.565349  0  0  -0.398222  -0.328302  0  3.548816  0
N  N103  1  0.81280148  0.71913009  0.11931996  1  0  -0.400125  0  3.309025  0  0  -0.342309  0  3.555744  0  0  -0.362774  0  3.565317  0  0  -0.398205  -0.328352  0  3.54878  0
N  N104  1  0.07659403  0.13276660  0.08767025  1  0  -0.601766  0  3.064273  0  0  -0.561717  0  3.291834  0  0  -0.583431  0  3.284849  0  0  -0.534629  -0.547118  0  3.296601  0
N  N105  1  0.57659119  0.86723196  0.91232934  1  0  -0.60174  0  3.064205  0  0  -0.561662  0  3.291775  0  0  -0.583377  0  3.28479  0  0  -0.534582  -0.547061  0  3.29654  0
N  N106  1  0.44359138  0.06365583  0.13116335  1  0  0.054758  0  2.98667  0  0  0.046894  0  3.273368  0  0  0.069855  0  3.27499  0  0  -0.165108  0.031976  0  3.272166  0
N  N107  1  0.94358977  0.93634468  0.86883652  1  0  0.054758  0  2.986697  0  0  0.04688  0  3.273387  0  0  0.069842  0  3.27501  0  0  -0.165085  0.031961  0  3.272187  0
N  N108  1  0.25452596  0.81974464  0.47701742  1  0  -0.250582  0  3.40933  0  0  -0.157812  0  3.644134  0  0  -0.181496  0  3.661102  0  0  -0.247074  -0.141915  0  3.63214  0
N  N109  1  0.75452601  0.18025876  0.52298361  1  0  -0.250682  0  3.409428  0  0  -0.157831  0  3.644161  0  0  -0.181515  0  3.661128  0  0  -0.247132  -0.141936  0  3.632167  0
N  N110  1  0.93834774  0.77729324  0.45652102  1  0  -0.544135  0  2.985157  0  0  -0.515004  0  3.268218  0  0  -0.538243  0  3.271915  0  0  -0.350185  -0.499522  0  3.265491  0
N  N111  1  0.43834518  0.22270436  0.54347923  1  0  -0.544087  0  2.985181  0  0  -0.514961  0  3.268219  0  0  -0.538203  0  3.271913  0  0  -0.350162  -0.499479  0  3.26549  0
N  N112  1  0.07846203  0.72301686  0.56096278  1  0  -0.408269  0  3.296746  0  0  -0.35643  0  3.545527  0  0  -0.376736  0  3.553929  0  0  -0.398277  -0.342681  0  3.539491  0
N  N113  1  0.57846047  0.27698460  0.43903751  1  0  -0.408288  0  3.296765  0  0  -0.356431  0  3.545599  0  0  -0.376739  0  3.554004  0  0  -0.398302  -0.342681  0  3.539561  0
N  N114  1  0.80124174  0.83143126  0.35214490  1  0  -0.603918  0  3.118888  0  0  -0.567056  0  3.360074  0  0  -0.588298  0  3.354036  0  0  -0.537396  -0.553025  0  3.364337  0
N  N115  1  0.30124085  0.16856828  0.64785539  1  0  -0.603916  0  3.118868  0  0  -0.56706  0  3.360058  0  0  -0.588305  0  3.354017  0  0  -0.537403  -0.553028  0  3.364322  0
N  N116  1  0.15395385  0.88553551  0.29266395  1  0  0.039915  0  3.344208  0  0  0.076377  0  3.663035  0  0  0.088268  0  3.663619  0  0  -0.163422  0.06887  0  3.66309  0
N  N117  1  0.65395310  0.11446306  0.70733568  1  0  0.039915  0  3.344324  0  0  0.07641  0  3.663178  0  0  0.088296  0  3.663762  0  0  -0.16344  0.068898  0  3.66324  0
O  O118  1  0.09320415  0.15253727  0.77882575  1  0  -0.639393  0  2.059908  0  0  -0.56379  0  2.329785  0  0  -0.593085  0  2.314411  0  0  -0.32898  -0.542868  0  2.33932  0
O  O119  1  0.59320464  0.84746226  0.22117444  1  0  -0.639483  0  2.059964  0  0  -0.563826  0  2.329863  0  0  -0.593123  0  2.314488  0  0  -0.328996  -0.542898  0  2.339381  0
O  O120  1  0.88489349  0.31397033  0.78624497  1  0  -0.612497  0  1.930626  0  0  -0.574632  0  2.161351  0  0  -0.599394  0  2.155181  0  0  -0.323517  -0.556544  0  2.164638  0
O  O121  1  0.38488858  0.68603218  0.21374796  1  0  -0.612521  0  1.930706  0  0  -0.574634  0  2.161482  0  0  -0.599395  0  2.155312  0  0  -0.323482  -0.556544  0  2.164762  0
O  O122  1  0.31018088  0.03897048  0.17408123  1  0  -0.435708  0  2.044377  0  0  -0.361322  0  2.311269  0  0  -0.38869  0  2.304795  0  0  -0.17393  -0.342812  0  2.315455  0
O  O123  1  0.81018049  0.96103101  0.82591755  1  0  -0.435722  0  2.044422  0  0  -0.3613  0  2.311293  0  0  -0.388669  0  2.304819  0  0  -0.173949  -0.342792  0  2.315482  0
O  O124  1  0.71424587  0.11571538  0.03888040  1  0  -0.533286  0  2.02687  0  0  -0.499674  0  2.265139  0  0  -0.52024  0  2.25894  0  0  -0.281792  -0.485547  0  2.269074  0
O  O125  1  0.21424592  0.88428609  0.96111942  1  0  -0.533294  0  2.026878  0  0  -0.499676  0  2.265129  0  0  -0.520242  0  2.258931  0  0  -0.281807  -0.485547  0  2.269062  0
O  O126  1  0.97871693  0.87377394  0.67968164  1  0  -0.644563  0  2.012032  0  0  -0.578878  0  2.276016  0  0  -0.60858  0  2.261499  0  0  -0.343272  -0.557971  0  2.285224  0
O  O127  1  0.47871640  0.12622464  0.32031760  1  0  -0.644521  0  2.012192  0  0  -0.57885  0  2.276165  0  0  -0.608553  0  2.261647  0  0  -0.343221  -0.557944  0  2.285373  0
O  O128  1  0.68468867  0.84894004  0.64440846  1  0  -0.605531  0  1.911629  0  0  -0.564671  0  2.131686  0  0  -0.591396  0  2.127316  0  0  -0.32163  -0.544883  0  2.133616  0
O  O129  1  0.18469232  0.15105363  0.35559577  1  0  -0.605571  0  1.911505  0  0  -0.56471  0  2.131538  0  0  -0.591435  0  2.127165  0  0  -0.321685  -0.54492  0  2.133469  0
O  O130  1  0.02451085  0.88410479  0.24743025  1  0  -0.329072  0  1.849875  0  0  -0.287886  0  2.06471  0  0  -0.299031  0  2.060292  0  0  -0.141959  -0.281199  0  2.068447  0
O  O131  1  0.52450889  0.11589668  0.75256894  1  0  -0.329079  0  1.849937  0  0  -0.287896  0  2.06476  0  0  -0.299026  0  2.060332  0  0  -0.141938  -0.281207  0  2.0685  0
O  O132  1  0.43661317  0.88422326  0.38665068  1  0  -0.551428  0  2.058492  0  0  -0.497883  0  2.297551  0  0  -0.520372  0  2.288611  0  0  -0.275329  -0.48278  0  2.303542  0
O  O133  1  0.93661214  0.11577918  0.61335038  1  0  -0.551412  0  2.05855  0  0  -0.497859  0  2.297642  0  0  -0.520346  0  2.288696  0  0  -0.275327  -0.482756  0  2.303634  0
