# generated using pymatgen
data_Zr3H24(C7O4)4
_symmetry_space_group_name_H-M   'P 1'
_cell_length_a   17.56339865
_cell_length_b   19.68058942
_cell_length_c   27.69151502
_cell_angle_alpha   90.07467410
_cell_angle_beta   89.96088068
_cell_angle_gamma   89.95159914
_symmetry_Int_Tables_number   1
_chemical_formula_structural   Zr3H24(C7O4)4
_chemical_formula_sum   'Zr12 H96 C112 O64'
_cell_volume   9571.78095504
_cell_formula_units_Z   4
loop_
 _symmetry_equiv_pos_site_id
 _symmetry_equiv_pos_as_xyz
  1  'x, y, z'
loop_
 _atom_site_type_symbol
 _atom_site_label
 _atom_site_symmetry_multiplicity
 _atom_site_fract_x
 _atom_site_fract_y
 _atom_site_fract_z
 _atom_site_occupancy
 _atom_site_pbe_bader_charge
 _atom_site_pbe_bader_spin_density
 _atom_site_pbe_cm5_charge
 _atom_site_pbe_ddec_charge
 _atom_site_pbe_ddec_spin_density
 _atom_site_pbe_ddec_sum_bond_order
 _atom_site_pbe_magmom
Zr  Zr0  1  0.90144850  0.08899462  0.00460963  1  2.624625  0  1.579819  2.382997  0  2.730886  0
Zr  Zr1  1  0.10503092  0.08391998  0.00454764  1  2.630527  0  1.579412  2.386767  0  2.736371  0
Zr  Zr2  1  0.89576682  0.90749829  0.00396227  1  2.626445  0  1.582087  2.380997  0  2.74243  0
Zr  Zr3  1  0.09901135  0.90290419  0.00374303  1  2.622182  0  1.576599  2.374524  0  2.74464  0
Zr  Zr4  1  0.00013751  0.99604818  0.91475940  1  2.617393  0  1.617334  2.360104  0  2.789543  0
Zr  Zr5  1  0.00014298  0.99561215  0.09380451  1  2.609722  0  1.617175  2.360901  0  2.787742  0
Zr  Zr6  1  0.40340398  0.40245559  0.50493276  1  2.623194  0  1.575684  2.372259  0  2.74931  0
Zr  Zr7  1  0.60670016  0.40889813  0.50411420  1  2.628536  0  1.580074  2.385713  0  2.736183  0
Zr  Zr8  1  0.39566584  0.58416267  0.50458555  1  2.627378  0  1.580036  2.379217  0  2.748593  0
Zr  Zr9  1  0.59828620  0.58963902  0.50475263  1  2.621709  0  1.574794  2.374023  0  2.741325  0
Zr  Zr10  1  0.50044870  0.49594565  0.59420370  1  2.62998  0  1.617665  2.357304  0  2.790632  0
Zr  Zr11  1  0.50047205  0.49556602  0.41486155  1  2.625046  0  1.615395  2.362614  0  2.786743  0
H  H12  1  0.99921576  0.13860406  0.07534066  1  0.576164  0  0.32864  0.419781  0  0.861046  0
H  H13  1  0.15998482  0.99222261  0.93311592  1  0.598678  0  0.330212  0.42334  0  0.858143  0
H  H14  1  0.00153953  0.85275436  0.07455088  1  0.602436  0  0.328291  0.419506  0  0.861844  0
H  H15  1  0.84129617  0.99663720  0.93284481  1  0.610407  0  0.329473  0.420574  0  0.860889  0
H  H16  1  0.25275520  0.07885254  0.97779506  1  0.577274  0  0.296045  0.384999  0  0.918499  0
H  H17  1  0.22988807  0.98618433  0.00667789  1  0.627132  0  0.278849  0.405718  0  0.935435  0
H  H18  1  0.09270616  0.77352906  0.97773996  1  0.593814  0  0.297106  0.389959  0  0.913518  0
H  H19  1  0.98800585  0.79043407  0.00304348  1  0.641731  0  0.278385  0.40539  0  0.936767  0
H  H20  1  0.75183334  0.91686235  0.03301819  1  0.586115  0  0.296751  0.388617  0  0.914299  0
H  H21  1  0.77028205  0.00852129  0.00547653  1  0.650211  0  0.27787  0.405947  0  0.936196  0
H  H22  1  0.91052649  0.21786147  0.97694177  1  0.566407  0  0.296515  0.388344  0  0.915411  0
H  H23  1  0.01375126  0.20054658  0.00290111  1  0.630388  0  0.277752  0.405076  0  0.937826  0
H  H24  1  0.90918018  0.76910441  0.03134014  1  0.595837  0  0.322703  0.40235  0  0.883991  0
H  H25  1  0.74797049  0.07801700  0.97537762  1  0.604611  0  0.322446  0.402319  0  0.882894  0
H  H26  1  0.09269405  0.22044806  0.03192012  1  0.594683  0  0.322442  0.402432  0  0.885115  0
H  H27  1  0.24234666  0.91805272  0.03918102  1  0.610901  0  0.320095  0.408275  0  0.886213  0
H  H28  1  0.50060334  0.35262650  0.43395015  1  0.636909  0  0.329032  0.421192  0  0.85845  0
H  H29  1  0.66081566  0.50107172  0.57519204  1  0.607374  0  0.32992  0.423504  0  0.857394  0
H  H30  1  0.50148670  0.63889760  0.43370587  1  0.609048  0  0.328124  0.419562  0  0.861046  0
H  H31  1  0.33977309  0.49285883  0.57534706  1  0.617445  0  0.335478  0.435225  0  0.834989  0
H  H32  1  0.75503774  0.41558685  0.52966416  1  0.59218  0  0.296733  0.385688  0  0.917411  0
H  H33  1  0.73007336  0.50796095  0.50164305  1  0.633887  0  0.278691  0.405706  0  0.935691  0
H  H34  1  0.59079894  0.71883879  0.53027747  1  0.589627  0  0.295858  0.388024  0  0.917395  0
H  H35  1  0.48644064  0.70185638  0.50448109  1  0.620786  0  0.278527  0.404043  0  0.938473  0
H  H36  1  0.25075793  0.57836811  0.47758734  1  0.595873  0  0.295215  0.385167  0  0.918977  0
H  H37  1  0.27191435  0.48309976  0.50261900  1  0.626172  0  0.279113  0.405653  0  0.936309  0
H  H38  1  0.41209322  0.27309398  0.53054108  1  0.599641  0  0.295535  0.387302  0  0.918246  0
H  H39  1  0.51598446  0.29147739  0.50560220  1  0.646666  0  0.278158  0.404912  0  0.937859  0
H  H40  1  0.40809019  0.72157751  0.47535031  1  0.589062  0  0.321254  0.400518  0  0.88608  0
H  H41  1  0.25965330  0.41387096  0.47086418  1  0.613514  0  0.317407  0.402814  0  0.89573  0
H  H42  1  0.59595190  0.27161154  0.47777806  1  0.589731  0  0.32304  0.403822  0  0.882831  0
H  H43  1  0.74186146  0.57676126  0.46961397  1  0.598323  0  0.319937  0.408273  0  0.886578  0
H  H44  1  0.31215053  0.73564311  0.18077721  1  0.063464  0  0.101591  0.099581  0  1.009441  0
H  H45  1  0.25082547  0.80077133  0.11495598  1  0.094383  0  0.10665  0.108967  0  0.996068  0
H  H46  1  0.08503554  0.87841350  0.21479734  1  0.102439  0  0.108465  0.113815  0  0.994987  0
H  H47  1  0.14139128  0.80908040  0.28032570  1  0.033624  0  0.101359  0.098963  0  1.009739  0
H  H48  1  0.22546096  0.79097995  0.33294939  1  0.061256  0  0.101725  0.100192  0  1.008522  0
H  H49  1  0.28113945  0.72092393  0.39807748  1  0.072184  0  0.103125  0.104811  0  1.002512  0
H  H50  1  0.37649633  0.58503753  0.29284254  1  0.126396  0  0.109259  0.114766  0  0.990976  0
H  H51  1  0.31596463  0.65126784  0.22709127  1  0.029909  0  0.102004  0.099961  0  1.008933  0
H  H52  1  0.81745851  0.83698161  0.28079600  1  0.065684  0  0.102326  0.100501  0  1.008457  0
H  H53  1  0.87850717  0.90339493  0.21528473  1  0.103829  0  0.110016  0.115454  0  0.990331  0
H  H54  1  0.77756236  0.77220262  0.10927994  1  0.078502  0  0.103333  0.105508  0  1.002819  0
H  H55  1  0.72093374  0.70201570  0.17412241  1  0.061796  0  0.101723  0.10018  0  1.008232  0
H  H56  1  0.63730589  0.68471300  0.22808014  1  0.03744  0  0.101334  0.099104  0  1.009366  0
H  H57  1  0.58149366  0.61523077  0.29381218  1  0.101713  0  0.108083  0.1129  0  0.995904  0
H  H58  1  0.75339206  0.68651382  0.39162312  1  0.080011  0  0.105847  0.107869  0  0.996827  0
H  H59  1  0.81441545  0.75097158  0.32540775  1  0.078801  0  0.101768  0.098727  0  1.010239  0
H  H60  1  0.18888389  0.23337371  0.33051619  1  0.053173  0  0.101335  0.099545  0  1.008786  0
H  H61  1  0.25193615  0.29873186  0.39557325  1  0.083773  0  0.105892  0.107894  0  0.997765  0
H  H62  1  0.41133692  0.37998944  0.29331941  1  0.090708  0  0.108301  0.113552  0  0.995096  0
H  H63  1  0.35340130  0.31045463  0.22842066  1  0.053595  0  0.101356  0.098974  0  1.009377  0
H  H64  1  0.26837824  0.29259381  0.17746354  1  0.081329  0  0.101195  0.098704  0  1.011005  0
H  H65  1  0.21354841  0.22223992  0.11203831  1  0.088639  0  0.105067  0.107143  0  0.999558  0
H  H66  1  0.12256138  0.08383400  0.21677719  1  0.097866  0  0.10837  0.113566  0  0.992963  0
H  H67  1  0.18280934  0.15002534  0.28271638  1  0.073383  0  0.101352  0.099133  0  1.010277  0
H  H68  1  0.14399942  0.80692633  0.72826605  1  0.052125  0  0.101459  0.099322  0  1.009038  0
H  H69  1  0.08334184  0.87355947  0.79390000  1  0.084346  0  0.107402  0.111576  0  0.997176  0
H  H70  1  0.24259223  0.79192897  0.89601548  1  0.07003  0  0.106233  0.109943  0  0.995437  0
H  H71  1  0.30808513  0.72928342  0.83039013  1  0.065599  0  0.101273  0.099432  0  1.009542  0
H  H72  1  0.23166623  0.79158353  0.67762671  1  0.094723  0  0.100922  0.097846  0  1.011563  0
H  H73  1  0.29244975  0.72474874  0.61206454  1  0.101966  0  0.109124  0.11435  0  0.991783  0
H  H74  1  0.38114101  0.58454710  0.71629803  1  0.09229  0  0.107355  0.111784  0  0.996703  0
H  H75  1  0.31606180  0.64733862  0.78208624  1  0.033487  0  0.100496  0.097781  0  1.011637  0
H  H76  1  0.83411416  0.16462235  0.72687988  1  0.078895  0  0.102045  0.099851  0  1.008358  0
H  H77  1  0.89705266  0.10085446  0.79296350  1  0.088245  0  0.10907  0.113974  0  0.993043  0
H  H78  1  0.77358655  0.21760053  0.89807496  1  0.073033  0  0.103198  0.105252  0  1.001334  0
H  H79  1  0.71273767  0.28416322  0.83278210  1  0.062506  0  0.101717  0.100489  0  1.007502  0
H  H80  1  0.63021637  0.29280762  0.77603294  1  0.057444  0  0.101182  0.098849  0  1.00854  0
H  H81  1  0.57155459  0.36085343  0.71048748  1  0.090102  0  0.108853  0.113913  0  0.993638  0
H  H82  1  0.76103236  0.31557504  0.61777989  1  0.087529  0  0.105128  0.106039  0  0.997981  0
H  H83  1  0.82480256  0.25423156  0.68454636  1  0.056907  0  0.101629  0.099313  0  1.008592  0
H  H84  1  0.85241722  0.81395613  0.72742777  1  0.073587  0  0.100662  0.098496  0  1.010709  0
H  H85  1  0.91320554  0.88053861  0.79290587  1  0.079607  0  0.106859  0.110802  0  0.998207  0
H  H86  1  0.75901755  0.79435954  0.89622959  1  0.07753  0  0.108864  0.113575  0  0.992456  0
H  H87  1  0.69302106  0.73165358  0.83072310  1  0.035851  0  0.101319  0.099047  0  1.0103  0
H  H88  1  0.68595992  0.65017254  0.78154527  1  0.044833  0  0.101633  0.099316  0  1.009533  0
H  H89  1  0.62048890  0.58765741  0.71590047  1  0.081743  0  0.108973  0.113958  0  0.991707  0
H  H90  1  0.70361749  0.73159951  0.61225682  1  0.048962  0  0.105006  0.106325  0  0.999341  0
H  H91  1  0.76366840  0.79828422  0.67773614  1  0.053668  0  0.101192  0.098506  0  1.010229  0
H  H92  1  0.68326211  0.24862449  0.18107487  1  0.04857  0  0.101031  0.098339  0  1.011478  0
H  H93  1  0.74565138  0.18313184  0.11543132  1  0.062543  0  0.109691  0.114823  0  0.989303  0
H  H94  1  0.92050914  0.11912976  0.21355971  1  0.09535  0  0.106843  0.112045  0  0.996693  0
H  H95  1  0.86332471  0.18931029  0.27848294  1  0.046224  0  0.100631  0.098127  0  1.011392  0
H  H96  1  0.78193758  0.20569173  0.33239861  1  0.065515  0  0.100875  0.098684  0  1.010794  0
H  H97  1  0.72562465  0.27602065  0.39743083  1  0.091532  0  0.105003  0.10778  0  0.999233  0
H  H98  1  0.61393531  0.40043954  0.29187282  1  0.098885  0  0.10783  0.112442  0  0.994125  0
H  H99  1  0.67433380  0.33400997  0.22605841  1  0.056907  0  0.101227  0.099095  0  1.010732  0
H  H100  1  0.14259345  0.18140172  0.72774606  1  0.041041  0  0.101298  0.09858  0  1.008902  0
H  H101  1  0.08276923  0.11495316  0.79366197  1  0.11495  0  0.108282  0.11255  0  0.994307  0
H  H102  1  0.24661279  0.19292592  0.89435286  1  0.102317  0  0.105591  0.10796  0  0.997463  0
H  H103  1  0.31173317  0.25461253  0.82822921  1  0.062187  0  0.100593  0.098242  0  1.011012  0
H  H104  1  0.31685275  0.33838490  0.78134825  1  0.05679  0  0.101173  0.099178  0  1.010192  0
H  H105  1  0.38217906  0.40171466  0.71602681  1  0.089172  0  0.107578  0.111518  0  0.996158  0
H  H106  1  0.29158222  0.26361208  0.61078073  1  0.114616  0  0.106101  0.108629  0  0.997525  0
H  H107  1  0.23073566  0.19632310  0.67573773  1  0.067121  0  0.101518  0.099501  0  1.008434  0
C  C108  1  0.87706203  0.11572718  0.88875669  1  1.551556  0  0.229658  0.632562  0  4.125447  0
C  C109  1  0.12818596  0.10862132  0.12085508  1  1.5545  0  0.230559  0.632644  0  4.125058  0
C  C110  1  0.12410237  0.11037484  0.88755060  1  1.536557  0  0.23195  0.63619  0  4.121143  0
C  C111  1  0.87328221  0.10653707  0.12137185  1  1.544479  0  0.232695  0.632404  0  4.122247  0
C  C112  1  0.86957457  0.88211591  0.11941276  1  1.535286  0  0.229741  0.63197  0  4.128603  0
C  C113  1  0.12117036  0.87603323  0.88822257  1  1.544395  0  0.231183  0.634857  0  4.121098  0
C  C114  1  0.12802573  0.88423692  0.12155880  1  1.54851  0  0.23067  0.632013  0  4.125674  0
C  C115  1  0.87741915  0.88100248  0.88766654  1  1.536375  0  0.232932  0.634373  0  4.11885  0
C  C116  1  0.38011774  0.37560497  0.62044306  1  1.542752  0  0.232181  0.634479  0  4.123365  0
C  C117  1  0.62928387  0.38267658  0.38804109  1  1.548593  0  0.229477  0.631692  0  4.125364  0
C  C118  1  0.62615806  0.38225986  0.62073586  1  1.547514  0  0.232689  0.637223  0  4.119797  0
C  C119  1  0.37222683  0.38437760  0.38739820  1  1.564496  0  0.230428  0.632281  0  4.125646  0
C  C120  1  0.36943948  0.60845872  0.38868122  1  1.550447  0  0.228647  0.631461  0  4.130755  0
C  C121  1  0.62006656  0.61637669  0.62075396  1  1.537664  0  0.232589  0.635862  0  4.114921  0
C  C122  1  0.62755010  0.60701326  0.38643146  1  1.537383  0  0.230451  0.632011  0  4.126293  0
C  C123  1  0.37793521  0.61113437  0.62088722  1  1.549507  0  0.234441  0.635422  0  4.118993  0
C  C124  1  0.16720074  0.80824183  0.24450778  1  -0.053363  0  -0.090033  -0.133117  0  3.985139  0
C  C125  1  0.23150796  0.76716753  0.23573484  1  -0.037105  0  -0.002369  0.073791  0  3.991752  0
C  C126  1  0.26143040  0.76573409  0.18851810  1  -0.025191  0  -0.089874  -0.133665  0  3.98371  0
C  C127  1  0.22809856  0.80303671  0.15154785  1  -0.007741  0  -0.083272  -0.084534  0  3.991369  0
C  C128  1  0.16477571  0.84433621  0.16093788  1  -0.045382  0  -0.019073  -0.043416  0  3.973401  0
C  C129  1  0.13477245  0.84672153  0.20787652  1  -0.012338  0  -0.082158  -0.084515  0  3.984281  0
C  C130  1  0.26617428  0.72656602  0.27480305  1  0.004004  0  -0.001677  0.074919  0  3.990868  0
C  C131  1  0.25702701  0.74507495  0.32363031  1  -0.063961  0  -0.090665  -0.13247  0  3.983555  0
C  C132  1  0.28893267  0.70641307  0.36040097  1  0.003213  0  -0.08737  -0.092036  0  4.005263  0
C  C133  1  0.33255467  0.64871693  0.34952653  1  -0.075666  0  -0.023273  -0.049054  0  3.983097  0
C  C134  1  0.34264639  0.63003197  0.30105082  1  -0.048869  0  -0.080857  -0.081439  0  3.981993  0
C  C135  1  0.30933830  0.66794625  0.26441985  1  -0.038036  0  -0.089387  -0.132562  0  3.982964  0
C  C136  1  0.75407507  0.74689091  0.18364998  1  -0.039649  0  -0.090954  -0.133235  0  3.985371  0
C  C137  1  0.76488284  0.76397270  0.23259006  1  0.005705  0  -0.001291  0.076875  0  3.989928  0
C  C138  1  0.80973210  0.82137595  0.24332522  1  -0.059989  0  -0.089169  -0.133589  0  3.982943  0
C  C139  1  0.84335620  0.85935308  0.20687140  1  -0.047631  0  -0.080588  -0.080174  0  3.98013  0
C  C140  1  0.83198820  0.84189275  0.15829745  1  -0.00084  0  -0.022447  -0.048458  0  3.980145  0
C  C141  1  0.78645579  0.78558346  0.14705789  1  -0.06835  0  -0.087266  -0.092733  0  4.005648  0
C  C142  1  0.73041524  0.72318071  0.27160054  1  -0.046461  0  -0.002456  0.07311  0  3.994312  0
C  C143  1  0.66452525  0.68406520  0.26346119  1  -0.041928  0  -0.090389  -0.134228  0  3.986264  0
C  C144  1  0.63240788  0.64554761  0.30022449  1  -0.030312  0  -0.081598  -0.08291  0  3.98136  0
C  C145  1  0.66417107  0.64627976  0.34669507  1  -0.044252  0  -0.01951  -0.043845  0  3.973654  0
C  C146  1  0.72921046  0.68555509  0.35539685  1  -0.003419  0  -0.082875  -0.084789  0  3.994346  0
C  C147  1  0.76238150  0.72256400  0.31824400  1  -0.033537  0  -0.090245  -0.132048  0  3.984378  0
C  C148  1  0.32921038  0.30892264  0.26467095  1  -0.013649  0  -0.090286  -0.132713  0  3.983247  0
C  C149  1  0.26601050  0.26693717  0.27420902  1  -0.008567  0  -0.001844  0.074434  0  3.990292  0
C  C150  1  0.23845588  0.26444170  0.32197343  1  -0.0143  0  -0.090051  -0.13366  0  3.983116  0
C  C151  1  0.27276997  0.30186089  0.35856991  1  -0.077761  0  -0.084008  -0.085311  0  3.993509  0
C  C152  1  0.33474926  0.34430558  0.34837130  1  0.012972  0  -0.02097  -0.045984  0  3.977296  0
C  C153  1  0.36254786  0.34755343  0.30094113  1  -0.084968  0  -0.082592  -0.085225  0  3.986381  0
C  C154  1  0.23044272  0.22659674  0.23527963  1  -0.032292  0  -0.002163  0.074659  0  3.990666  0
C  C155  1  0.23805291  0.24603518  0.18656603  1  -0.029171  0  -0.090849  -0.132944  0  3.986317  0
C  C156  1  0.20643538  0.20741004  0.14967016  1  -0.138597  0  -0.08513  -0.088097  0  3.998303  0
C  C157  1  0.16433128  0.14888105  0.16035240  1  -0.02422  0  -0.020303  -0.044587  0  3.975248  0
C  C158  1  0.15533495  0.12943423  0.20871192  1  -0.007924  0  -0.081222  -0.0828  0  3.982932  0
C  C159  1  0.18849500  0.16732228  0.24549287  1  -0.023688  0  -0.090799  -0.135024  0  3.984106  0
C  C160  1  0.25768103  0.75941926  0.82205820  1  -0.075274  0  -0.090762  -0.13401  0  3.985689  0
C  C161  1  0.23103187  0.76297119  0.77413843  1  -0.054026  0  -0.001618  0.076137  0  3.991248  0
C  C162  1  0.16718785  0.80428750  0.76473432  1  -0.006482  0  -0.090247  -0.134101  0  3.983496  0
C  C163  1  0.13220200  0.84109416  0.80140802  1  -0.051587  0  -0.081233  -0.081792  0  3.98381  0
C  C164  1  0.15883005  0.83644587  0.84902481  1  -0.021098  0  -0.021467  -0.047836  0  3.982628  0
C  C165  1  0.22169335  0.79489919  0.85902410  1  0.011445  0  -0.084496  -0.088217  0  3.996733  0
C  C166  1  0.26880333  0.72453580  0.73501687  1  0.003046  0  -0.003504  0.072919  0  3.994596  0
C  C167  1  0.26295528  0.74540653  0.68650558  1  -0.092683  0  -0.090753  -0.134252  0  3.985657  0
C  C168  1  0.29752841  0.70875460  0.64957631  1  -0.056095  0  -0.08027  -0.082357  0  3.984064  0
C  C169  1  0.34045313  0.65065933  0.66018821  1  0.004013  0  -0.01758  -0.04099  0  3.972298  0
C  C170  1  0.34766338  0.62977327  0.70835047  1  -0.049655  0  -0.082023  -0.083922  0  3.987848  0
C  C171  1  0.31175520  0.66574933  0.74506664  1  0.001155  0  -0.090961  -0.135228  0  3.990004  0
C  C172  1  0.75216091  0.24333895  0.82351889  1  -0.043464  0  -0.090667  -0.134628  0  3.985012  0
C  C173  1  0.76879213  0.22963480  0.77468389  1  0.019827  0  -0.001011  0.077388  0  3.989054  0
C  C174  1  0.82143833  0.17754570  0.76433768  1  -0.028572  0  -0.090029  -0.133674  0  3.983254  0
C  C175  1  0.85646969  0.14120245  0.80110435  1  -0.071607  0  -0.08074  -0.080667  0  3.981107  0
C  C176  1  0.83943813  0.15533661  0.84959467  1  -0.076635  0  -0.023546  -0.049986  0  3.98181  0
C  C177  1  0.78666298  0.20663766  0.86037832  1  -0.014784  0  -0.086506  -0.089851  0  4.00339  0
C  C178  1  0.73229336  0.26853567  0.73543554  1  -0.093628  0  -0.003416  0.071705  0  3.994258  0
C  C179  1  0.66048838  0.29920964  0.74193391  1  -0.026267  0  -0.089724  -0.13359  0  3.985427  0
C  C180  1  0.62675831  0.33661825  0.70517644  1  -0.014222  0  -0.080699  -0.08269  0  3.979282  0
C  C181  1  0.66273146  0.34242527  0.66015651  1  -0.069792  0  -0.017082  -0.038309  0  3.971305  0
C  C182  1  0.73341876  0.31107522  0.65287480  1  -0.015617  0  -0.084097  -0.087871  0  3.998387  0
C  C183  1  0.76827747  0.27576674  0.69025140  1  0.028739  0  -0.090228  -0.132606  0  3.986531  0
C  C184  1  0.74239481  0.76291561  0.82210568  1  -0.093545  0  -0.090632  -0.135114  0  3.98644  0
C  C185  1  0.76766358  0.76777766  0.77392235  1  0.041114  0  -0.002479  0.074888  0  3.991199  0
C  C186  1  0.83023801  0.81036909  0.76412238  1  -0.06787  0  -0.091222  -0.13633  0  3.988876  0
C  C187  1  0.86528367  0.84716777  0.80070411  1  -0.042116  0  -0.082588  -0.084188  0  3.988615  0
C  C188  1  0.83990036  0.84132463  0.84852566  1  -0.006213  0  -0.018882  -0.043108  0  3.975007  0
C  C189  1  0.77843650  0.79845233  0.85896421  1  0.010795  0  -0.080334  -0.082355  0  3.985238  0
C  C190  1  0.72982487  0.72938651  0.73486679  1  -0.069797  0  -0.001919  0.075009  0  3.990485  0
C  C191  1  0.68868694  0.66954343  0.74471500  1  -0.084299  0  -0.090208  -0.133919  0  3.984281  0
C  C192  1  0.65257474  0.63370411  0.70804922  1  0.027924  0  -0.080588  -0.081181  0  3.980103  0
C  C193  1  0.65788558  0.65570913  0.66001458  1  -0.058815  0  -0.020633  -0.046807  0  3.975566  0
C  C194  1  0.69935652  0.71470550  0.64962292  1  0.068201  0  -0.083855  -0.085321  0  3.995239  0
C  C195  1  0.73392497  0.75131051  0.68652100  1  -0.005643  0  -0.090735  -0.133078  0  3.984531  0
C  C196  1  0.83566979  0.18688682  0.24328873  1  -0.047871  0  -0.091772  -0.133987  0  3.989711  0
C  C197  1  0.76833573  0.22402720  0.23500971  1  -0.013564  0  -0.003868  0.071259  0  3.994131  0
C  C198  1  0.73620273  0.22159937  0.18841945  1  0.045956  0  -0.090617  -0.134095  0  3.984582  0
C  C199  1  0.77017108  0.18430585  0.15156950  1  -0.073254  0  -0.080095  -0.081716  0  3.981399  0
C  C200  1  0.83631673  0.14660813  0.16062275  1  0.031858  0  -0.018486  -0.041544  0  3.973509  0
C  C201  1  0.86861186  0.14804831  0.20691546  1  -0.073327  0  -0.083936  -0.089022  0  3.990075  0
C  C202  1  0.73288354  0.26445191  0.27400016  1  -0.035147  0  -0.001682  0.077204  0  3.989069  0
C  C203  1  0.74639911  0.24912120  0.32294305  1  -0.076575  0  -0.091807  -0.135418  0  3.986346  0
C  C204  1  0.71416348  0.28778780  0.35968199  1  -0.031832  0  -0.084943  -0.087092  0  3.997049  0
C  C205  1  0.66592958  0.34239664  0.34872299  1  0.000195  0  -0.021779  -0.048248  0  3.978894  0
C  C206  1  0.65133979  0.35785194  0.30018220  1  -0.072467  0  -0.08212  -0.081838  0  3.98402  0
C  C207  1  0.68477335  0.31985041  0.26352421  1  -0.031366  0  -0.090763  -0.135632  0  3.984581  0
C  C208  1  0.26042793  0.22549522  0.82038514  1  -0.055008  0  -0.090838  -0.134553  0  3.989257  0
C  C209  1  0.23200268  0.22319130  0.77284938  1  -0.038424  0  -0.002392  0.07441  0  3.990999  0
C  C210  1  0.16703696  0.18312558  0.76392957  1  0.020495  0  -0.09035  -0.133675  0  3.982901  0
C  C211  1  0.13260483  0.14635173  0.80077391  1  -0.088201  0  -0.081139  -0.081567  0  3.97864  0
C  C212  1  0.16101056  0.14984025  0.84803271  1  -0.007225  0  -0.018559  -0.042923  0  3.972686  0
C  C213  1  0.22494108  0.19020961  0.85752694  1  -0.035436  0  -0.084106  -0.086294  0  3.996031  0
C  C214  1  0.26925957  0.26194783  0.73375444  1  -0.055764  0  -0.002257  0.073821  0  3.990882  0
C  C215  1  0.31250713  0.32045097  0.74417202  1  -0.043252  0  -0.090976  -0.135277  0  3.988185  0
C  C216  1  0.34857405  0.35667176  0.70773103  1  -0.057841  0  -0.081922  -0.0832  0  3.98892  0
C  C217  1  0.34137875  0.33632357  0.65939754  1  0.024163  0  -0.019673  -0.044875  0  3.974208  0
C  C218  1  0.29749418  0.27892347  0.64842030  1  -0.018986  0  -0.083223  -0.085232  0  3.991427  0
C  C219  1  0.26267745  0.24198477  0.68504724  1  -0.077218  0  -0.090393  -0.133184  0  3.982595  0
O  O220  1  0.85873345  0.12995503  0.93257466  1  -1.200463  0  -0.363785  -0.665939  0  2.296943  0
O  O221  1  0.92424144  0.07004207  0.87587171  1  -1.178678  0  -0.349665  -0.609377  0  2.304759  0
O  O222  1  0.14406111  0.12520781  0.07737391  1  -1.187514  0  -0.355663  -0.637095  0  2.293604  0
O  O223  1  0.08264052  0.06134887  0.13353049  1  -1.183302  0  -0.357798  -0.620102  0  2.298956  0
O  O224  1  0.14370623  0.12339617  0.93093198  1  -1.190032  0  -0.35184  -0.63139  0  2.292387  0
O  O225  1  0.07588474  0.06516320  0.87465710  1  -1.174284  0  -0.363692  -0.624208  0  2.305652  0
O  O226  1  0.85370972  0.11873454  0.07802034  1  -1.16458  0  -0.346756  -0.607853  0  2.281488  0
O  O227  1  0.92391613  0.06336673  0.13456563  1  -1.183178  0  -0.368321  -0.630339  0  2.303631  0
O  O228  1  0.93188866  0.19432562  0.00467633  1  -1.211464  0  -0.65433  -0.925836  0  1.89306  0
O  O229  1  0.77387583  0.06302975  0.00450431  1  -1.253367  0  -0.606897  -0.818894  0  2.010192  0
O  O230  1  0.07486103  0.19710673  0.00308221  1  -1.223933  0  -0.608863  -0.819904  0  2.010158  0
O  O231  1  0.22362750  0.06127945  0.00486150  1  -1.221605  0  -0.656046  -0.926489  0  1.881133  0
O  O232  1  0.00239274  0.07176962  0.96663437  1  -1.20326  0  -0.785368  -1.154695  0  2.064563  0
O  O233  1  0.00083502  0.09852684  0.05497298  1  -1.217197  0  -0.692023  -1.054047  0  2.310651  0
O  O234  1  0.85224421  0.86739251  0.07551521  1  -1.194933  0  -0.365741  -0.666747  0  2.302178  0
O  O235  1  0.91714482  0.92720993  0.13245148  1  -1.168213  0  -0.34727  -0.606282  0  2.301956  0
O  O236  1  0.13866582  0.86131567  0.93191768  1  -1.18554  0  -0.35956  -0.641967  0  2.287308  0
O  O237  1  0.07462012  0.92232674  0.87528638  1  -1.186921  0  -0.354743  -0.616229  0  2.303532  0
O  O238  1  0.15011166  0.87379509  0.07818033  1  -1.190025  0  -0.349264  -0.641334  0  2.286002  0
O  O239  1  0.07535109  0.92535663  0.13428521  1  -1.182014  0  -0.358602  -0.617873  0  2.308339  0
O  O240  1  0.86040801  0.86667577  0.93118543  1  -1.167027  0  -0.350877  -0.611946  0  2.288759  0
O  O241  1  0.92362539  0.92775325  0.87433725  1  -1.176452  0  -0.366155  -0.629687  0  2.304202  0
O  O242  1  0.92718518  0.79376653  0.00316312  1  -1.242164  0  -0.606412  -0.818695  0  2.015357  0
O  O243  1  0.77776538  0.93528083  0.00489154  1  -1.232397  0  -0.653945  -0.926998  0  1.888741  0
O  O244  1  0.07075887  0.79726944  0.00527932  1  -1.235091  0  -0.656808  -0.930887  0  1.886438  0
O  O245  1  0.22569682  0.93238674  0.00717048  1  -1.239687  0  -0.612661  -0.824418  0  1.994723  0
O  O246  1  0.99956516  0.89286355  0.05429279  1  -1.241868  0  -0.69059  -1.047714  0  2.301249  0
O  O247  1  0.99848343  0.92045725  0.96643698  1  -1.204625  0  -0.789345  -1.151888  0  2.087403  0
O  O248  1  0.91622821  0.99660361  0.04177126  1  -1.199947  0  -0.789199  -1.154818  0  2.087502  0
O  O249  1  0.11554027  0.99254973  0.95389507  1  -1.240163  0  -0.692949  -1.060249  0  2.31117  0
O  O250  1  0.88513798  0.99809689  0.95406874  1  -1.249452  0  -0.692553  -1.053297  0  2.309773  0
O  O251  1  0.08526335  0.99532739  0.04208667  1  -1.201266  0  -0.787559  -1.1532  0  2.076646  0
O  O252  1  0.36529818  0.35948201  0.57663825  1  -1.189138  0  -0.358841  -0.642671  0  2.294505  0
O  O253  1  0.42513591  0.42290427  0.63369048  1  -1.178642  0  -0.353904  -0.618029  0  2.305959  0
O  O254  1  0.64561245  0.36691843  0.43163598  1  -1.181812  0  -0.356445  -0.6386  0  2.296262  0
O  O255  1  0.58279647  0.42927668  0.37527580  1  -1.183214  0  -0.358274  -0.621099  0  2.297735  0
O  O256  1  0.64713144  0.37033962  0.57740905  1  -1.184145  0  -0.352997  -0.632126  0  2.286735  0
O  O257  1  0.57679395  0.42639214  0.63378349  1  -1.182027  0  -0.361629  -0.621659  0  2.303336  0
O  O258  1  0.35146426  0.37347154  0.43096528  1  -1.197587  0  -0.350362  -0.641782  0  2.294729  0
O  O259  1  0.42389180  0.42623639  0.37435874  1  -1.185519  0  -0.359666  -0.61981  0  2.302371  0
O  O260  1  0.43343432  0.29697336  0.50293359  1  -1.241016  0  -0.655987  -0.927561  0  1.890199  0
O  O261  1  0.27620817  0.42922234  0.50268793  1  -1.239346  0  -0.612006  -0.819562  0  1.998776  0
O  O262  1  0.57684102  0.29549960  0.50608766  1  -1.242332  0  -0.607795  -0.819758  0  2.010922  0
O  O263  1  0.72491978  0.43316570  0.50305703  1  -1.232199  0  -0.65553  -0.925656  0  1.884109  0
O  O264  1  0.50413168  0.42039738  0.54234577  1  -1.218025  0  -0.786975  -1.156233  0  2.0769  0
O  O265  1  0.50149655  0.39309918  0.45394153  1  -1.276242  0  -0.692406  -1.050226  0  2.305419  0
O  O266  1  0.35212071  0.62377527  0.43244885  1  -1.20015  0  -0.363832  -0.665466  0  2.302629  0
O  O267  1  0.41655626  0.56268177  0.37590455  1  -1.174563  0  -0.349628  -0.609977  0  2.298999  0
O  O268  1  0.63543365  0.63269977  0.57703949  1  -1.190152  0  -0.358085  -0.641531  0  2.282306  0
O  O269  1  0.57540664  0.56862583  0.63371943  1  -1.182998  0  -0.355835  -0.616564  0  2.302179  0
O  O270  1  0.64950014  0.61819172  0.42969312  1  -1.190624  0  -0.346487  -0.638318  0  2.282232  0
O  O271  1  0.57492728  0.56568677  0.37401324  1  -1.177262  0  -0.360881  -0.620591  0  2.307437  0
O  O272  1  0.36232711  0.62650484  0.57737877  1  -1.174631  0  -0.349898  -0.611377  0  2.289535  0
O  O273  1  0.42305377  0.56345021  0.63414779  1  -1.18558  0  -0.367596  -0.631292  0  2.311645  0
O  O274  1  0.42575426  0.69838931  0.50424352  1  -1.216645  0  -0.604962  -0.815121  0  2.014872  0
O  O275  1  0.27823729  0.55793063  0.50436433  1  -1.236854  0  -0.65571  -0.925861  0  1.888982  0
O  O276  1  0.56958908  0.69507544  0.50254960  1  -1.229074  0  -0.657087  -0.930528  0  1.886971  0
O  O277  1  0.72513220  0.56186478  0.50149513  1  -1.236775  0  -0.613146  -0.825078  0  1.994069  0
O  O278  1  0.49925234  0.59885210  0.45401453  1  -1.250196  0  -0.690419  -1.046704  0  2.298977  0
O  O279  1  0.49811739  0.57106980  0.54217818  1  -1.203345  0  -0.789892  -1.155091  0  2.09364  0
O  O280  1  0.41733967  0.49495176  0.46708079  1  -1.214461  0  -0.791668  -1.168185  0  2.117377  0
O  O281  1  0.61620120  0.50048176  0.55460768  1  -1.248147  0  -0.692202  -1.059419  0  2.307218  0
O  O282  1  0.38418223  0.49277295  0.55446290  1  -1.251207  0  -0.684266  -1.034159  0  2.242234  0
O  O283  1  0.58567968  0.49687969  0.46637120  1  -1.200974  0  -0.787162  -1.151525  0  2.076072  0
