# generated using pymatgen
data_DyH14C17NO7
_symmetry_space_group_name_H-M   'P 1'
_cell_length_a   6.34716499
_cell_length_b   16.36688050
_cell_length_c   24.22539947
_cell_angle_alpha   89.99991112
_cell_angle_beta   91.15475820
_cell_angle_gamma   90.00037463
_symmetry_Int_Tables_number   1
_chemical_formula_structural   DyH14C17NO7
_chemical_formula_sum   'Dy4 H56 C68 N4 O28'
_cell_volume   2516.10311841
_cell_formula_units_Z   4
loop_
 _symmetry_equiv_pos_site_id
 _symmetry_equiv_pos_as_xyz
  1  'x, y, z'
loop_
 _atom_site_type_symbol
 _atom_site_label
 _atom_site_symmetry_multiplicity
 _atom_site_fract_x
 _atom_site_fract_y
 _atom_site_fract_z
 _atom_site_occupancy
 _atom_site_pbe_bader_charge
 _atom_site_pbe_bader_spin_density
 _atom_site_pbe_cm5_charge
 _atom_site_pbe_ddec_charge
 _atom_site_pbe_ddec_spin_density
 _atom_site_pbe_ddec_sum_bond_order
 _atom_site_pbe_magmom
Dy  Dy0  1  0.26356030  0.06243004  0.02316882  1  2.16089  0  1.546692  2.074247  0  2.238468  0
Dy  Dy1  1  0.73643580  0.56243131  0.47682949  1  2.160975  0  1.546664  2.074211  0  2.23852  0
Dy  Dy2  1  0.73644759  0.93757064  0.97683038  1  2.160889  0  1.546694  2.074247  0  2.238463  0
Dy  Dy3  1  0.26355316  0.43756631  0.52316798  1  2.160762  0  1.546741  2.074256  0  2.238552  0
H  H4  1  0.64585998  0.78506883  0.81634141  1  0.085864  0  0.101114  0.121067  0  1.007957  0
H  H5  1  0.35414130  0.28507047  0.68365628  1  0.086122  0  0.10114  0.121116  0  1.007886  0
H  H6  1  0.35414475  0.21492695  0.18365736  1  0.086191  0  0.101124  0.121095  0  1.007897  0
H  H7  1  0.64586503  0.71492898  0.31634374  1  0.086536  0  0.101101  0.121085  0  1.007864  0
H  H8  1  0.01554950  0.84799336  0.76027755  1  0.045201  0  0.091694  0.092484  0  1.037006  0
H  H9  1  0.98445450  0.34800255  0.73972462  1  0.045185  0  0.091639  0.092513  0  1.036921  0
H  H10  1  0.98444587  0.15199876  0.23972696  1  0.04553  0  0.091672  0.09254  0  1.036916  0
H  H11  1  0.01555497  0.65200485  0.26027458  1  0.045186  0  0.091692  0.092512  0  1.03697  0
H  H12  1  0.96394317  0.92474089  0.84712895  1  0.104202  0  0.110875  0.109445  0  1.009022  0
H  H13  1  0.03606054  0.42474425  0.65287108  1  0.10432  0  0.110869  0.109478  0  1.008976  0
H  H14  1  0.03606323  0.07525245  0.15287519  1  0.104272  0  0.110835  0.109433  0  1.00896  0
H  H15  1  0.96393629  0.57525825  0.34712601  1  0.10419  0  0.110858  0.109458  0  1.008932  0
H  H16  1  0.05475172  0.70619977  0.73474677  1  0.077018  0  0.106796  0.128141  0  0.999178  0
H  H17  1  0.94524672  0.20621247  0.76525676  1  0.077059  0  0.106778  0.128105  0  0.999193  0
H  H18  1  0.94523887  0.29380457  0.26525442  1  0.077006  0  0.106767  0.128089  0  0.99918  0
H  H19  1  0.05476435  0.79379554  0.23474451  1  0.077108  0  0.106744  0.128028  0  0.999305  0
H  H20  1  0.73759670  0.71053387  0.63857790  1  0.07186  0  0.096713  0.093519  0  1.051538  0
H  H21  1  0.26240330  0.21053732  0.86141986  1  0.071927  0  0.096695  0.093534  0  1.051511  0
H  H22  1  0.26240491  0.28945947  0.36142292  1  0.071978  0  0.096693  0.093539  0  1.051573  0
H  H23  1  0.73760457  0.78946641  0.13857810  1  0.071845  0  0.096685  0.093554  0  1.051498  0
H  H24  1  0.68459366  0.80240828  0.71919635  1  0.055331  0  0.094238  0.096462  0  1.035211  0
H  H25  1  0.31539691  0.30241204  0.78080251  1  0.055223  0  0.094235  0.096481  0  1.035266  0
H  H26  1  0.31540482  0.19758629  0.28080528  1  0.055249  0  0.09425  0.096488  0  1.035246  0
H  H27  1  0.68460311  0.69759291  0.21919666  1  0.055294  0  0.094225  0.096508  0  1.035306  0
H  H28  1  0.11954754  0.22373199  0.93347111  1  0.100229  0  0.125289  0.042104  0  1.047378  0
H  H29  1  0.88045113  0.72373274  0.56652745  1  0.100442  0  0.125355  0.042251  0  1.047385  0
H  H30  1  0.88045871  0.77626562  0.06652354  1  0.100533  0  0.12531  0.04216  0  1.047401  0
H  H31  1  0.11952523  0.27627465  0.43347037  1  0.100438  0  0.125285  0.042117  0  1.047292  0
H  H32  1  0.97186736  0.32313568  0.88994893  1  0.07451  0  0.112354  0.125632  0  0.993462  0
H  H33  1  0.02813621  0.82313481  0.61005286  1  0.074498  0  0.112405  0.125667  0  0.993488  0
H  H34  1  0.02814371  0.67686683  0.11005152  1  0.074574  0  0.112367  0.125636  0  0.993517  0
H  H35  1  0.97184333  0.17686708  0.38994746  1  0.074621  0  0.112371  0.12563  0  0.993542  0
H  H36  1  0.84086765  0.39555733  0.93270312  1  0.028257  0  0.10466  0.114085  0  0.978756  0
H  H37  1  0.15914505  0.89555811  0.56729946  1  0.028553  0  0.10471  0.114123  0  0.978779  0
H  H38  1  0.15915601  0.60444151  0.06729697  1  0.028884  0  0.104674  0.114126  0  0.978731  0
H  H39  1  0.84084397  0.10444134  0.43270172  1  0.028874  0  0.10467  0.114086  0  0.978748  0
H  H40  1  0.69149196  0.32382024  0.89192220  1  0.078704  0  0.103656  0.120643  0  1.01584  0
H  H41  1  0.30851632  0.82381947  0.60807755  1  0.078674  0  0.103692  0.120688  0  1.015843  0
H  H42  1  0.30852064  0.67618409  0.10807578  1  0.078632  0  0.103697  0.120688  0  1.015858  0
H  H43  1  0.69146952  0.17618059  0.39192197  1  0.078542  0  0.103697  0.120703  0  1.015801  0
H  H44  1  0.70774518  0.23184160  0.03433724  1  0.110181  0  0.122034  0.147397  0  0.999424  0
H  H45  1  0.29226487  0.73184179  0.46566220  1  0.110217  0  0.122045  0.147454  0  0.999304  0
H  H46  1  0.29226898  0.76815968  0.96565992  1  0.110111  0  0.122026  0.1474  0  0.999363  0
H  H47  1  0.70771780  0.26815705  0.53433607  1  0.109692  0  0.121965  0.147377  0  0.999378  0
H  H48  1  0.52602681  0.26397224  0.98141832  1  0.088983  0  0.110885  0.121512  0  1.000212  0
H  H49  1  0.47398838  0.76397270  0.51858522  1  0.088889  0  0.110891  0.121583  0  1.000057  0
H  H50  1  0.47399215  0.73602965  0.01858340  1  0.088844  0  0.110899  0.121588  0  1.000056  0
H  H51  1  0.52600377  0.23602736  0.48141515  1  0.088754  0  0.11088  0.121585  0  0.999984  0
H  H52  1  0.67059865  0.33850942  0.02092463  1  0.078683  0  0.106646  0.113719  0  0.975496  0
H  H53  1  0.32941639  0.83851212  0.47907595  1  0.07866  0  0.106673  0.113783  0  0.975374  0
H  H54  1  0.32941870  0.66148880  0.97907460  1  0.078652  0  0.10666  0.113768  0  0.975376  0
H  H55  1  0.67057574  0.16148977  0.52092277  1  0.078594  0  0.106624  0.113673  0  0.975488  0
H  H56  1  0.12898155  0.57183352  0.62319671  1  0.656337  0  0.308167  0.357509  0  0.969978  0
H  H57  1  0.87100353  0.07184272  0.87680402  1  0.656359  0  0.308199  0.357493  0  0.969982  0
H  H58  1  0.87099331  0.42816838  0.37680607  1  0.656378  0  0.308203  0.357559  0  0.969996  0
H  H59  1  0.12899805  0.92816162  0.12319474  1  0.656272  0  0.308188  0.357514  0  0.970025  0
C  C60  1  0.23166624  0.94339524  0.93154274  1  1.466362  0  0.221317  0.661505  0  4.145821  0
C  C61  1  0.76834092  0.44339756  0.56845605  1  1.46622  0  0.221272  0.661489  0  4.145974  0
C  C62  1  0.76834482  0.05660238  0.06845771  1  1.466249  0  0.221176  0.66137  0  4.14622  0
C  C63  1  0.23164806  0.55660189  0.43154265  1  1.466371  0  0.221144  0.661284  0  4.146136  0
C  C64  1  0.27313807  0.89886884  0.88107301  1  -0.025481  0  -0.037557  -0.208607  0  3.940472  0
C  C65  1  0.72686675  0.39886911  0.61892540  1  -0.025176  0  -0.037625  -0.208773  0  3.94048  0
C  C66  1  0.72686671  0.10112694  0.11892865  1  -0.025215  0  -0.037632  -0.20879  0  3.940461  0
C  C67  1  0.27313324  0.60112911  0.38107211  1  -0.025221  0  -0.037654  -0.20875  0  3.940345  0
C  C68  1  0.47312307  0.85985434  0.87231045  1  0.760007  0  0.100978  0.389527  0  4.098705  0
C  C69  1  0.52688577  0.35985042  0.62768636  1  0.760447  0  0.101056  0.389682  0  4.098757  0
C  C70  1  0.52688798  0.14014267  0.12768917  1  0.759632  0  0.100991  0.38961  0  4.0986  0
C  C71  1  0.47310947  0.64014780  0.37231031  1  0.759953  0  0.10097  0.389601  0  4.098711  0
C  C72  1  0.49624175  0.81632994  0.82218197  1  -0.06322  0  -0.110027  -0.267443  0  3.899582  0
C  C73  1  0.50376011  0.31633258  0.67781817  1  -0.064253  0  -0.110078  -0.267606  0  3.899425  0
C  C74  1  0.50376775  0.18366890  0.17781889  1  -0.064219  0  -0.110019  -0.267508  0  3.899311  0
C  C75  1  0.49623836  0.68367115  0.32218305  1  -0.064067  0  -0.110012  -0.267508  0  3.89955  0
C  C76  1  0.33482983  0.81072151  0.78259596  1  -0.061368  0  -0.004982  0.101132  0  4.032857  0
C  C77  1  0.66517037  0.31072629  0.71740582  1  -0.060499  0  -0.004981  0.101334  0  4.032658  0
C  C78  1  0.66517182  0.18927305  0.21740692  1  -0.060582  0  -0.005011  0.101273  0  4.032751  0
C  C79  1  0.33483282  0.68927377  0.28259501  1  -0.061187  0  -0.005029  0.101168  0  4.033023  0
C  C80  1  0.14064176  0.85048876  0.79174896  1  -0.01584  0  -0.115007  -0.187666  0  4.031233  0
C  C81  1  0.85936226  0.35049404  0.70825156  1  -0.01573  0  -0.114999  -0.187848  0  4.03105  0
C  C82  1  0.85936461  0.14950886  0.20825353  1  -0.016214  0  -0.114994  -0.187815  0  4.031162  0
C  C83  1  0.14063934  0.64951274  0.29174844  1  -0.015773  0  -0.115019  -0.187774  0  4.03117  0
C  C84  1  0.11271686  0.89373576  0.83997125  1  -0.078808  0  -0.076574  -0.039526  0  3.996054  0
C  C85  1  0.88728005  0.39374428  0.66003126  1  -0.079135  0  -0.076546  -0.039454  0  3.995929  0
C  C86  1  0.88728642  0.10625452  0.16003494  1  -0.079023  0  -0.076485  -0.039373  0  3.995728  0
C  C87  1  0.11271368  0.60626128  0.33996912  1  -0.078819  0  -0.076489  -0.039395  0  3.995687  0
C  C88  1  0.36516600  0.76113305  0.73241847  1  -0.020084  0  -0.002417  0.102857  0  4.020083  0
C  C89  1  0.63483180  0.26114313  0.76758418  1  -0.019887  0  -0.002332  0.10273  0  4.02007  0
C  C90  1  0.63483878  0.23886335  0.26758278  1  -0.019838  0  -0.002343  0.102816  0  4.020017  0
C  C91  1  0.36516666  0.73885937  0.23241663  1  -0.020397  0  -0.002295  0.102878  0  4.020054  0
C  C92  1  0.20374979  0.70979688  0.71324057  1  -0.042981  0  -0.107825  -0.266388  0  3.932132  0
C  C93  1  0.79625186  0.20980549  0.78676256  1  -0.042762  0  -0.107845  -0.266302  0  3.931926  0
C  C94  1  0.79624081  0.29020624  0.28676145  1  -0.042923  0  -0.107868  -0.266413  0  3.932037  0
C  C95  1  0.20375763  0.79020190  0.21323788  1  -0.042773  0  -0.107826  -0.266275  0  3.932086  0
C  C96  1  0.23325973  0.65767524  0.66809363  1  0.554711  0  0.08963  0.316198  0  4.066501  0
C  C97  1  0.76674889  0.15768123  0.83190835  1  0.554754  0  0.089716  0.316368  0  4.066451  0
C  C98  1  0.76672773  0.34232909  0.33190878  1  0.555189  0  0.089712  0.316377  0  4.066345  0
C  C99  1  0.23325585  0.84232310  0.16809084  1  0.554831  0  0.089639  0.316183  0  4.066557  0
C  C100  1  0.42728322  0.65934108  0.63970911  1  -0.016343  0  -0.042439  -0.200815  0  3.972254  0
C  C101  1  0.57270965  0.15934407  0.86029115  1  -0.016268  0  -0.042391  -0.200776  0  3.972216  0
C  C102  1  0.57269480  0.34065410  0.36029450  1  -0.015993  0  -0.042418  -0.200748  0  3.972112  0
C  C103  1  0.42729666  0.84065476  0.13970722  1  -0.016219  0  -0.042362  -0.200639  0  3.972006  0
C  C104  1  0.58677347  0.71212468  0.65915675  1  -0.077804  0  -0.089944  -0.068196  0  4.04475  0
C  C105  1  0.41322499  0.21212488  0.84084141  1  -0.077788  0  -0.089937  -0.068216  0  4.04475  0
C  C106  1  0.41321393  0.28787111  0.34084236  1  -0.078381  0  -0.089972  -0.068302  0  4.044837  0
C  C107  1  0.58678446  0.78787396  0.15915697  1  -0.077864  0  -0.090001  -0.068331  0  4.044708  0
C  C108  1  0.55860025  0.76206447  0.70463499  1  -0.043725  0  -0.112004  -0.18509  0  4.028714  0
C  C109  1  0.44139119  0.26206851  0.79536310  1  -0.044343  0  -0.112055  -0.185108  0  4.028753  0
C  C110  1  0.44139975  0.23793071  0.29536335  1  -0.044298  0  -0.112051  -0.185132  0  4.028603  0
C  C111  1  0.55861044  0.73793644  0.20463855  1  -0.04382  0  -0.112015  -0.185159  0  4.028757  0
C  C112  1  0.46022392  0.60640134  0.59101621  1  1.521229  0  0.230171  0.658022  0  4.112687  0
C  C113  1  0.53977752  0.10640964  0.90898579  1  1.521427  0  0.230159  0.658011  0  4.112577  0
C  C114  1  0.53976198  0.39359017  0.40898744  1  1.521526  0  0.230346  0.658183  0  4.112562  0
C  C115  1  0.46023352  0.89359287  0.09101342  1  1.521459  0  0.230267  0.658113  0  4.112573  0
C  C116  1  0.00312938  0.22060721  0.96653173  1  1.373983  0  0.191436  0.328528  0  4.088527  0
C  C117  1  0.99688039  0.72061565  0.53347472  1  1.373549  0  0.191449  0.328459  0  4.087652  0
C  C118  1  0.99688638  0.77939163  0.03346709  1  1.373866  0  0.191388  0.328523  0  4.088423  0
C  C119  1  0.00311349  0.27939846  0.46653473  1  1.373994  0  0.191451  0.328637  0  4.088627  0
C  C120  1  0.83677499  0.33263515  0.91671584  1  0.289427  0  -0.126401  -0.277545  0  3.924061  0
C  C121  1  0.16322401  0.83263590  0.58328550  1  0.28905  0  -0.126432  -0.277515  0  3.923715  0
C  C122  1  0.16322977  0.66736491  0.08328458  1  0.28872  0  -0.126422  -0.277539  0  3.923822  0
C  C123  1  0.83676814  0.16736477  0.41671446  1  0.288985  0  -0.126466  -0.277582  0  3.924017  0
C  C124  1  0.67756923  0.27743734  0.00216806  1  0.215956  0  -0.122739  -0.259839  0  3.863732  0
C  C125  1  0.32244634  0.77743936  0.49783217  1  0.216315  0  -0.122781  -0.260022  0  3.863302  0
C  C126  1  0.32245127  0.72256333  0.99783078  1  0.216298  0  -0.122807  -0.260015  0  3.863343  0
C  C127  1  0.67754419  0.22256192  0.50216530  1  0.216651  0  -0.122745  -0.259971  0  3.863556  0
N  N128  1  0.84608362  0.27474014  0.96228270  1  -1.215302  0  -0.275002  0.032467  0  3.713461  0
N  N129  1  0.15391429  0.77473853  0.53771250  1  -1.215425  0  -0.274933  0.032556  0  3.713392  0
N  N130  1  0.15392578  0.72526114  0.03771237  1  -1.215424  0  -0.274992  0.0324  0  3.71336  0
N  N131  1  0.84605885  0.22526153  0.46228118  1  -1.215519  0  -0.275012  0.032374  0  3.71334  0
O  O132  1  0.05465563  0.97951674  0.94014400  1  -1.220979  0  -0.42202  -0.744865  0  2.361791  0
O  O133  1  0.94535212  0.47951952  0.55985310  1  -1.221011  0  -0.422019  -0.744886  0  2.361977  0
O  O134  1  0.94535701  0.02048333  0.05985646  1  -1.22104  0  -0.421919  -0.744785  0  2.361972  0
O  O135  1  0.05463207  0.52048237  0.44014187  1  -1.221114  0  -0.421937  -0.744716  0  2.361898  0
O  O136  1  0.37448558  0.94968307  0.96998622  1  -1.214688  0  -0.475803  -0.761388  0  2.555024  0
O  O137  1  0.62551697  0.44968635  0.53001337  1  -1.214587  0  -0.475732  -0.761316  0  2.555061  0
O  O138  1  0.62553178  0.05031516  0.03001426  1  -1.214384  0  -0.475725  -0.761334  0  2.555269  0
O  O139  1  0.37446099  0.55030699  0.46998612  1  -1.214439  0  -0.475673  -0.761217  0  2.55523  0
O  O140  1  0.61344590  0.62065657  0.55914141  1  -1.190639  0  -0.386393  -0.6587  0  2.28093  0
O  O141  1  0.38654633  0.12065953  0.94086013  1  -1.190787  0  -0.386434  -0.658728  0  2.28092  0
O  O142  1  0.38654004  0.37933616  0.44086430  1  -1.191077  0  -0.386538  -0.658767  0  2.280969  0
O  O143  1  0.61345840  0.87933931  0.05913823  1  -1.190948  0  -0.386501  -0.658767  0  2.280974  0
O  O144  1  0.32568893  0.54831925  0.58353520  1  -1.175681  0  -0.377293  -0.648397  0  2.345216  0
O  O145  1  0.67431148  0.04832420  0.91646397  1  -1.175809  0  -0.377316  -0.648375  0  2.344927  0
O  O146  1  0.67429537  0.45167715  0.41646679  1  -1.175639  0  -0.377363  -0.648472  0  2.344967  0
O  O147  1  0.32570273  0.95167830  0.08353567  1  -1.175702  0  -0.377305  -0.648397  0  2.345076  0
O  O148  1  0.63160661  0.86145345  0.90788174  1  -1.194025  0  -0.482425  -0.689773  0  2.312186  0
O  O149  1  0.36840858  0.36145106  0.59211551  1  -1.194639  0  -0.482445  -0.689803  0  2.31227  0
O  O150  1  0.36841231  0.13854539  0.09211709  1  -1.193754  0  -0.482427  -0.689755  0  2.312217  0
O  O151  1  0.63158671  0.63854900  0.40788404  1  -1.194199  0  -0.482412  -0.689777  0  2.312187  0
O  O152  1  0.07247307  0.60803579  0.65313753  1  -1.172868  0  -0.347985  -0.442764  0  2.28948  0
O  O153  1  0.92752209  0.10804642  0.84686403  1  -1.172804  0  -0.34801  -0.442823  0  2.289741  0
O  O154  1  0.92749389  0.39196549  0.34686397  1  -1.172859  0  -0.347994  -0.442858  0  2.289736  0
O  O155  1  0.07247792  0.89195791  0.15313514  1  -1.172807  0  -0.347997  -0.442806  0  2.289814  0
O  O156  1  0.02217559  0.16905790  0.00451718  1  -1.168153  0  -0.360518  -0.541261  0  2.379167  0
O  O157  1  0.97784591  0.66904995  0.49547701  1  -1.16796  0  -0.360711  -0.541544  0  2.377861  0
O  O158  1  0.97784640  0.83094217  0.99547630  1  -1.16823  0  -0.360486  -0.541288  0  2.378814  0
O  O159  1  0.02214454  0.33093911  0.50451552  1  -1.168131  0  -0.360494  -0.541232  0  2.379564  0
