# generated using pymatgen
data_CoH6(C3N2)2
_symmetry_space_group_name_H-M   'P 1'
_cell_length_a   9.82516963
_cell_length_b   14.80109855
_cell_length_c   15.06757797
_cell_angle_alpha   89.99989632
_cell_angle_beta   89.99989169
_cell_angle_gamma   98.91871690
_symmetry_Int_Tables_number   1
_chemical_formula_structural   CoH6(C3N2)2
_chemical_formula_sum   'Co8 H48 C48 N32'
_cell_volume   2164.68405134
_cell_formula_units_Z   8
loop_
 _symmetry_equiv_pos_site_id
 _symmetry_equiv_pos_as_xyz
  1  'x, y, z'
loop_
 _atom_site_type_symbol
 _atom_site_label
 _atom_site_symmetry_multiplicity
 _atom_site_fract_x
 _atom_site_fract_y
 _atom_site_fract_z
 _atom_site_occupancy
 _atom_site_pbe_bader_charge
 _atom_site_pbe_bader_spin_density
 _atom_site_pbe_cm5_charge
 _atom_site_pbe_ddec_charge
 _atom_site_pbe_ddec_spin_density
 _atom_site_pbe_ddec_sum_bond_order
 _atom_site_pbe_magmom
Co  Co0  1  0.54925557  0.76484778  0.92313142  1  1.127906  2.534166  0.713249  0.652167  2.759826  2.771861  2.457
Co  Co1  1  0.04925818  0.26484897  0.57686750  1  1.127877  2.53417  0.713242  0.652112  2.759834  2.771953  2.457
Co  Co2  1  0.45074222  0.23515155  0.07686654  1  1.127839  2.534189  0.713266  0.652186  2.759831  2.771879  2.457
Co  Co3  1  0.95074384  0.73515104  0.42313180  1  1.128025  2.534165  0.713257  0.652119  2.759837  2.771904  2.457
Co  Co4  1  0.08635606  0.91886356  0.77493921  1  1.128333  2.535516  0.713441  0.653656  2.761554  2.773514  2.459
Co  Co5  1  0.58635739  0.41886445  0.72506006  1  1.128287  2.535502  0.713482  0.653725  2.761534  2.773464  2.459
Co  Co6  1  0.91364221  0.08113782  0.22506075  1  1.128343  2.53551  0.713453  0.653597  2.761553  2.773564  2.459
Co  Co7  1  0.41364581  0.58113625  0.27493990  1  1.128385  2.535511  0.713464  0.65367  2.761548  2.773499  2.459
H  H8  1  0.78925712  0.80059347  0.78355407  1  0.083819  0.001569  0.127478  0.087092  0.000377  0.999812  0.001
H  H9  1  0.28926011  0.30059367  0.71644516  1  0.083889  0.001569  0.127449  0.087108  0.000377  0.999847  0.001
H  H10  1  0.21074046  0.19940928  0.21644324  1  0.084021  0.001569  0.127458  0.087087  0.000377  0.999867  0.001
H  H11  1  0.71074036  0.69940840  0.28355546  1  0.08393  0.001569  0.127455  0.087087  0.000377  0.999852  0.001
H  H12  1  0.79228462  0.85160561  0.05908058  1  0.122828  0.002118  0.112995  0.109121  0.000724  1.012256  0.001
H  H13  1  0.29229343  0.35160736  0.44091709  1  0.122704  0.002118  0.112989  0.109062  0.000724  1.012218  0.001
H  H14  1  0.20771152  0.14839098  0.94091739  1  0.122661  0.002118  0.112994  0.10911  0.000724  1.012217  0.001
H  H15  1  0.70771485  0.64839333  0.55908221  1  0.122658  0.002118  0.113  0.10913  0.000724  1.012277  0.001
H  H16  1  0.04812503  0.92192656  0.98791573  1  0.093951  0.002152  0.109197  0.096938  0.000731  1.039682  0.001
H  H17  1  0.54813544  0.42192450  0.51208491  1  0.093873  0.002153  0.109213  0.09696  0.000731  1.039594  0.001
H  H18  1  0.95186970  0.07807277  0.01208423  1  0.093931  0.002152  0.109208  0.096945  0.000731  1.039592  0.001
H  H19  1  0.45187322  0.57807346  0.48791771  1  0.093916  0.002152  0.109197  0.09694  0.000731  1.039675  0.001
H  H20  1  0.23820487  0.79125733  0.88989798  1  0.088969  0.002161  0.127992  0.083114  0.00083  0.997409  0.001
H  H21  1  0.73820659  0.29125847  0.61010132  1  0.088987  0.00216  0.127996  0.083146  0.00083  0.997415  0.001
H  H22  1  0.76179341  0.20874406  0.11010264  1  0.088979  0.00216  0.127981  0.083104  0.00083  0.99745  0.001
H  H23  1  0.26179238  0.70874155  0.38989665  1  0.089037  0.00216  0.128004  0.083184  0.00083  0.997424  0.001
H  H24  1  0.60898560  0.97001394  0.84430500  1  0.103617  0.002104  0.111303  0.102605  0.000638  1.024697  0.001
H  H25  1  0.10898715  0.47001153  0.65570012  1  0.103662  0.002104  0.111344  0.102629  0.000638  1.024831  0.001
H  H26  1  0.39101385  0.02998813  0.15569828  1  0.103697  0.002105  0.111302  0.102536  0.000638  1.024699  0.001
H  H27  1  0.89101525  0.52998574  0.34429917  1  0.103652  0.002104  0.11135  0.102665  0.000638  1.024802  0.001
H  H28  1  0.38986548  0.04770870  0.77723014  1  0.091706  0.002069  0.110019  0.097987  0.000663  1.030097  0.001
H  H29  1  0.88986628  0.54770658  0.72277273  1  0.091739  0.002069  0.110018  0.097999  0.000663  1.03009  0.001
H  H30  1  0.61013654  0.95229131  0.22276982  1  0.09171  0.002069  0.109995  0.097952  0.000663  1.030069  0.001
H  H31  1  0.11013697  0.45229001  0.27722989  1  0.091672  0.002069  0.109999  0.097999  0.000663  1.03016  0.001
H  H32  1  0.49212358  0.59177238  0.06415746  1  0.096566  0.001035  0.122023  0.074427  5.4e-05  1.01977  0.001
H  H33  1  0.99212280  0.09177554  0.43584241  1  0.096641  0.001035  0.121985  0.074399  5.4e-05  1.019792  0.001
H  H34  1  0.50787780  0.40822490  0.93584051  1  0.096675  0.001034  0.122008  0.074415  5.4e-05  1.019812  0.001
H  H35  1  0.00787938  0.90822516  0.56415755  1  0.096623  0.001035  0.122007  0.074408  5.4e-05  1.019735  0.001
H  H36  1  0.45595147  0.87136400  0.08148716  1  0.088256  0.002453  0.110179  0.100235  0.000945  1.040565  0.001
H  H37  1  0.95594197  0.37136447  0.41851226  1  0.088199  0.002453  0.110155  0.100181  0.000945  1.04063  0.001
H  H38  1  0.54405039  0.12863532  0.91850882  1  0.088253  0.002453  0.110173  0.100206  0.000945  1.040621  0.001
H  H39  1  0.04405293  0.62863554  0.58148969  1  0.088216  0.002453  0.11017  0.100215  0.000945  1.040612  0.001
H  H40  1  0.40007864  0.78996727  0.24623173  1  0.087513  0.002239  0.111579  0.098982  0.000806  1.02123  0.001
H  H41  1  0.90006632  0.28996673  0.25376857  1  0.087433  0.002238  0.1116  0.099005  0.000806  1.021249  0.001
H  H42  1  0.59992745  0.21003274  0.75376491  1  0.08739  0.002238  0.11163  0.099024  0.000806  1.021235  0.001
H  H43  1  0.09992874  0.71003397  0.74623272  1  0.087434  0.002238  0.111614  0.099037  0.000806  1.021234  0.001
H  H44  1  0.65752688  0.57542453  0.87845546  1  0.069564  0.001905  0.126888  0.081244  0.000669  0.997411  0.001
H  H45  1  0.15752559  0.07542699  0.62154499  1  0.069599  0.001905  0.126897  0.081269  0.000669  0.997438  0.001
H  H46  1  0.34247295  0.42457480  0.12154516  1  0.06956  0.001905  0.126891  0.081252  0.000669  0.997423  0.001
H  H47  1  0.84247402  0.92457576  0.37845829  1  0.069525  0.001905  0.126913  0.081301  0.000669  0.997295  0.001
H  H48  1  0.36634417  0.71162972  0.74995777  1  0.089818  0.00178  0.108556  0.097741  0.000432  1.047214  0.001
H  H49  1  0.86634087  0.21162850  0.75004550  1  0.089823  0.00178  0.108593  0.097779  0.000431  1.047224  0.001
H  H50  1  0.63365362  0.28836961  0.25004286  1  0.089839  0.00178  0.108565  0.097756  0.000431  1.047287  0.001
H  H51  1  0.13365553  0.78837357  0.24995512  1  0.089914  0.00178  0.108551  0.097695  0.000432  1.047313  0.001
H  H52  1  0.39041004  0.55234128  0.65794708  1  0.078659  0.00205  0.112222  0.106573  0.000607  1.019955  0.001
H  H53  1  0.89041082  0.05234123  0.84205511  1  0.078482  0.00205  0.112229  0.106571  0.000607  1.020031  0.001
H  H54  1  0.60958609  0.44765531  0.34205486  1  0.078498  0.00205  0.112223  0.106573  0.000607  1.020184  0.001
H  H55  1  0.10958253  0.94766084  0.15794419  1  0.078504  0.002051  0.112227  0.10657  0.000607  1.019972  0.001
C  C56  1  0.82498230  0.82412640  0.84902042  1  0.964514  0.015105  0.113178  0.124777  0.009973  4.01218  0.012
C  C57  1  0.32498723  0.32412538  0.65097806  1  0.964473  0.015106  0.113097  0.124523  0.009975  4.012536  0.012
C  C58  1  0.17501511  0.17587566  0.15097689  1  0.96435  0.015104  0.113117  0.124627  0.009973  4.012542  0.012
C  C59  1  0.67501581  0.67587464  0.34902256  1  0.964428  0.015105  0.113098  0.124519  0.009974  4.012465  0.012
C  C60  1  0.82928650  0.85164158  0.99127749  1  0.346592  0.01455  -0.020192  -0.056033  0.008593  4.020934  0.011
C  C61  1  0.32929716  0.35164155  0.50872292  1  0.346833  0.014552  -0.020114  -0.055796  0.008593  4.020664  0.011
C  C62  1  0.17070604  0.14835706  0.00872180  1  0.346736  0.014552  -0.020179  -0.055964  0.008593  4.020775  0.011
C  C63  1  0.67070995  0.64835846  0.49127903  1  0.346697  0.014551  -0.020213  -0.05607  0.008594  4.021052  0.011
C  C64  1  0.95614948  0.88636123  0.95617420  1  0.299378  0.009841  -0.022949  -0.065523  0.005985  4.042621  0.007
C  C65  1  0.45615633  0.38635839  0.54382666  1  0.299319  0.009839  -0.022984  -0.065643  0.005984  4.042502  0.007
C  C66  1  0.04384761  0.11363947  0.04382510  1  0.299284  0.009839  -0.022949  -0.065527  0.005984  4.042451  0.007
C  C67  1  0.54385030  0.61363957  0.45617595  1  0.299343  0.00984  -0.022932  -0.065521  0.005984  4.042673  0.007
C  C68  1  0.30972306  0.85035696  0.86775100  1  0.9492  0.011143  0.114419  0.128216  0.00782  4.005984  0.009
C  C69  1  0.80972509  0.35035532  0.63225011  1  0.949399  0.011139  0.114363  0.128144  0.007819  4.006036  0.009
C  C70  1  0.69027639  0.14964510  0.13224963  1  0.949333  0.011142  0.114365  0.128136  0.00782  4.006081  0.009
C  C71  1  0.19027731  0.64964196  0.36774985  1  0.949103  0.011143  0.114346  0.128076  0.00782  4.006109  0.009
C  C72  1  0.49944664  0.94424485  0.84339187  1  0.379182  0.012716  -0.020236  -0.059072  0.007478  4.024838  0.01
C  C73  1  0.99944890  0.44424452  0.65661016  1  0.379133  0.012717  -0.020317  -0.059183  0.007479  4.024977  0.01
C  C74  1  0.50055741  0.05575516  0.15661008  1  0.378774  0.012717  -0.020219  -0.058996  0.007478  4.024891  0.01
C  C75  1  0.00054974  0.55575413  0.34338781  1  0.379088  0.012717  -0.02032  -0.059234  0.007479  4.024894  0.01
C  C76  1  0.39092024  0.98239778  0.80959483  1  0.288517  0.010086  -0.021137  -0.058452  0.006094  4.040499  0.008
C  C77  1  0.89091918  0.48239669  0.69040793  1  0.288483  0.010086  -0.021119  -0.058354  0.006094  4.040397  0.008
C  C78  1  0.60908006  0.01760361  0.19040645  1  0.288875  0.010085  -0.021111  -0.058368  0.006094  4.040489  0.008
C  C79  1  0.10908322  0.51760059  0.30959004  1  0.288508  0.010087  -0.021052  -0.058335  0.006095  4.040297  0.008
C  C80  1  0.47411062  0.65688017  0.09123144  1  0.94552  0.015817  0.113008  0.130838  0.010376  4.019093  0.014
C  C81  1  0.97410672  0.15688270  0.40876834  1  0.945559  0.015816  0.1129  0.130594  0.010378  4.019252  0.014
C  C82  1  0.52588937  0.34311984  0.90876719  1  0.945453  0.015817  0.112975  0.130764  0.010377  4.019029  0.014
C  C83  1  0.02589139  0.84311799  0.59123162  1  0.945532  0.015816  0.112953  0.130705  0.010377  4.019062  0.014
C  C84  1  0.45423883  0.80107940  0.10228486  1  0.410024  0.01306  -0.020633  -0.054884  0.007674  4.026474  0.01
C  C85  1  0.95422972  0.30108128  0.39771402  1  0.411276  0.013055  -0.020637  -0.054771  0.007674  4.026488  0.01
C  C86  1  0.54576373  0.19891856  0.89771112  1  0.410083  0.013061  -0.020721  -0.054915  0.007675  4.026558  0.01
C  C87  1  0.04576620  0.69891874  0.60228593  1  0.41011  0.013059  -0.020645  -0.054868  0.007674  4.026566  0.01
C  C88  1  0.42692322  0.76063041  0.18390055  1  0.268778  0.010277  -0.022965  -0.060888  0.005932  4.034631  0.008
C  C89  1  0.92691455  0.26063315  0.31609777  1  0.267874  0.010281  -0.023085  -0.061145  0.005933  4.03464  0.008
C  C90  1  0.57308051  0.23936823  0.81609543  1  0.268716  0.010277  -0.023027  -0.060976  0.005933  4.034511  0.008
C  C91  1  0.07308067  0.73936823  0.68390285  1  0.268746  0.010277  -0.023042  -0.061061  0.005933  4.034642  0.008
C  C92  1  0.58038983  0.59035803  0.83126676  1  0.984957  0.012283  0.110378  0.124013  0.008521  4.02163  0.01
C  C93  1  0.08038924  0.09035971  0.66873309  1  0.984797  0.012282  0.110336  0.12395  0.008521  4.021768  0.01
C  C94  1  0.41960882  0.40964061  0.16873253  1  0.984784  0.01228  0.110338  0.123926  0.00852  4.021694  0.01
C  C95  1  0.91961054  0.90964372  0.33126952  1  0.984922  0.012281  0.110296  0.12385  0.008521  4.021605  0.01
C  C96  1  0.42945860  0.65930040  0.76366336  1  0.333261  0.009962  -0.022911  -0.058874  0.005884  4.033401  0.008
C  C97  1  0.92945700  0.15930195  0.73633727  1  0.334044  0.009961  -0.022996  -0.058992  0.005885  4.033466  0.008
C  C98  1  0.57054075  0.34069687  0.23633527  1  0.334122  0.009962  -0.022995  -0.058997  0.005885  4.033365  0.008
C  C99  1  0.07053753  0.84070080  0.26366269  1  0.33327  0.009961  -0.022897  -0.058875  0.005885  4.033486  0.008
C  C100  1  0.44176030  0.58062661  0.71772439  1  0.378263  0.010299  -0.021733  -0.055894  0.006026  4.026607  0.008
C  C101  1  0.94175940  0.08062738  0.78227703  1  0.377572  0.0103  -0.021733  -0.055874  0.006026  4.02662  0.008
C  C102  1  0.55824000  0.41937477  0.28227889  1  0.377565  0.0103  -0.021695  -0.055865  0.006026  4.026638  0.008
C  C103  1  0.05823581  0.91937401  0.21772359  1  0.37831  0.010299  -0.021777  -0.055925  0.006025  4.026549  0.008
N  N104  1  0.74655525  0.81230372  0.92286512  1  -1.244775  0.095806  -0.388357  -0.311674  0.047939  3.693017  0.058
N  N105  1  0.24655957  0.31230354  0.57713413  1  -1.244644  0.095803  -0.388376  -0.311737  0.047936  3.693016  0.058
N  N106  1  0.25344169  0.18769629  0.07713417  1  -1.244706  0.095805  -0.388338  -0.311673  0.047938  3.693143  0.058
N  N107  1  0.75344363  0.68769715  0.42286583  1  -1.244755  0.095807  -0.388274  -0.311472  0.047937  3.693016  0.058
N  N108  1  0.95252433  0.86900391  0.86591817  1  -1.225208  0.097053  -0.388682  -0.311072  0.048433  3.687144  0.063
N  N109  1  0.45253119  0.36900223  0.63408140  1  -1.225278  0.097055  -0.388601  -0.310845  0.048431  3.68717  0.063
N  N110  1  0.04747191  0.13099748  0.13408046  1  -1.225226  0.097055  -0.38864  -0.310977  0.048432  3.687152  0.063
N  N111  1  0.54747458  0.63099641  0.36592055  1  -1.225142  0.097055  -0.388641  -0.310925  0.04843  3.687186  0.063
N  N112  1  0.44712425  0.86031403  0.87991145  1  -1.221117  0.096005  -0.384067  -0.300164  0.047949  3.670474  0.061
N  N113  1  0.94712427  0.36031242  0.62009212  1  -1.221229  0.096006  -0.384008  -0.3001  0.047949  3.670573  0.061
N  N114  1  0.55287520  0.13968803  0.12009116  1  -1.221193  0.096005  -0.384032  -0.300114  0.047949  3.670498  0.061
N  N115  1  0.05287405  0.63968486  0.37990651  1  -1.221055  0.096002  -0.384014  -0.300099  0.047949  3.670585  0.061
N  N116  1  0.27089646  0.92237550  0.82507323  1  -1.241705  0.095993  -0.387723  -0.31038  0.048137  3.693539  0.058
N  N117  1  0.77089560  0.42237513  0.67492779  1  -1.241815  0.095997  -0.387708  -0.310432  0.04814  3.693521  0.058
N  N118  1  0.72910471  0.07762520  0.17492673  1  -1.241801  0.095999  -0.387728  -0.310398  0.04814  3.69353  0.058
N  N119  1  0.22910594  0.57762283  0.32507216  1  -1.241693  0.095991  -0.387755  -0.310412  0.048137  3.693606  0.058
N  N120  1  0.48437032  0.73495425  0.04377052  1  -1.250291  0.09145  -0.388695  -0.312219  0.045457  3.695023  0.054
N  N121  1  0.98436626  0.23495668  0.45622977  1  -1.250681  0.09145  -0.388572  -0.311993  0.045455  3.69481  0.054
N  N122  1  0.51563004  0.26504303  0.95622679  1  -1.250084  0.091432  -0.388634  -0.31213  0.045458  3.694978  0.054
N  N123  1  0.01563169  0.76504333  0.54377085  1  -1.250384  0.091455  -0.388632  -0.31205  0.045455  3.694866  0.054
N  N124  1  0.43932209  0.66905017  0.17648603  1  -1.215182  0.095343  -0.385841  -0.310921  0.047802  3.691422  0.059
N  N125  1  0.93931495  0.16905085  0.32351443  1  -1.215139  0.095346  -0.385661  -0.310588  0.047798  3.691258  0.059
N  N126  1  0.56068298  0.33094984  0.82351128  1  -1.215178  0.095347  -0.385747  -0.310806  0.047804  3.691163  0.059
N  N127  1  0.06068214  0.83094985  0.67648619  1  -1.21516  0.095343  -0.38576  -0.310759  0.0478  3.691344  0.059
N  N128  1  0.51749777  0.66505621  0.83589920  1  -1.245507  0.095517  -0.385848  -0.313455  0.047964  3.692431  0.059
N  N129  1  0.01749735  0.16505858  0.66410127  1  -1.245377  0.095516  -0.385822  -0.313403  0.047963  3.692545  0.059
N  N130  1  0.48250002  0.33494312  0.16410076  1  -1.2454  0.095513  -0.385851  -0.313427  0.047961  3.692484  0.059
N  N131  1  0.98250242  0.83494485  0.33590134  1  -1.245535  0.095517  -0.385808  -0.313382  0.047963  3.692443  0.059
N  N132  1  0.53768765  0.53703604  0.76084211  1  -1.255913  0.094379  -0.386179  -0.310304  0.04711  3.687892  0.057
N  N133  1  0.03768784  0.03703756  0.73915855  1  -1.255824  0.09438  -0.386104  -0.310193  0.047109  3.687842  0.057
N  N134  1  0.46231201  0.46296260  0.23915785  1  -1.255868  0.094382  -0.386099  -0.310135  0.04711  3.687825  0.057
N  N135  1  0.96230840  0.96296382  0.26084273  1  -1.255801  0.094377  -0.386119  -0.310131  0.047109  3.687829  0.057
