# generated using pymatgen
data_ZnH21C26N3O5
_symmetry_space_group_name_H-M   'P 1'
_cell_length_a   8.54900328
_cell_length_b   10.99182786
_cell_length_c   13.77957586
_cell_angle_alpha   94.69279926
_cell_angle_beta   108.69810721
_cell_angle_gamma   97.96556653
_symmetry_Int_Tables_number   1
_chemical_formula_structural   ZnH21C26N3O5
_chemical_formula_sum   'Zn2 H42 C52 N6 O10'
_cell_volume   1203.63119174
_cell_formula_units_Z   2
loop_
 _symmetry_equiv_pos_site_id
 _symmetry_equiv_pos_as_xyz
  1  'x, y, z'
loop_
 _atom_site_type_symbol
 _atom_site_label
 _atom_site_symmetry_multiplicity
 _atom_site_fract_x
 _atom_site_fract_y
 _atom_site_fract_z
 _atom_site_occupancy
 _atom_site_pbe_bader_charge
 _atom_site_pbe_bader_spin_density
 _atom_site_pbe_cm5_charge
 _atom_site_pbe_ddec_charge
 _atom_site_pbe_ddec_spin_density
 _atom_site_pbe_ddec_sum_bond_order
 _atom_site_pbe_magmom
Zn  Zn0  1  0.33388882  0.87835625  0.82826016  1  1.255941  0  0.709436  0.782005  0  2.366432  0
Zn  Zn1  1  0.66611331  0.12164075  0.17171137  1  1.255814  0  0.709376  0.781821  0  2.366423  0
H  H2  1  0.18439021  0.92566433  0.15527762  1  0.101653  0  0.101226  0.1018  0  1.041729  0
H  H3  1  0.81561127  0.07435173  0.84469502  1  0.101434  0  0.101189  0.101765  0  1.04189  0
H  H4  1  0.27326420  0.76769730  0.05172489  1  0.136616  0  0.103591  0.116312  0  1.014972  0
H  H5  1  0.72675521  0.23232739  0.94823886  1  0.136664  0  0.103661  0.11632  0  1.015126  0
H  H6  1  0.05130266  0.61515480  0.91470638  1  0.07144  0  0.100812  0.103525  0  1.034035  0
H  H7  1  0.94871209  0.38482438  0.08528228  1  0.071657  0  0.100907  0.103662  0  1.03395  0
H  H8  1  0.78997700  0.72838874  0.75678466  1  0.117275  0  0.126515  0.107225  0  0.991693  0
H  H9  1  0.21000706  0.27156391  0.24320750  1  0.116575  0  0.126548  0.107216  0  0.991845  0
H  H10  1  0.57550852  0.60730429  0.59611494  1  0.097376  0  0.108242  0.131787  0  1.019595  0
H  H11  1  0.42435775  0.39265735  0.40388631  1  0.096636  0  0.10812  0.13158  0  1.019632  0
H  H12  1  0.43436922  0.35389179  0.79365886  1  0.115392  0  0.109027  0.13649  0  1.011694  0
H  H13  1  0.56564499  0.64607306  0.20637439  1  0.115929  0  0.10908  0.136483  0  1.011351  0
H  H14  1  0.64981363  0.48571836  0.94308449  1  0.154324  0  0.128359  0.11489  0  0.98119  0
H  H15  1  0.35019447  0.51425012  0.05693583  1  0.154429  0  0.128334  0.114868  0  0.981384  0
H  H16  1  0.02449877  0.81651026  0.65181186  1  0.101604  0  0.116786  0.090851  0  1.008959  0
H  H17  1  0.97549546  0.18346598  0.34815178  1  0.101384  0  0.116765  0.090974  0  1.008914  0
H  H18  1  0.83656811  0.62361729  0.53990841  1  0.185398  0  0.110169  0.134398  0  1.052024  0
H  H19  1  0.16337981  0.37635096  0.46010755  1  0.185069  0  0.110103  0.134256  0  1.052222  0
H  H20  1  0.13722858  0.40960253  0.75102199  1  0.102668  0  0.114119  0.125996  0  0.986036  0
H  H21  1  0.86281774  0.59038677  0.24895520  1  0.102471  0  0.114073  0.125942  0  0.98612  0
H  H22  1  0.31493709  0.60913044  0.85076158  1  0.128107  0  0.115963  0.085728  0  1.029177  0
H  H23  1  0.68507438  0.39087578  0.14923543  1  0.128299  0  0.115992  0.085772  0  1.029164  0
H  H24  1  0.93285819  0.33476973  0.53466066  1  0.047961  0  0.096657  0.101735  0  0.997119  0
H  H25  1  0.06715210  0.66520783  0.46530077  1  0.048442  0  0.096778  0.102077  0  0.996825  0
H  H26  1  0.76159500  0.41464804  0.50741408  1  0.060481  0  0.098294  0.106697  0  0.991923  0
H  H27  1  0.23843515  0.58535308  0.49256787  1  0.060313  0  0.098335  0.106876  0  0.991956  0
H  H28  1  0.72286377  0.35115642  0.67716354  1  0.045336  0  0.086439  0.082641  0  1.021136  0
H  H29  1  0.27721825  0.64890343  0.32284344  1  0.04174  0  0.086426  0.082565  0  1.021253  0
H  H30  1  0.87111985  0.25315267  0.68134349  1  0.016173  0  0.091065  0.086677  0  0.987559  0
H  H31  1  0.12891884  0.74686712  0.31864763  1  0.012875  0  0.091137  0.086738  0  0.987785  0
H  H32  1  0.54736653  0.24724583  0.49933457  1  0.039302  0  0.094549  0.094522  0  1.004005  0
H  H33  1  0.45262289  0.75281757  0.50068426  1  0.039309  0  0.094517  0.094299  0  1.004169  0
H  H34  1  0.69417637  0.14672331  0.50336514  1  0.03079  0  0.093008  0.093938  0  0.995904  0
H  H35  1  0.30577686  0.85329785  0.49661904  1  0.030895  0  0.09304  0.094019  0  0.996011  0
H  H36  1  0.74599911  0.99969773  0.64435528  1  0.121742  0  0.109933  0.130184  0  1.001943  0
H  H37  1  0.25401921  0.00037244  0.35564895  1  0.122093  0  0.109859  0.130273  0  1.002051  0
H  H38  1  0.60584011  0.87300355  0.74483003  1  0.16377  0  0.114537  0.083552  0  1.043927  0
H  H39  1  0.39417120  0.12702788  0.25516393  1  0.163426  0  0.114599  0.083689  0  1.043845  0
H  H40  1  0.21354332  0.06861816  0.68586342  1  0.111304  0  0.115869  0.090175  0  1.010988  0
H  H41  1  0.78641857  0.93136571  0.31411625  1  0.11165  0  0.115872  0.090229  0  1.010742  0
H  H42  1  0.34033846  0.20906882  0.58545738  1  0.140935  0  0.106128  0.129499  0  1.039595  0
H  H43  1  0.65967439  0.79101033  0.41460846  1  0.141659  0  0.106031  0.129458  0  1.039058  0
C  C44  1  0.87844236  0.96396043  0.14036365  1  1.581094  0  0.20183  0.567736  0  4.226613  0
C  C45  1  0.12156768  0.03601580  0.85963693  1  1.581667  0  0.202117  0.568053  0  4.22664  0
C  C46  1  0.61041836  0.77888738  0.97273723  1  1.626652  0  0.205903  0.600868  0  4.262629  0
C  C47  1  0.38957754  0.22112613  0.02726183  1  1.626425  0  0.206115  0.601325  0  4.262012  0
C  C48  1  0.92170604  0.86236306  0.07859341  1  -0.022422  0  -0.012541  -0.046193  0  3.935155  0
C  C49  1  0.07830455  0.13761770  0.92140936  1  -0.02331  0  -0.012566  -0.046019  0  3.935141  0
C  C50  1  0.79693755  0.77801997  0.00027630  1  0.042275  0  0.000283  -0.090971  0  3.898579  0
C  C51  1  0.20306339  0.22196850  0.99971279  1  0.04285  0  0.000213  -0.091241  0  3.899113  0
C  C52  1  0.09124754  0.85697697  0.09637772  1  -0.059789  0  -0.079153  -0.078062  0  3.952824  0
C  C53  1  0.90875316  0.14300946  0.90360376  1  -0.05971  0  -0.079017  -0.077982  0  3.952029  0
C  C54  1  0.14076732  0.76906761  0.03902397  1  -0.034761  0  -0.090772  -0.072957  0  3.997997  0
C  C55  1  0.85924014  0.23094262  0.96095543  1  -0.034854  0  -0.090908  -0.073  0  3.997834  0
C  C56  1  0.01794536  0.68464420  0.96197819  1  -0.086412  0  -0.091005  -0.15599  0  4.009108  0
C  C57  1  0.98206189  0.31535042  0.03800408  1  -0.08684  0  -0.091219  -0.156371  0  4.009275  0
C  C58  1  0.84905791  0.69087199  0.94274202  1  0.315446  0  0.080586  0.103976  0  4.008375  0
C  C59  1  0.15095885  0.30911211  0.05726227  1  0.315525  0  0.08077  0.104165  0  4.008206  0
C  C60  1  0.70467557  0.64574680  0.75823804  1  0.306256  0  0.040403  0.042174  0  3.948304  0
C  C61  1  0.29529224  0.35419781  0.24176556  1  0.305623  0  0.040235  0.041806  0  3.9486  0
C  C62  1  0.58619982  0.57922806  0.67170936  1  0.018486  0  -0.108139  -0.268281  0  3.949712  0
C  C63  1  0.41374419  0.42073944  0.32830656  1  0.019283  0  -0.107953  -0.267733  0  3.948863  0
C  C64  1  0.47658600  0.46933394  0.67735979  1  0.854262  0  0.104785  0.393255  0  4.183464  0
C  C65  1  0.52335901  0.53063972  0.32266957  1  0.854988  0  0.10478  0.39276  0  4.182872  0
C  C66  1  0.50726647  0.43661938  0.78082394  1  0.009226  0  -0.106186  -0.274278  0  3.955479  0
C  C67  1  0.49272653  0.56334661  0.21920005  1  0.01006  0  -0.106288  -0.27408  0  3.954921  0
C  C68  1  0.62707940  0.50780909  0.86473480  1  0.291468  0  0.044299  0.045811  0  3.926139  0
C  C69  1  0.37292873  0.49216086  0.13528063  1  0.290166  0  0.044231  0.045501  0  3.92589  0
C  C70  1  0.04540876  0.72375870  0.66889480  1  0.424589  0  0.04229  0.086338  0  3.969789  0
C  C71  1  0.95461226  0.27623412  0.33109757  1  0.424448  0  0.042246  0.086098  0  3.969916  0
C  C72  1  0.94164845  0.61751929  0.60874276  1  -0.035321  0  -0.084585  -0.196437  0  3.944519  0
C  C73  1  0.05834559  0.38247644  0.39126224  1  -0.035056  0  -0.084477  -0.196077  0  3.944533  0
C  C74  1  0.97116874  0.50073601  0.63634854  1  -0.012122  0  0.02284  0.186046  0  3.907766  0
C  C75  1  0.02883188  0.49925058  0.36363149  1  -0.011793  0  0.022928  0.185927  0  3.908097  0
C  C76  1  0.10704043  0.49736015  0.72548791  1  -0.012197  0  -0.078013  -0.171265  0  3.915435  0
C  C77  1  0.89297631  0.50261871  0.27448501  1  -0.011955  0  -0.078149  -0.171358  0  3.915967  0
C  C78  1  0.20692667  0.60754819  0.78161126  1  0.433186  0  0.043578  0.084771  0  3.964682  0
C  C79  1  0.79308851  0.39242375  0.21838229  1  0.433336  0  0.043819  0.085035  0  3.965025  0
C  C80  1  0.85927948  0.38590964  0.57077380  1  -0.03338  0  -0.15857  -0.205283  0  3.92968  0
C  C81  1  0.14074910  0.61407375  0.42920467  1  -0.033761  0  -0.158811  -0.205804  0  3.929788  0
C  C82  1  0.77750339  0.29858194  0.62884789  1  -0.00847  0  -0.159591  -0.124725  0  3.903913  0
C  C83  1  0.22252203  0.70144121  0.37114510  1  -0.001276  0  -0.159637  -0.124772  0  3.904098  0
C  C84  1  0.63900015  0.20008107  0.55115387  1  -0.007858  0  -0.157994  -0.205423  0  3.953084  0
C  C85  1  0.36098259  0.79995653  0.44884999  1  -0.008115  0  -0.157986  -0.20518  0  3.953052  0
C  C86  1  0.55231816  0.11430789  0.60435314  1  0.01186  0  0.0175  0.17604  0  3.936145  0
C  C87  1  0.44768223  0.88576105  0.39567124  1  0.00934  0  0.017533  0.17623  0  3.935783  0
C  C88  1  0.62598443  0.01729972  0.64898854  1  -0.015042  0  -0.081036  -0.184062  0  3.936175  0
C  C89  1  0.37402471  0.98275823  0.35102702  1  -0.016085  0  -0.081076  -0.184337  0  3.936311  0
C  C90  1  0.54958402  0.94595014  0.70514446  1  0.388803  0  0.045439  0.096596  0  3.9487  0
C  C91  1  0.45043833  0.05408423  0.29485251  1  0.389264  0  0.045444  0.096419  0  3.948837  0
C  C92  1  0.33040723  0.05653790  0.67310383  1  0.410961  0  0.044311  0.090815  0  3.959385  0
C  C93  1  0.66956941  0.94347531  0.32689849  1  0.409409  0  0.044172  0.090588  0  3.959863  0
C  C94  1  0.39966469  0.13200350  0.61595011  1  -0.038091  0  -0.086877  -0.189226  0  3.926559  0
C  C95  1  0.60033263  0.86805820  0.38408075  1  -0.034859  0  -0.086761  -0.189279  0  3.926768  0
N  N96  1  0.17650270  0.71919261  0.75408664  1  -1.277582  0  -0.340508  -0.250412  0  3.629649  0
N  N97  1  0.82351816  0.28078852  0.24590770  1  -1.277843  0  -0.340598  -0.250466  0  3.630097  0
N  N98  1  0.40492333  0.96552099  0.71825522  1  -1.2697  0  -0.338646  -0.250396  0  3.577109  0
N  N99  1  0.59508706  0.03449952  0.28174289  1  -1.269409  0  -0.338579  -0.250123  0  3.577081  0
N  N100  1  0.72572413  0.61198683  0.85459563  1  -1.257726  0  -0.228004  0.007407  0  3.789872  0
N  N101  1  0.27428240  0.38797592  0.14541633  1  -1.256792  0  -0.227794  0.007902  0  3.789579  0
O  O102  1  0.55245619  0.83109169  0.89109022  1  -1.184519  0  -0.333241  -0.562808  0  2.395058  0
O  O103  1  0.44753418  0.16892223  0.10892547  1  -1.184195  0  -0.333322  -0.563011  0  2.394566  0
O  O104  1  0.52923912  0.72499022  0.02207653  1  -1.175547  0  -0.324991  -0.557578  0  2.099547  0
O  O105  1  0.47078600  0.27503473  0.97794439  1  -1.17572  0  -0.32507  -0.557754  0  2.09938  0
O  O106  1  0.73456737  0.99543384  0.09511238  1  -1.157124  0  -0.320881  -0.523211  0  2.344992  0
O  O107  1  0.26545506  0.00455144  0.90489595  1  -1.156942  0  -0.321079  -0.52349  0  2.344527  0
O  O108  1  0.97855254  0.01178440  0.22790223  1  -1.196337  0  -0.333335  -0.57988  0  2.126654  0
O  O109  1  0.02147955  0.98819778  0.77210364  1  -1.196091  0  -0.333415  -0.579969  0  2.127162  0
O  O110  1  0.36480189  0.40709835  0.59800242  1  -1.175854  0  -0.330658  -0.524921  0  2.14544  0
O  O111  1  0.63510065  0.59286446  0.40204158  1  -1.176439  0  -0.330691  -0.524745  0  2.145125  0
