# generated using pymatgen
data_UAgH9C12N2O7
_symmetry_space_group_name_H-M   'P 1'
_cell_length_a   8.76688807
_cell_length_b   8.84272745
_cell_length_c   18.17580000
_cell_angle_alpha   90.00000000
_cell_angle_beta   90.00000000
_cell_angle_gamma   98.59330256
_symmetry_Int_Tables_number   1
_chemical_formula_structural   UAgH9C12N2O7
_chemical_formula_sum   'U4 Ag4 H36 C48 N8 O28'
_cell_volume   1393.22805167
_cell_formula_units_Z   4
loop_
 _symmetry_equiv_pos_site_id
 _symmetry_equiv_pos_as_xyz
  1  'x, y, z'
loop_
 _atom_site_type_symbol
 _atom_site_label
 _atom_site_symmetry_multiplicity
 _atom_site_fract_x
 _atom_site_fract_y
 _atom_site_fract_z
 _atom_site_occupancy
 _atom_site_pbe_bader_charge
 _atom_site_pbe_bader_spin_density
 _atom_site_pbe_cm5_charge
 _atom_site_pbe_ddec_charge
 _atom_site_pbe_ddec_spin_density
 _atom_site_pbe_ddec_sum_bond_order
 _atom_site_pbe_magmom
U  U0  1  0.30286957  0.54793426  0.46676570  1  2.926636  0  2.126085  2.610607  0  4.730515  0
U  U1  1  0.19713218  0.95206728  0.96676460  1  2.92665  0  2.126079  2.6106  0  4.730479  0
U  U2  1  0.69713912  0.45208545  0.53323485  1  2.926712  0  2.125968  2.610323  0  4.731039  0
U  U3  1  0.80286256  0.04792040  0.03323485  1  2.926682  0  2.126018  2.610471  0  4.730773  0
Ag  Ag4  1  0.17026164  0.43380321  0.95742416  1  0.583187  0  0.521884  0.402422  0  1.837147  0
Ag  Ag5  1  0.32973782  0.06619692  0.45742416  1  0.583098  0  0.521868  0.402426  0  1.837191  0
Ag  Ag6  1  0.82973956  0.56619706  0.04257584  1  0.583124  0  0.521862  0.402379  0  1.837182  0
Ag  Ag7  1  0.67026224  0.93380334  0.54257584  1  0.583211  0  0.521861  0.402371  0  1.837223  0
H  H8  1  0.20107813  0.67579214  0.70170336  1  0.111893  0  0.11257  0.117347  0  1.023526  0
H  H9  1  0.29892328  0.82420711  0.20170336  1  0.111905  0  0.112571  0.117353  0  1.023491  0
H  H10  1  0.79892210  0.32420927  0.29829664  1  0.111924  0  0.112579  0.117373  0  1.023494  0
H  H11  1  0.70107512  0.17578972  0.79829664  1  0.111937  0  0.112553  0.117348  0  1.023545  0
H  H12  1  0.22245684  0.65860786  0.83904367  1  0.126899  0  0.122341  0.087065  0  1.039336  0
H  H13  1  0.27754342  0.84139139  0.33904422  1  0.126891  0  0.122324  0.087061  0  1.039356  0
H  H14  1  0.77754111  0.34139354  0.16095633  1  0.126927  0  0.122324  0.087047  0  1.03936  0
H  H15  1  0.72245971  0.15860659  0.66095633  1  0.12692  0  0.122325  0.087046  0  1.039375  0
H  H16  1  0.99384392  0.21311820  0.84037236  1  0.135719  0  0.129231  0.104463  0  1.009574  0
H  H17  1  0.50615707  0.28688307  0.34037126  1  0.135749  0  0.129234  0.104498  0  1.009496  0
H  H18  1  0.00615876  0.78688435  0.15962819  1  0.135713  0  0.129224  0.104482  0  1.009488  0
H  H19  1  0.49384299  0.71311719  0.65962764  1  0.135704  0  0.129237  0.104472  0  1.009533  0
H  H20  1  0.94826000  0.22001365  0.70387163  1  0.127524  0  0.111951  0.114782  0  1.027259  0
H  H21  1  0.55173740  0.27998649  0.20386998  1  0.127544  0  0.111958  0.1148  0  1.027256  0
H  H22  1  0.05174138  0.77998776  0.29612947  1  0.127854  0  0.111966  0.114815  0  1.027222  0
H  H23  1  0.44826003  0.72001149  0.79612947  1  0.127513  0  0.111969  0.114817  0  1.02724  0
H  H24  1  0.55894341  0.68735279  0.15367852  1  0.121471  0  0.115252  0.128535  0  1.001141  0
H  H25  1  0.94105418  0.81264990  0.65367742  1  0.12149  0  0.115257  0.128525  0  1.001162  0
H  H26  1  0.44105631  0.31264519  0.84632148  1  0.121481  0  0.115266  0.12857  0  1.001093  0
H  H27  1  0.05894315  0.18735494  0.34632203  1  0.121478  0  0.115257  0.128547  0  1.001139  0
H  H28  1  0.44929978  0.63628603  0.02862708  1  0.152909  0  0.126385  0.101729  0  0.996505  0
H  H29  1  0.05069969  0.86371551  0.52862598  1  0.152881  0  0.126375  0.101724  0  0.996493  0
H  H30  1  0.55069993  0.36371194  0.97137292  1  0.152907  0  0.126373  0.101711  0  0.996508  0
H  H31  1  0.94929957  0.13628704  0.47137292  1  0.152906  0  0.126377  0.101713  0  0.99651  0
H  H32  1  0.17742508  0.36885179  0.23861673  1  0.120726  0  0.110778  0.121578  0  1.016588  0
H  H33  1  0.32257535  0.13114720  0.73861783  1  0.120737  0  0.11079  0.121589  0  1.016551  0
H  H34  1  0.82257480  0.63114733  0.76138327  1  0.120738  0  0.110772  0.121559  0  1.016611  0
H  H35  1  0.67742797  0.86885192  0.26138272  1  0.120691  0  0.110767  0.121561  0  1.01661  0
H  H36  1  0.09205205  0.31656469  0.10872369  1  0.140529  0  0.123552  0.092714  0  1.039783  0
H  H37  1  0.40794838  0.18343430  0.60872479  1  0.140531  0  0.123543  0.0927  0  1.039825  0
H  H38  1  0.90794784  0.68343443  0.89127631  1  0.14052  0  0.123555  0.092703  0  1.039827  0
H  H39  1  0.59205265  0.81656482  0.39127576  1  0.14053  0  0.123553  0.09271  0  1.03979  0
H  H40  1  0.58164823  0.54417373  0.38503450  1  0.642189  0  0.290181  0.388442  0  0.961348  0
H  H41  1  0.91835243  0.95582666  0.88503450  1  0.642191  0  0.290171  0.388433  0  0.961364  0
H  H42  1  0.41835052  0.45582539  0.61496605  1  0.642197  0  0.290178  0.388412  0  0.961397  0
H  H43  1  0.08164877  0.04417360  0.11496550  1  0.642185  0  0.290177  0.388427  0  0.961369  0
C  C44  1  0.04844414  0.46024698  0.61047877  1  1.608711  0  0.253671  0.641177  0  4.127452  0
C  C45  1  0.45155760  0.03975315  0.11047822  1  1.608085  0  0.253693  0.641237  0  4.127383  0
C  C46  1  0.95155610  0.53975443  0.38952178  1  1.608558  0  0.253699  0.64126  0  4.127336  0
C  C47  1  0.54844211  0.96024482  0.88952123  1  1.608538  0  0.25364  0.641193  0  4.12744  0
C  C48  1  0.07000052  0.44983462  0.69237503  1  0.00367  0  0.018137  0.024974  0  3.891057  0
C  C49  1  0.42999894  0.05016551  0.19237503  1  0.003647  0  0.018147  0.024911  0  3.89124  0
C  C50  1  0.93000103  0.55016793  0.30762497  1  0.003952  0  0.018131  0.024901  0  3.891186  0
C  C51  1  0.56999849  0.94983247  0.80762497  1  0.003911  0  0.018165  0.024972  0  3.89103  0
C  C52  1  0.15095125  0.57294725  0.73083826  1  0.032014  0  -0.069333  -0.116619  0  3.920718  0
C  C53  1  0.34904936  0.92705429  0.23083881  1  0.031968  0  -0.069369  -0.116609  0  3.92082  0
C  C54  1  0.84904801  0.42705531  0.26916119  1  0.031916  0  -0.069355  -0.116643  0  3.920813  0
C  C55  1  0.65095281  0.07294483  0.76916064  1  0.031956  0  -0.069325  -0.116575  0  3.920815  0
C  C56  1  0.16617998  0.56260008  0.80658018  1  0.418816  0  0.047172  0.072785  0  3.928962  0
C  C57  1  0.33381881  0.93739688  0.30657743  1  0.418702  0  0.047228  0.072814  0  3.928849  0
C  C58  1  0.83381877  0.43739904  0.19342312  1  0.418697  0  0.047223  0.072869  0  3.928843  0
C  C59  1  0.66618108  0.06260224  0.69342367  1  0.418898  0  0.04721  0.072823  0  3.928939  0
C  C60  1  0.03547726  0.31406339  0.80746322  1  0.477973  0  0.053087  0.083709  0  3.893139  0
C  C61  1  0.46451923  0.18593216  0.30746157  1  0.478229  0  0.053012  0.083601  0  3.893183  0
C  C62  1  0.96452246  0.68593458  0.19253788  1  0.478196  0  0.053049  0.08362  0  3.893127  0
C  C63  1  0.53547672  0.81406353  0.69253733  1  0.47804  0  0.05307  0.083743  0  3.893163  0
C  C64  1  0.01062592  0.31878693  0.73196613  1  -0.049214  0  -0.067874  -0.11835  0  3.914754  0
C  C65  1  0.48937223  0.18121206  0.23196448  1  -0.049265  0  -0.06786  -0.118325  0  3.914806  0
C  C66  1  0.98937511  0.68121219  0.26803497  1  -0.049832  0  -0.067897  -0.118357  0  3.914761  0
C  C67  1  0.51062521  0.81878591  0.76803442  1  -0.049488  0  -0.067936  -0.118464  0  3.914806  0
C  C68  1  0.42858880  0.56477885  0.28442214  1  1.569228  0  0.221209  0.584296  0  4.198507  0
C  C69  1  0.07141033  0.93522040  0.78442214  1  1.569229  0  0.221194  0.584282  0  4.198409  0
C  C70  1  0.57141144  0.43522256  0.71557841  1  1.569231  0  0.221185  0.584357  0  4.198382  0
C  C71  1  0.92858956  0.06477872  0.21557731  1  1.569245  0  0.221093  0.584193  0  4.198567  0
C  C72  1  0.37383937  0.53402672  0.20667481  1  0.0369  0  0.001994  0.002053  0  3.955306  0
C  C73  1  0.12616125  0.96597482  0.70667426  1  0.036952  0  0.002022  0.002086  0  3.955358  0
C  C74  1  0.62616069  0.46597355  0.79332574  1  0.036907  0  0.002007  0.002  0  3.955389  0
C  C75  1  0.87384110  0.03402544  0.29332519  1  0.036929  0  0.002037  0.002073  0  3.955348  0
C  C76  1  0.45380512  0.60598795  0.14652340  1  -0.080406  0  -0.075446  -0.146107  0  3.945882  0
C  C77  1  0.04619304  0.89401245  0.64652230  1  -0.080608  0  -0.075455  -0.146091  0  3.945826  0
C  C78  1  0.54619477  0.39401117  0.85347715  1  -0.080416  0  -0.075441  -0.146091  0  3.945897  0
C  C79  1  0.95380605  0.10598896  0.35347715  1  -0.08062  0  -0.075444  -0.146087  0  3.945896  0
C  C80  1  0.39453318  0.57581224  0.07620022  1  0.439166  0  0.054535  0.084974  0  3.919514  0
C  C81  1  0.10546498  0.92418815  0.57619912  1  0.439357  0  0.054543  0.084979  0  3.919477  0
C  C82  1  0.60546768  0.42418573  0.92380033  1  0.439181  0  0.054533  0.084968  0  3.919516  0
C  C83  1  0.89453428  0.07581440  0.42380033  1  0.439376  0  0.054518  0.084968  0  3.919527  0
C  C84  1  0.24122227  0.42903050  0.19348859  1  -0.021672  0  -0.078533  -0.133764  0  3.946239  0
C  C85  1  0.25877605  0.07096963  0.69348859  1  -0.021716  0  -0.07858  -0.133833  0  3.946292  0
C  C86  1  0.75877893  0.57096977  0.80651141  1  -0.021666  0  -0.078505  -0.133704  0  3.946232  0
C  C87  1  0.74122384  0.92902948  0.30651030  1  -0.021389  0  -0.07854  -0.133761  0  3.946307  0
C  C88  1  0.19314277  0.39940949  0.12155173  1  0.460578  0  0.048992  0.089769  0  3.91032  0
C  C89  1  0.30685783  0.10059064  0.62155228  1  0.460578  0  0.049037  0.089866  0  3.910289  0
C  C90  1  0.80685694  0.60058848  0.87844937  1  0.460601  0  0.048992  0.089753  0  3.910341  0
C  C91  1  0.69314434  0.89940848  0.37844827  1  0.460332  0  0.049012  0.089798  0  3.910294  0
N  N92  1  0.11136362  0.43464155  0.84438869  1  -1.20544  0  -0.34623  -0.184573  0  3.637339  0
N  N93  1  0.38863881  0.06536316  0.34438924  1  -1.205489  0  -0.346175  -0.184563  0  3.637352  0
N  N94  1  0.88863844  0.56536443  0.15561076  1  -1.20547  0  -0.346156  -0.184545  0  3.637229  0
N  N95  1  0.61136239  0.93463711  0.65561076  1  -1.205518  0  -0.346172  -0.184598  0  3.637261  0
N  N96  1  0.26662137  0.47339738  0.06389045  1  -1.206613  0  -0.344529  -0.178224  0  3.610589  0
N  N97  1  0.23337941  0.02660389  0.56388990  1  -1.206595  0  -0.344548  -0.178279  0  3.610648  0
N  N98  1  0.73337966  0.52660174  0.93611010  1  -1.206651  0  -0.344551  -0.178219  0  3.610582  0
N  N99  1  0.76662083  0.97339752  0.43611010  1  -1.206592  0  -0.344535  -0.178247  0  3.610589  0
O  O100  1  0.21999571  0.34666263  0.45741315  1  -0.892334  0  -0.763136  -0.764431  0  1.882552  0
O  O101  1  0.28000603  0.15333751  0.95741315  1  -0.892369  0  -0.763151  -0.764447  0  1.882625  0
O  O102  1  0.77999761  0.65333078  0.54258740  1  -0.892469  0  -0.763243  -0.76417  0  1.883325  0
O  O103  1  0.71999814  0.84666733  0.04258740  1  -0.892428  0  -0.763233  -0.764279  0  1.883048  0
O  O104  1  0.37536315  0.75312425  0.47208376  1  -0.905964  0  -0.763148  -0.795844  0  1.94608  0
O  O105  1  0.12463615  0.74687615  0.97208376  1  -0.905955  0  -0.763124  -0.795807  0  1.945977  0
O  O106  1  0.62463229  0.24686801  0.52791624  1  -0.90605  0  -0.762914  -0.795834  0  1.945629  0
O  O107  1  0.87536363  0.25312983  0.02791514  1  -0.906025  0  -0.762988  -0.795849  0  1.945757  0
O  O108  1  0.93214155  0.37764236  0.58194632  1  -1.166849  0  -0.350166  -0.627617  0  2.290051  0
O  O109  1  0.56785865  0.12236120  0.08194577  1  -1.166408  0  -0.350169  -0.627643  0  2.290091  0
O  O110  1  0.06785885  0.62236019  0.41805478  1  -1.166961  0  -0.350167  -0.627654  0  2.290049  0
O  O111  1  0.43214027  0.87763906  0.91805368  1  -1.166976  0  -0.350155  -0.627631  0  2.290077  0
O  O112  1  0.54660397  0.49959640  0.43399685  1  -1.217383  0  -0.723301  -1.012087  0  2.12743  0
O  O113  1  0.95339588  0.00040487  0.93399685  1  -1.217256  0  -0.723285  -1.012093  0  2.127437  0
O  O114  1  0.45339329  0.50040043  0.56600315  1  -1.217227  0  -0.723292  -1.012028  0  2.127443  0
O  O115  1  0.04660418  0.99959539  0.06600315  1  -1.217334  0  -0.723281  -1.012082  0  2.127412  0
O  O116  1  0.14800966  0.55264978  0.57588827  1  -1.162507  0  -0.346332  -0.612787  0  2.318173  0
O  O117  1  0.35199026  0.94734718  0.07588662  1  -1.162345  0  -0.346361  -0.612801  0  2.318027  0
O  O118  1  0.85198794  0.44734934  0.42411393  1  -1.162269  0  -0.346377  -0.612816  0  2.318044  0
O  O119  1  0.64800945  0.05265080  0.92411283  1  -1.162224  0  -0.346342  -0.612802  0  2.318064  0
O  O120  1  0.32258514  0.55420409  0.33368435  1  -1.163351  0  -0.370853  -0.646014  0  2.32404  0
O  O121  1  0.17741565  0.94579859  0.83368380  1  -1.163346  0  -0.370854  -0.646026  0  2.324034  0
O  O122  1  0.67741281  0.44579732  0.66631565  1  -1.163338  0  -0.37083  -0.645988  0  2.324069  0
O  O123  1  0.82258573  0.05420281  0.16631620  1  -1.163377  0  -0.370805  -0.645944  0  2.324071  0
O  O124  1  0.57162996  0.59498887  0.29583842  1  -1.164998  0  -0.290134  -0.516989  0  2.176392  0
O  O125  1  0.92836728  0.90501153  0.79583842  1  -1.165027  0  -0.290132  -0.516987  0  2.176366  0
O  O126  1  0.42836720  0.40501483  0.70416158  1  -1.165007  0  -0.290131  -0.517044  0  2.176289  0
O  O127  1  0.07163278  0.09498874  0.20416158  1  -1.165034  0  -0.290078  -0.516936  0  2.176411  0
