# generated using pymatgen
data_Cd3H28C32(NO7)2
_symmetry_space_group_name_H-M   'P 1'
_cell_length_a   7.62574000
_cell_length_b   10.84306681
_cell_length_c   10.96375574
_cell_angle_alpha   62.87078082
_cell_angle_beta   76.37290131
_cell_angle_gamma   86.86296815
_symmetry_Int_Tables_number   1
_chemical_formula_structural   Cd3H28C32(NO7)2
_chemical_formula_sum   'Cd3 H28 C32 N2 O14'
_cell_volume   782.64541918
_cell_formula_units_Z   1
loop_
 _symmetry_equiv_pos_site_id
 _symmetry_equiv_pos_as_xyz
  1  'x, y, z'
loop_
 _atom_site_type_symbol
 _atom_site_label
 _atom_site_symmetry_multiplicity
 _atom_site_fract_x
 _atom_site_fract_y
 _atom_site_fract_z
 _atom_site_occupancy
 _atom_site_hle17_bader_spin_density
 _atom_site_hle17_ddec_charge
 _atom_site_hle17_ddec_spin_density
 _atom_site_hle17_ddec_sum_bond_order
 _atom_site_hle17_magmom
 _atom_site_hse06_10hf_bader_spin_density
 _atom_site_hse06_10hf_ddec_charge
 _atom_site_hse06_10hf_ddec_spin_density
 _atom_site_hse06_10hf_ddec_sum_bond_order
 _atom_site_hse06_10hf_magmom
 _atom_site_hse06_bader_spin_density
 _atom_site_hse06_ddec_charge
 _atom_site_hse06_ddec_spin_density
 _atom_site_hse06_ddec_sum_bond_order
 _atom_site_hse06_magmom
 _atom_site_pbe_bader_spin_density
 _atom_site_pbe_cm5_charge
 _atom_site_pbe_ddec_charge
 _atom_site_pbe_ddec_spin_density
 _atom_site_pbe_ddec_sum_bond_order
 _atom_site_pbe_magmom
Cd  Cd0  1  0.49999844  0.49999944  0.00000076  1  0  1.199131  0  1.623389  0  0  1.011535  0  2.071671  0  0  1.06405  0  2.020186  0  0  0.789724  0.973752  0  2.107197  0
Cd  Cd1  1  0.05641931  0.14188895  0.35265506  1  0  1.214086  0  1.645211  0  0  1.037632  0  2.09702  0  0  1.101403  0  2.030532  0  0  0.767395  0.99325  0  2.141802  0
Cd  Cd2  1  0.94357695  0.85811424  0.64734439  1  0  1.214017  0  1.645266  0  0  1.037585  0  2.097073  0  0  1.101353  0  2.030587  0  0  0.767411  0.993206  0  2.141857  0
H  H3  1  0.28318426  0.71206617  0.81598540  1  0  0.436689  0  0.856112  0  0  0.403113  0  0.92374  0  0  0.414384  0  0.907165  0  0  0.292808  0.395096  0  0.935502  0
H  H4  1  0.71681288  0.28793185  0.18401344  1  0  0.436666  0  0.856145  0  0  0.403078  0  0.923798  0  0  0.414344  0  0.907226  0  0  0.2928  0.395058  0  0.935563  0
H  H5  1  0.49137805  0.73158414  0.72556858  1  0  0.434792  0  0.865189  0  0  0.401001  0  0.932902  0  0  0.412539  0  0.916168  0  0  0.288206  0.392822  0  0.944737  0
H  H6  1  0.50862075  0.26841695  0.27443227  1  0  0.43483  0  0.865125  0  0  0.401046  0  0.932838  0  0  0.412585  0  0.916101  0  0  0.288212  0.392869  0  0.944672  0
H  H7  1  0.94023284  0.41358410  0.90558546  1  0  0.109327  0  0.958155  0  0  0.121333  0  1.021755  0  0  0.122998  0  1.022338  0  0  0.09825  0.119917  0  1.021559  0
H  H8  1  0.05977262  0.58641595  0.09441472  1  0  0.109395  0  0.958163  0  0  0.121383  0  1.021776  0  0  0.123048  0  1.022358  0  0  0.09825  0.119968  0  1.02158  0
H  H9  1  0.14993557  0.50855671  0.85584285  1  0  0.118899  0  0.961951  0  0  0.133023  0  1.021891  0  0  0.135356  0  1.020711  0  0  0.103275  0.131356  0  1.022695  0
H  H10  1  0.85006979  0.49144231  0.14415688  1  0  0.118937  0  0.96198  0  0  0.133046  0  1.021929  0  0  0.135375  0  1.020759  0  0  0.103264  0.13138  0  1.022722  0
H  H11  1  0.34741413  0.94113033  0.09276090  1  0  0.112889  0  0.94953  0  0  0.122431  0  1.011082  0  0  0.12557  0  1.010092  0  0  0.111497  0.120295  0  1.011679  0
H  H12  1  0.65259133  0.05886861  0.90724616  1  0  0.112885  0  0.949591  0  0  0.122429  0  1.011142  0  0  0.125569  0  1.010153  0  0  0.111489  0.120279  0  1.011759  0
H  H13  1  0.25581275  0.43290900  0.31314579  1  0  0.091263  0  0.940205  0  0  0.098419  0  1.005427  0  0  0.101179  0  1.003118  0  0  0.118791  0.096454  0  1.007067  0
H  H14  1  0.74418456  0.56708999  0.68685898  1  0  0.091209  0  0.940266  0  0  0.098376  0  1.005482  0  0  0.101136  0  1.003171  0  0  0.118795  0.096413  0  1.00712  0
H  H15  1  0.11972450  0.55852172  0.45324488  1  0  0.109655  0  0.968303  0  0  0.118391  0  1.031891  0  0  0.121605  0  1.030556  0  0  0.109769  0.116136  0  1.032773  0
H  H16  1  0.88027435  0.44147933  0.54675963  1  0  0.109635  0  0.968337  0  0  0.118365  0  1.031928  0  0  0.12158  0  1.030592  0  0  0.109757  0.116092  0  1.032825  0
H  H17  1  0.45841626  0.38888147  0.51416709  1  0  0.085612  0  0.974588  0  0  0.0985  0  1.037687  0  0  0.100562  0  1.037373  0  0  0.097911  0.096939  0  1.037987  0
H  H18  1  0.54158083  0.61111660  0.48582809  1  0  0.085569  0  0.974659  0  0  0.098459  0  1.037757  0  0  0.10052  0  1.037445  0  0  0.097899  0.096923  0  1.038031  0
H  H19  1  0.48453037  0.80130801  0.96688412  1  0  0.083228  0  0.931851  0  0  0.092941  0  0.993786  0  0  0.095726  0  0.991186  0  0  0.118411  0.090828  0  0.995891  0
H  H20  1  0.51547087  0.19868885  0.03312457  1  0  0.08322  0  0.931831  0  0  0.092935  0  0.993756  0  0  0.095717  0  0.991161  0  0  0.11842  0.090822  0  0.995859  0
H  H21  1  0.22097514  0.99896522  0.85778654  1  0  0.094204  0  0.953018  0  0  0.106053  0  1.014837  0  0  0.109099  0  1.013219  0  0  0.099357  0.104037  0  1.015728  0
H  H22  1  0.77902895  0.00103484  0.14221295  1  0  0.094174  0  0.953062  0  0  0.106013  0  1.014897  0  0  0.109057  0  1.013279  0  0  0.099354  0.103997  0  1.015785  0
H  H23  1  0.06789643  0.12071762  0.99460968  1  0  0.098494  0  0.957582  0  0  0.109877  0  1.019141  0  0  0.112843  0  1.017903  0  0  0.099315  0.107842  0  1.019796  0
H  H24  1  0.93210640  0.87928348  0.00538957  1  0  0.098501  0  0.957608  0  0  0.109859  0  1.019195  0  0  0.112824  0  1.017958  0  0  0.099328  0.107824  0  1.019852  0
H  H25  1  0.49816092  0.01325883  0.66721680  1  0  0.121546  0  0.930019  0  0  0.135203  0  0.988673  0  0  0.137807  0  0.987281  0  0  0.102757  0.133152  0  0.989901  0
H  H26  1  0.50183608  0.98673821  0.33277794  1  0  0.121475  0  0.930085  0  0  0.135148  0  0.988747  0  0  0.137747  0  0.987361  0  0  0.102747  0.133096  0  0.989973  0
H  H27  1  0.57208346  0.17681201  0.51762356  1  0  0.118585  0  0.936364  0  0  0.131554  0  0.996729  0  0  0.13407  0  0.995491  0  0  0.10163  0.129712  0  0.997716  0
H  H28  1  0.42791780  0.82318706  0.48237320  1  0  0.118604  0  0.936354  0  0  0.131563  0  0.996743  0  0  0.134076  0  0.995506  0  0  0.101652  0.129719  0  0.997731  0
H  H29  1  0.30085748  0.51185302  0.64951119  1  0  0.092162  0  0.959049  0  0  0.103898  0  1.021304  0  0  0.107233  0  1.018734  0  0  0.098681  0.101482  0  1.023168  0
H  H30  1  0.69914257  0.48814815  0.35048304  1  0  0.092204  0  0.959028  0  0  0.103948  0  1.021261  0  0  0.107283  0  1.018694  0  0  0.098687  0.101532  0  1.023121  0
C  C31  1  0.08327221  0.40434166  0.90871665  1  0  -0.321959  0  3.696246  0  0  -0.360456  0  3.926881  0  0  -0.366788  0  3.934389  0  0  -0.16804  -0.356054  0  3.921696  0
C  C32  1  0.91673320  0.59565843  0.09127987  1  0  -0.322162  0  3.696468  0  0  -0.360596  0  3.92701  0  0  -0.366931  0  3.934517  0  0  -0.16806  -0.356192  0  3.921827  0
C  C33  1  0.32501612  0.08519378  0.52324099  1  0  0.728605  0  3.82866  0  0  0.678964  0  4.125036  0  0  0.71326  0  4.118846  0  0  0.215068  0.655657  0  4.1285  0
C  C34  1  0.67498036  0.91481254  0.47675521  1  0  0.728486  0  3.828688  0  0  0.678956  0  4.124926  0  0  0.713253  0  4.118734  0  0  0.215042  0.655645  0  4.128395  0
C  C35  1  0.22147188  0.75987807  0.28239424  1  0  0.002045  0  3.690832  0  0  0.023092  0  3.917944  0  0  0.020392  0  3.938264  0  0  0.011275  0.024796  0  3.904477  0
C  C36  1  0.77852415  0.24012198  0.71760846  1  0  0.002024  0  3.69088  0  0  0.023071  0  3.917994  0  0  0.020372  0  3.938312  0  0  0.011278  0.024777  0  3.904519  0
C  C37  1  0.32518231  0.82869405  0.14387051  1  0  -0.110813  0  3.70061  0  0  -0.133341  0  3.947639  0  0  -0.138477  0  3.96925  0  0  -0.071716  -0.130225  0  3.933218  0
C  C38  1  0.67481746  0.17130182  0.85613613  1  0  -0.11084  0  3.700572  0  0  -0.133367  0  3.947583  0  0  -0.138501  0  3.969191  0  0  -0.071712  -0.130241  0  3.933172  0
C  C39  1  0.27303451  0.54567505  0.26740650  1  0  0.129101  0  3.683004  0  0  0.100168  0  3.937384  0  0  0.1064  0  3.955154  0  0  0.050527  0.096184  0  3.925035  0
C  C40  1  0.72696007  0.45432398  0.73259599  1  0  0.129134  0  3.683005  0  0  0.100186  0  3.9374  0  0  0.106419  0  3.955168  0  0  0.050524  0.096202  0  3.925047  0
C  C41  1  0.09422633  0.33367527  0.06126648  1  0  0.719384  0  3.829815  0  0  0.669786  0  4.12676  0  0  0.703904  0  4.121023  0  0  0.211278  0.646575  0  4.129901  0
C  C42  1  0.90578286  0.66632171  0.93872986  1  0  0.719363  0  3.829946  0  0  0.669803  0  4.126844  0  0  0.70392  0  4.121107  0  0  0.211348  0.646593  0  4.129988  0
C  C43  1  0.19619785  0.61552344  0.34467751  1  0  -0.111064  0  3.689162  0  0  -0.135213  0  3.937354  0  0  -0.140249  0  3.958284  0  0  -0.072633  -0.131988  0  3.923215  0
C  C44  1  0.80379825  0.38447766  0.65532381  1  0  -0.11101  0  3.689124  0  0  -0.13515  0  3.937317  0  0  -0.140184  0  3.958242  0  0  -0.07261  -0.131905  0  3.923185  0
C  C45  1  0.14423417  0.84107674  0.36253943  1  0  0.664409  0  3.892133  0  0  0.6122  0  4.186663  0  0  0.647674  0  4.179644  0  0  0.215324  0.588168  0  4.190608  0
C  C46  1  0.85575786  0.15892328  0.63746762  1  0  0.664454  0  3.892111  0  0  0.612235  0  4.18668  0  0  0.64771  0  4.179659  0  0  0.215343  0.588203  0  4.19063  0
C  C47  1  0.37185465  0.33028979  0.61934387  1  0  -0.121828  0  3.762421  0  0  -0.142466  0  4.011696  0  0  -0.145088  0  4.034948  0  0  -0.096666  -0.14051  0  3.995708  0
C  C48  1  0.62814654  0.66970823  0.38065428  1  0  -0.121718  0  3.762423  0  0  -0.142384  0  4.011651  0  0  -0.145004  0  4.034902  0  0  -0.096712  -0.140449  0  3.995656  0
C  C49  1  0.39960405  0.75181182  0.07395789  1  0  0.122887  0  3.712099  0  0  0.091671  0  3.968281  0  0  0.097754  0  3.987147  0  0  0.048123  0.087724  0  3.95549  0
C  C50  1  0.60039326  0.24818717  0.92604689  1  0  0.122895  0  3.712022  0  0  0.091677  0  3.968207  0  0  0.097762  0  3.987072  0  0  0.048111  0.08773  0  3.95541  0
C  C51  1  0.24003540  0.11156210  0.81255283  1  0  -0.116879  0  3.743022  0  0  -0.137085  0  3.993613  0  0  -0.139453  0  4.01501  0  0  -0.095536  -0.135874  0  3.979212  0
C  C52  1  0.75996851  0.88843589  0.18744670  1  0  -0.116819  0  3.743112  0  0  -0.137055  0  3.993662  0  0  -0.139416  0  4.015048  0  0  -0.095553  -0.135841  0  3.979257  0
C  C53  1  0.15227055  0.18022503  0.88850328  1  0  -0.130319  0  3.747996  0  0  -0.150646  0  3.998738  0  0  -0.153647  0  4.020815  0  0  -0.099128  -0.148233  0  3.983439  0
C  C54  1  0.84773216  0.81977506  0.11149370  1  0  -0.130257  0  3.747939  0  0  -0.150552  0  3.998691  0  0  -0.153552  0  4.020768  0  0  -0.099136  -0.148143  0  3.983394  0
C  C55  1  0.45359397  0.11253919  0.59632047  1  0  -0.319679  0  3.689829  0  0  -0.361144  0  3.927158  0  0  -0.367126  0  3.933674  0  0  -0.168183  -0.357011  0  3.922685  0
C  C56  1  0.54640732  0.88745985  0.40367813  1  0  -0.319578  0  3.689956  0  0  -0.361137  0  3.927282  0  0  -0.367113  0  3.933798  0  0  -0.16821  -0.357003  0  3.922809  0
C  C57  1  0.28380887  0.39912638  0.69473924  1  0  -0.124505  0  3.760363  0  0  -0.144342  0  4.010739  0  0  -0.14709  0  4.0325  0  0  -0.097168  -0.142166  0  3.995352  0
C  C58  1  0.71618985  0.60087478  0.30525613  1  0  -0.124642  0  3.760387  0  0  -0.144482  0  4.010801  0  0  -0.147233  0  4.032563  0  0  -0.097187  -0.142301  0  3.995409  0
C  C59  1  0.35369068  0.18566314  0.67815630  1  0  0.116373  0  3.754502  0  0  0.135431  0  3.990858  0  0  0.135355  0  4.015945  0  0  -0.014207  0.135494  0  3.974013  0
C  C60  1  0.64631468  0.81433588  0.32184344  1  0  0.116258  0  3.75456  0  0  0.135438  0  3.990763  0  0  0.135362  0  4.015845  0  0  -0.014132  0.135499  0  3.973924  0
C  C61  1  0.17439108  0.32497229  0.83052709  1  0  0.118642  0  3.748251  0  0  0.137514  0  3.985385  0  0  0.137689  0  4.010957  0  0  -0.012633  0.137501  0  3.967768  0
C  C62  1  0.82560902  0.67502885  0.16946988  1  0  0.118736  0  3.748215  0  0  0.137569  0  3.985381  0  0  0.137745  0  4.010954  0  0  -0.012585  0.137555  0  3.967764  0
N  N63  1  0.37299562  0.61267587  0.13393046  1  0  -0.348721  0  3.272749  0  0  -0.269627  0  3.537006  0  0  -0.289343  0  3.556429  0  0  -0.328873  -0.255907  0  3.523391  0
N  N64  1  0.62699899  0.38732313  0.86607477  1  0  -0.348704  0  3.272745  0  0  -0.269603  0  3.536999  0  0  -0.289321  0  3.556425  0  0  -0.32888  -0.255883  0  3.523385  0
O  O65  1  0.95577130  0.25746142  0.15309650  1  0  -0.65478  0  2.018355  0  0  -0.575689  0  2.259958  0  0  -0.607127  0  2.248276  0  0  -0.318717  -0.554131  0  2.267058  0
O  O66  1  0.04423390  0.74253662  0.84689823  1  0  -0.654666  0  2.018268  0  0  -0.57567  0  2.259958  0  0  -0.607086  0  2.24825  0  0  -0.318727  -0.554112  0  2.267063  0
O  O67  1  0.16379453  0.97217018  0.29111095  1  0  -0.639044  0  2.025381  0  0  -0.577444  0  2.28308  0  0  -0.607553  0  2.271747  0  0  -0.3202  -0.556392  0  2.289968  0
O  O68  1  0.83620317  0.02783403  0.70888872  1  0  -0.639017  0  2.025559  0  0  -0.577417  0  2.283263  0  0  -0.607529  0  2.271931  0  0  -0.320171  -0.556355  0  2.290124  0
O  O69  1  0.39664918  0.66520448  0.80607742  1  0  -0.860268  0  1.841388  0  0  -0.797018  0  2.045379  0  0  -0.818975  0  2.009361  0  0  -0.592291  -0.78137  0  2.070425  0
O  O70  1  0.60335364  0.33479663  0.19392092  1  0  -0.86026  0  1.841367  0  0  -0.797025  0  2.045313  0  0  -0.818974  0  2.009322  0  0  -0.592282  -0.781377  0  2.070358  0
O  O71  1  0.32092756  0.17892408  0.39808720  1  0  -0.682793  0  2.049911  0  0  -0.602035  0  2.294493  0  0  -0.634215  0  2.282917  0  0  -0.322911  -0.579725  0  2.301565  0
O  O72  1  0.67906908  0.82108321  0.60191402  1  0  -0.682704  0  2.049803  0  0  -0.602004  0  2.29436  0  0  -0.634184  0  2.282785  0  0  -0.322858  -0.579687  0  2.301428  0
O  O73  1  0.23647864  0.34523492  0.09765280  1  0  -0.67578  0  1.988068  0  0  -0.606164  0  2.248729  0  0  -0.636279  0  2.236935  0  0  -0.327549  -0.585148  0  2.255708  0
O  O74  1  0.76352786  0.65476206  0.90234491  1  0  -0.675764  0  1.988149  0  0  -0.606159  0  2.248797  0  0  -0.636287  0  2.237025  0  0  -0.327569  -0.585142  0  2.255779  0
O  O75  1  0.07113657  0.77031195  0.49328081  1  0  -0.642674  0  1.983405  0  0  -0.578215  0  2.232605  0  0  -0.608309  0  2.220791  0  0  -0.324161  -0.557223  0  2.239822  0
O  O76  1  0.92885815  0.22968917  0.50671890  1  0  -0.64273  0  1.983122  0  0  -0.57828  0  2.232366  0  0  -0.608373  0  2.220551  0  0  -0.324202  -0.557286  0  2.239579  0
O  O77  1  0.22426282  0.97556373  0.59108052  1  0  -0.661349  0  2.044097  0  0  -0.597046  0  2.303013  0  0  -0.627082  0  2.2924  0  0  -0.323924  -0.576317  0  2.309641  0
O  O78  1  0.77573646  0.02444361  0.40891567  1  0  -0.661351  0  2.044143  0  0  -0.597085  0  2.30302  0  0  -0.62712  0  2.292402  0  0  -0.323965  -0.576356  0  2.309648  0
