# generated using pymatgen
data_RbH2C6N3O8
_symmetry_space_group_name_H-M   'P 1'
_cell_length_a   4.54669517
_cell_length_b   10.96639868
_cell_length_c   19.64427093
_cell_angle_alpha   89.99996976
_cell_angle_beta   91.26111099
_cell_angle_gamma   89.99996037
_symmetry_Int_Tables_number   1
_chemical_formula_structural   RbH2C6N3O8
_chemical_formula_sum   'Rb4 H8 C24 N12 O32'
_cell_volume   979.24322538
_cell_formula_units_Z   4
loop_
 _symmetry_equiv_pos_site_id
 _symmetry_equiv_pos_as_xyz
  1  'x, y, z'
loop_
 _atom_site_type_symbol
 _atom_site_label
 _atom_site_symmetry_multiplicity
 _atom_site_fract_x
 _atom_site_fract_y
 _atom_site_fract_z
 _atom_site_occupancy
 _atom_site_hle17_bader_spin_density
 _atom_site_hle17_ddec_charge
 _atom_site_hle17_ddec_spin_density
 _atom_site_hle17_ddec_sum_bond_order
 _atom_site_hle17_magmom
 _atom_site_hse06_10hf_bader_spin_density
 _atom_site_hse06_10hf_ddec_charge
 _atom_site_hse06_10hf_ddec_spin_density
 _atom_site_hse06_10hf_ddec_sum_bond_order
 _atom_site_hse06_10hf_magmom
 _atom_site_hse06_bader_spin_density
 _atom_site_hse06_ddec_charge
 _atom_site_hse06_ddec_spin_density
 _atom_site_hse06_ddec_sum_bond_order
 _atom_site_hse06_magmom
 _atom_site_pbe_bader_spin_density
 _atom_site_pbe_cm5_charge
 _atom_site_pbe_ddec_charge
 _atom_site_pbe_ddec_spin_density
 _atom_site_pbe_ddec_sum_bond_order
 _atom_site_pbe_magmom
Rb  Rb0  1  0.91484501  0.85995213  0.13282805  1  0  0.950784  0  0.467896  0  0  0.895812  0  0.686638  0  0  0.912388  0  0.660698  0  0  0.798957  0.88352  0  0.705175  0
Rb  Rb1  1  0.58515529  0.35995291  0.36717236  1  0  0.950765  0  0.467926  0  0  0.895829  0  0.686611  0  0  0.912406  0  0.660673  0  0  0.798969  0.883552  0  0.705146  0
Rb  Rb2  1  0.08515555  0.14004738  0.86717200  1  0  0.950796  0  0.467887  0  0  0.895836  0  0.686611  0  0  0.912411  0  0.660671  0  0  0.798971  0.883552  0  0.705147  0
Rb  Rb3  1  0.41484307  0.64004841  0.63282769  1  0  0.950786  0  0.467903  0  0  0.895839  0  0.686618  0  0  0.912416  0  0.660678  0  0  0.798962  0.883547  0  0.705153  0
H  H4  1  0.09748605  0.88219730  0.48179691  1  0  0.146471  0  0.939134  0  0  0.147147  0  1.010905  0  0  0.1518  0  1.004687  0  0  0.129153  0.14375  0  1.015282  0
H  H5  1  0.40251689  0.38219742  0.01820276  1  0  0.146469  0  0.939136  0  0  0.147145  0  1.010911  0  0  0.151798  0  1.004692  0  0  0.129173  0.14375  0  1.01529  0
H  H6  1  0.90251672  0.11780402  0.51820315  1  0  0.146478  0  0.939146  0  0  0.147158  0  1.010907  0  0  0.151809  0  1.004693  0  0  0.129175  0.143762  0  1.015286  0
H  H7  1  0.59748148  0.61780300  0.98179728  1  0  0.146452  0  0.939156  0  0  0.147125  0  1.010934  0  0  0.151779  0  1.004715  0  0  0.129171  0.143728  0  1.015315  0
H  H8  1  0.67506590  0.96231750  0.30682722  1  0  0.384957  0  0.895119  0  0  0.35177  0  0.981287  0  0  0.364555  0  0.967108  0  0  0.313124  0.342767  0  0.991134  0
H  H9  1  0.82493644  0.46231838  0.19317316  1  0  0.384902  0  0.895202  0  0  0.35173  0  0.981347  0  0  0.364515  0  0.967167  0  0  0.313108  0.342727  0  0.991197  0
H  H10  1  0.32493467  0.03768200  0.69317283  1  0  0.384917  0  0.895168  0  0  0.351742  0  0.981324  0  0  0.364526  0  0.967145  0  0  0.313104  0.342738  0  0.991171  0
H  H11  1  0.17506632  0.53768112  0.80682792  1  0  0.384986  0  0.895191  0  0  0.351821  0  0.981304  0  0  0.364604  0  0.967128  0  0  0.313139  0.342817  0  0.991156  0
C  C12  1  0.42796181  0.83089334  0.32842298  1  0  0.329174  0  3.797331  0  0  0.299345  0  4.082161  0  0  0.322999  0  4.092461  0  0  0.1217  0.283831  0  4.074709  0
C  C13  1  0.07204122  0.33089340  0.17157671  1  0  0.329217  0  3.797213  0  0  0.299347  0  4.082069  0  0  0.322995  0  4.092371  0  0  0.121674  0.283843  0  4.074609  0
C  C14  1  0.57204097  0.16910708  0.67157607  1  0  0.329225  0  3.79739  0  0  0.299378  0  4.082256  0  0  0.323021  0  4.092564  0  0  0.12167  0.283877  0  4.074789  0
C  C15  1  0.92795934  0.66910701  0.82842385  1  0  0.329324  0  3.797342  0  0  0.299456  0  4.0822  0  0  0.323105  0  4.092498  0  0  0.121712  0.283953  0  4.074735  0
C  C16  1  0.31692291  0.71331328  0.31627737  1  0  -0.173681  0  3.58119  0  0  -0.197124  0  3.850006  0  0  -0.214583  0  3.868689  0  0  0.050285  -0.185864  0  3.837601  0
C  C17  1  0.18307590  0.21331148  0.18372335  1  0  -0.173635  0  3.581121  0  0  -0.197066  0  3.849957  0  0  -0.214525  0  3.868641  0  0  0.050346  -0.185812  0  3.837555  0
C  C18  1  0.68307325  0.28668439  0.68372266  1  0  -0.173635  0  3.581191  0  0  -0.197067  0  3.850013  0  0  -0.214525  0  3.868697  0  0  0.050359  -0.185808  0  3.837589  0
C  C19  1  0.81692466  0.78668437  0.81627721  1  0  -0.173629  0  3.581141  0  0  -0.197052  0  3.849971  0  0  -0.214508  0  3.868655  0  0  0.05035  -0.185791  0  3.837544  0
C  C20  1  0.13047153  0.64667063  0.36321810  1  0  0.367437  0  3.886982  0  0  0.345293  0  4.165078  0  0  0.370826  0  4.172139  0  0  0.126889  0.328426  0  4.159465  0
C  C21  1  0.36952741  0.14667064  0.13678213  1  0  0.367416  0  3.886949  0  0  0.345259  0  4.165085  0  0  0.370792  0  4.172145  0  0  0.126882  0.328389  0  4.159472  0
C  C22  1  0.86953124  0.35332979  0.63678248  1  0  0.367299  0  3.887043  0  0  0.345139  0  4.165183  0  0  0.370667  0  4.172252  0  0  0.126818  0.328271  0  4.159571  0
C  C23  1  0.63047096  0.85332886  0.86321791  1  0  0.367243  0  3.886953  0  0  0.345099  0  4.165097  0  0  0.370631  0  4.172154  0  0  0.126807  0.328229  0  4.159482  0
C  C24  1  0.05413765  0.71865140  0.42328933  1  0  -0.059316  0  3.629443  0  0  -0.067571  0  3.890422  0  0  -0.081781  0  3.910579  0  0  0.064884  -0.058591  0  3.876845  0
C  C25  1  0.44586117  0.21865144  0.07671037  1  0  -0.059366  0  3.629586  0  0  -0.067575  0  3.890541  0  0  -0.081789  0  3.910708  0  0  0.06487  -0.058594  0  3.876964  0
C  C26  1  0.94586072  0.28134902  0.57671071  1  0  -0.059261  0  3.62949  0  0  -0.067486  0  3.890438  0  0  -0.081684  0  3.910576  0  0  0.06492  -0.058509  0  3.876865  0
C  C27  1  0.55413500  0.78134806  0.92328966  1  0  -0.059369  0  3.629556  0  0  -0.067585  0  3.890511  0  0  -0.081818  0  3.910714  0  0  0.064848  -0.058603  0  3.876935  0
C  C28  1  0.15690858  0.83461105  0.43544816  1  0  -0.055799  0  3.719533  0  0  -0.104738  0  4.00152  0  0  -0.090456  0  4.01259  0  0  -0.059621  -0.113255  0  3.993399  0
C  C29  1  0.34309444  0.33461022  0.06455204  1  0  -0.055695  0  3.719535  0  0  -0.104662  0  4.001535  0  0  -0.090383  0  4.012601  0  0  -0.059617  -0.113179  0  3.993414  0
C  C30  1  0.84309419  0.16538937  0.56455191  1  0  -0.055798  0  3.719546  0  0  -0.104737  0  4.001538  0  0  -0.09046  0  4.012611  0  0  -0.059654  -0.113254  0  3.993417  0
C  C31  1  0.65690613  0.66538928  0.93544801  1  0  -0.055658  0  3.719575  0  0  -0.104606  0  4.001571  0  0  -0.090324  0  4.012633  0  0  -0.059604  -0.113129  0  3.993459  0
C  C32  1  0.33777069  0.89285897  0.38881835  1  0  -0.062514  0  3.70048  0  0  -0.085485  0  3.967328  0  0  -0.103372  0  3.992483  0  0  0.060033  -0.075116  0  3.952153  0
C  C33  1  0.16222782  0.39285998  0.11118231  1  0  -0.062551  0  3.700492  0  0  -0.085546  0  3.967384  0  0  -0.103421  0  3.992521  0  0  0.060044  -0.075176  0  3.952206  0
C  C34  1  0.66222987  0.10714053  0.61118221  1  0  -0.062487  0  3.700431  0  0  -0.085482  0  3.967352  0  0  -0.103359  0  3.992494  0  0  0.060059  -0.075115  0  3.952171  0
C  C35  1  0.83776834  0.60714043  0.88881822  1  0  -0.062525  0  3.700439  0  0  -0.085547  0  3.967372  0  0  -0.103422  0  3.992507  0  0  0.060037  -0.075175  0  3.952188  0
N  N36  1  0.39298812  0.65372674  0.25396935  1  0  0.52126  0  3.930107  0  0  0.566487  0  4.200305  0  0  0.590222  0  4.207357  0  0  0.046017  0.550474  0  4.195735  0
N  N37  1  0.10701081  0.15372581  0.24603037  1  0  0.521214  0  3.93005  0  0  0.566418  0  4.20027  0  0  0.590157  0  4.207315  0  0  0.045951  0.550403  0  4.195703  0
N  N38  1  0.60701026  0.34627459  0.74603019  1  0  0.521247  0  3.930015  0  0  0.566489  0  4.200193  0  0  0.590231  0  4.207228  0  0  0.045967  0.550475  0  4.195629  0
N  N39  1  0.89298756  0.84627460  0.75396967  1  0  0.521235  0  3.929994  0  0  0.566422  0  4.200228  0  0  0.590161  0  4.207269  0  0  0.045939  0.550409  0  4.195657  0
N  N40  1  0.87697254  0.66359398  0.47492958  1  0  0.541056  0  3.887701  0  0  0.572965  0  4.178062  0  0  0.596373  0  4.185383  0  0  0.046111  0.557195  0  4.1732  0
N  N41  1  0.62302591  0.16359326  0.02507037  1  0  0.541039  0  3.887629  0  0  0.572942  0  4.177997  0  0  0.59635  0  4.185318  0  0  0.046085  0.557172  0  4.173135  0
N  N42  1  0.12302583  0.33640735  0.52506996  1  0  0.541038  0  3.887669  0  0  0.572938  0  4.178031  0  0  0.596346  0  4.185354  0  0  0.046096  0.557169  0  4.173173  0
N  N43  1  0.37697026  0.83640624  0.97492966  1  0  0.541032  0  3.887602  0  0  0.572945  0  4.177965  0  0  0.596354  0  4.185278  0  0  0.046139  0.557174  0  4.173105  0
N  N44  1  0.43126328  0.01342074  0.40297064  1  0  0.483174  0  3.943618  0  0  0.539711  0  4.201144  0  0  0.563333  0  4.211199  0  0  0.033083  0.524119  0  4.194127  0
N  N45  1  0.06874029  0.51342009  0.09702864  1  0  0.483173  0  3.943477  0  0  0.539673  0  4.20103  0  0  0.563291  0  4.211086  0  0  0.03306  0.52408  0  4.194015  0
N  N46  1  0.56874389  0.98657967  0.59702894  1  0  0.48318  0  3.943627  0  0  0.53969  0  4.201186  0  0  0.563312  0  4.21124  0  0  0.033079  0.524097  0  4.194168  0
N  N47  1  0.93125808  0.48657941  0.90297089  1  0  0.483216  0  3.943709  0  0  0.539727  0  4.20125  0  0  0.563349  0  4.211306  0  0  0.033065  0.524133  0  4.19424  0
O  O48  1  0.62057242  0.87957568  0.28671004  1  0  -0.471639  0  2.199547  0  0  -0.433189  0  2.436086  0  0  -0.453909  0  2.426647  0  0  -0.324304  -0.41849  0  2.442051  0
O  O49  1  0.87942345  0.37957744  0.21329085  1  0  -0.471632  0  2.199541  0  0  -0.433214  0  2.436053  0  0  -0.453932  0  2.426617  0  0  -0.324332  -0.418515  0  2.442015  0
O  O50  1  0.37942373  0.12042200  0.71329101  1  0  -0.471671  0  2.199489  0  0  -0.433229  0  2.436034  0  0  -0.453948  0  2.426598  0  0  -0.324315  -0.418534  0  2.441992  0
O  O51  1  0.12057711  0.62042207  0.78670972  1  0  -0.471775  0  2.199618  0  0  -0.433341  0  2.436128  0  0  -0.45406  0  2.426689  0  0  -0.324375  -0.418647  0  2.442091  0
O  O52  1  0.38854896  0.71460637  0.20005960  1  0  -0.406002  0  1.783999  0  0  -0.403342  0  2.009737  0  0  -0.415507  0  2.004337  0  0  -0.207564  -0.395113  0  2.013535  0
O  O53  1  0.11144986  0.21460539  0.29994010  1  0  -0.405774  0  1.784041  0  0  -0.403332  0  2.009738  0  0  -0.415499  0  2.004337  0  0  -0.207554  -0.395107  0  2.013541  0
O  O54  1  0.61144941  0.28539405  0.79994044  1  0  -0.406  0  1.783977  0  0  -0.403372  0  2.009697  0  0  -0.415541  0  2.004293  0  0  -0.207564  -0.395147  0  2.0135  0
O  O55  1  0.88855070  0.78539411  0.70005996  1  0  -0.4058  0  1.783994  0  0  -0.403332  0  2.009701  0  0  -0.415501  0  2.004299  0  0  -0.207554  -0.395107  0  2.013498  0
O  O56  1  0.45186826  0.54289272  0.25542042  1  0  -0.356891  0  1.802443  0  0  -0.340458  0  2.016722  0  0  -0.351239  0  2.011502  0  0  -0.155056  -0.333463  0  2.020744  0
O  O57  1  0.04813084  0.04289272  0.24457985  1  0  -0.357083  0  1.802322  0  0  -0.340443  0  2.016673  0  0  -0.351218  0  2.011433  0  0  -0.155032  -0.333434  0  2.02068  0
O  O58  1  0.54813011  0.45710679  0.74457912  1  0  -0.356892  0  1.802411  0  0  -0.340442  0  2.016691  0  0  -0.351228  0  2.011473  0  0  -0.155021  -0.333437  0  2.020701  0
O  O59  1  0.95186752  0.95710678  0.75542070  1  0  -0.357052  0  1.802366  0  0  -0.340411  0  2.016685  0  0  -0.351195  0  2.011464  0  0  -0.155012  -0.333418  0  2.020704  0
O  O60  1  0.04996942  0.53902272  0.35395218  1  0  -0.548164  0  2.020851  0  0  -0.530251  0  2.265652  0  0  -0.553256  0  2.26289  0  0  -0.378427  -0.513649  0  2.266628  0
O  O61  1  0.45003409  0.03902270  0.14604810  1  0  -0.548249  0  2.020793  0  0  -0.530242  0  2.265633  0  0  -0.553249  0  2.26287  0  0  -0.378421  -0.51364  0  2.266605  0
O  O62  1  0.95003993  0.46097587  0.64604945  1  0  -0.548135  0  2.020931  0  0  -0.530207  0  2.26578  0  0  -0.553212  0  2.263022  0  0  -0.378396  -0.513605  0  2.266749  0
O  O63  1  0.54996868  0.96097771  0.85395196  1  0  -0.548176  0  2.020872  0  0  -0.530187  0  2.265742  0  0  -0.553189  0  2.262977  0  0  -0.378393  -0.513585  0  2.266715  0
O  O64  1  0.67582980  0.59277861  0.45726931  1  0  -0.382171  0  1.779637  0  0  -0.373406  0  2.003898  0  0  -0.38436  0  2.000148  0  0  -0.149004  -0.366137  0  2.006512  0
O  O65  1  0.82416877  0.09277872  0.04273014  1  0  -0.382189  0  1.779595  0  0  -0.373356  0  2.003858  0  0  -0.38431  0  2.000106  0  0  -0.148969  -0.366087  0  2.006468  0
O  O66  1  0.32416857  0.40722181  0.54273022  1  0  -0.382174  0  1.7796  0  0  -0.373372  0  2.003867  0  0  -0.38433  0  2.000118  0  0  -0.148991  -0.366104  0  2.00648  0
O  O67  1  0.17582520  0.90722169  0.95726987  1  0  -0.382213  0  1.779543  0  0  -0.373396  0  2.003796  0  0  -0.384345  0  2.00004  0  0  -0.149011  -0.366127  0  2.006408  0
O  O68  1  0.93149864  0.69081893  0.53578415  1  0  -0.433047  0  1.794001  0  0  -0.42207  0  2.027088  0  0  -0.43551  0  2.021325  0  0  -0.216056  -0.41298  0  2.031049  0
O  O69  1  0.56850164  0.19081963  0.96421577  1  0  -0.433  0  1.793908  0  0  -0.422047  0  2.026999  0  0  -0.435486  0  2.021236  0  0  -0.21603  -0.412959  0  2.030964  0
O  O70  1  0.06849973  0.30918149  0.46421589  1  0  -0.433033  0  1.794004  0  0  -0.422089  0  2.027095  0  0  -0.435529  0  2.021333  0  0  -0.216061  -0.413003  0  2.031061  0
O  O71  1  0.43149893  0.80918170  0.03578429  1  0  -0.433008  0  1.793985  0  0  -0.422048  0  2.027079  0  0  -0.435485  0  2.021313  0  0  -0.216064  -0.412962  0  2.031044  0
O  O72  1  0.33075624  0.07027623  0.45184208  1  0  -0.351916  0  1.805545  0  0  -0.344796  0  2.015539  0  0  -0.357658  0  2.012134  0  0  -0.127065  -0.335657  0  2.017617  0
O  O73  1  0.16924284  0.57027559  0.04815613  1  0  -0.352006  0  1.80538  0  0  -0.344783  0  2.015326  0  0  -0.357645  0  2.011922  0  0  -0.127053  -0.335643  0  2.017404  0
O  O74  1  0.66925093  0.92972419  0.54815750  1  0  -0.352003  0  1.805514  0  0  -0.344805  0  2.015494  0  0  -0.357667  0  2.012088  0  0  -0.127047  -0.335668  0  2.017573  0
O  O75  1  0.83074894  0.42972300  0.95184234  1  0  -0.352033  0  1.805585  0  0  -0.344849  0  2.015556  0  0  -0.357713  0  2.012148  0  0  -0.127057  -0.335712  0  2.01764  0
O  O76  1  0.62254531  0.06170003  0.36452340  1  0  -0.423147  0  1.810301  0  0  -0.416104  0  2.027962  0  0  -0.430872  0  2.022145  0  0  -0.173145  -0.405777  0  2.03168  0
O  O77  1  0.87745772  0.56170107  0.13547610  1  0  -0.423033  0  1.810329  0  0  -0.416057  0  2.028012  0  0  -0.430826  0  2.022201  0  0  -0.173132  -0.405727  0  2.031728  0
O  O78  1  0.37745747  0.93829947  0.63547565  1  0  -0.423098  0  1.810362  0  0  -0.416103  0  2.02806  0  0  -0.430863  0  2.022221  0  0  -0.173165  -0.405774  0  2.031773  0
O  O79  1  0.12254065  0.43829934  0.86452395  1  0  -0.42304  0  1.810374  0  0  -0.416075  0  2.028059  0  0  -0.430832  0  2.02222  0  0  -0.17312  -0.405746  0  2.031778  0
