# generated using pymatgen
data_U3H16C20(NO3)6
_symmetry_space_group_name_H-M   'P 1'
_cell_length_a   6.12837790
_cell_length_b   12.90049138
_cell_length_c   18.34780000
_cell_angle_alpha   98.45211860
_cell_angle_beta   90.00000000
_cell_angle_gamma   90.00000000
_symmetry_Int_Tables_number   1
_chemical_formula_structural   U3H16C20(NO3)6
_chemical_formula_sum   'U6 H32 C40 N12 O36'
_cell_volume   1434.80582635
_cell_formula_units_Z   2
loop_
 _symmetry_equiv_pos_site_id
 _symmetry_equiv_pos_as_xyz
  1  'x, y, z'
loop_
 _atom_site_type_symbol
 _atom_site_label
 _atom_site_symmetry_multiplicity
 _atom_site_fract_x
 _atom_site_fract_y
 _atom_site_fract_z
 _atom_site_occupancy
 _atom_site_hle17_bader_spin_density
 _atom_site_hle17_ddec_charge
 _atom_site_hle17_ddec_spin_density
 _atom_site_hle17_ddec_sum_bond_order
 _atom_site_hle17_magmom
 _atom_site_hse06_10hf_bader_spin_density
 _atom_site_hse06_10hf_ddec_charge
 _atom_site_hse06_10hf_ddec_spin_density
 _atom_site_hse06_10hf_ddec_sum_bond_order
 _atom_site_hse06_10hf_magmom
 _atom_site_hse06_bader_spin_density
 _atom_site_hse06_ddec_charge
 _atom_site_hse06_ddec_spin_density
 _atom_site_hse06_ddec_sum_bond_order
 _atom_site_hse06_magmom
 _atom_site_pbe_bader_charge
 _atom_site_pbe_bader_spin_density
 _atom_site_pbe_cm5_charge
 _atom_site_pbe_ddec_charge
 _atom_site_pbe_ddec_spin_density
 _atom_site_pbe_ddec_sum_bond_order
 _atom_site_pbe_magmom
U  U0  1  0.58366016  0.37789628  0.93465693  1  0  2.507288  0  4.155492  0  0  2.571109  0  4.813668  0  0  2.682648  0  4.775509  0  2.914884  0  2.184856  2.491981  0  4.841205  0
U  U1  1  0.08365998  0.12209746  0.56534763  1  0  2.507428  0  4.155521  0  0  2.571187  0  4.813828  0  0  2.68278  0  4.775552  0  2.914862  0  2.184944  2.492111  0  4.841278  0
U  U2  1  0.41633040  0.62209278  0.06535235  1  0  2.507549  0  4.155171  0  0  2.571289  0  4.813576  0  0  2.682853  0  4.775323  0  2.914859  0  2.184979  2.492247  0  4.840975  0
U  U3  1  0.91633873  0.87789943  0.43465265  1  0  2.507351  0  4.155525  0  0  2.571103  0  4.81381  0  0  2.682686  0  4.775554  0  2.914852  0  2.184968  2.492056  0  4.841212  0
U  U4  1  0.50000996  0.50000080  0.49999711  1  0  2.441964  0  4.076071  0  0  2.50836  0  4.712077  0  0  2.611986  0  4.685728  0  2.901169  0  2.149038  2.436474  0  4.731069  0
U  U5  1  0.00000326  0.99999846  0.00000208  1  0  2.441764  0  4.076075  0  0  2.508168  0  4.712073  0  0  2.611754  0  4.685775  0  2.901064  0  2.148941  2.436241  0  4.731126  0
H  H6  1  0.15211529  0.07255662  0.78227026  1  0  0.151582  0  0.913327  0  0  0.161289  0  0.9729  0  0  0.1649  0  0.968955  0  0.193578  0  0.152787  0.158608  0  0.975928  0
H  H7  1  0.65211710  0.42744575  0.71772756  1  0  0.151595  0  0.913283  0  0  0.16132  0  0.972814  0  0  0.16493  0  0.968871  0  0.193362  0  0.152806  0.158638  0  0.975845  0
H  H8  1  0.84788505  0.92744576  0.21772949  1  0  0.151626  0  0.913303  0  0  0.161333  0  0.972853  0  0  0.164944  0  0.968907  0  0.193404  0  0.152812  0.158632  0  0.975908  0
H  H9  1  0.34788488  0.57255506  0.28226877  1  0  0.151605  0  0.913317  0  0  0.161308  0  0.972867  0  0  0.16492  0  0.96892  0  0.193565  0  0.1528  0.15861  0  0.975918  0
H  H10  1  0.03539436  0.89280807  0.76951890  1  0  0.11313  0  0.958899  0  0  0.12135  0  1.022774  0  0  0.124078  0  1.022728  0  0.099976  0  0.112548  0.119292  0  1.023137  0
H  H11  1  0.53539290  0.60719432  0.73048115  1  0  0.11314  0  0.958848  0  0  0.121371  0  1.022705  0  0  0.124099  0  1.022659  0  0.10001  0  0.112546  0.119312  0  1.023069  0
H  H12  1  0.96461251  0.10719430  0.23048031  1  0  0.113141  0  0.958812  0  0  0.121361  0  1.022688  0  0  0.124089  0  1.022641  0  0.100004  0  0.112544  0.119302  0  1.023052  0
H  H13  1  0.46460908  0.39280649  0.26952007  1  0  0.113129  0  0.958818  0  0  0.12133  0  1.022717  0  0  0.124058  0  1.022672  0  0.099997  0  0.112536  0.119271  0  1.02308  0
H  H14  1  0.45358495  0.03102807  0.69232409  1  0  0.114084  0  0.983141  0  0  0.120093  0  1.052546  0  0  0.123503  0  1.050114  0  0.12339  0  0.113857  0.117623  0  1.054537  0
H  H15  1  0.95358676  0.46897116  0.80767395  1  0  0.114095  0  0.983147  0  0  0.120083  0  1.052595  0  0  0.123493  0  1.050164  0  0.123421  0  0.113847  0.117614  0  1.054586  0
H  H16  1  0.54641376  0.96897195  0.30767651  1  0  0.11409  0  0.983157  0  0  0.120091  0  1.052579  0  0  0.123501  0  1.050147  0  0.123406  0  0.113855  0.117621  0  1.054569  0
H  H17  1  0.04641522  0.53102809  0.19232275  1  0  0.114014  0  0.983193  0  0  0.120052  0  1.052577  0  0  0.123461  0  1.050146  0  0.123388  0  0.113842  0.117583  0  1.054567  0
H  H18  1  0.36615235  0.86335205  0.61308854  1  0  0.118941  0  0.929425  0  0  0.130507  0  0.984076  0  0  0.134383  0  0.98103  0  0.147582  0  0.123007  0.12762  0  0.986561  0
H  H19  1  0.86615253  0.63664563  0.88691158  1  0  0.118956  0  0.929419  0  0  0.130531  0  0.984055  0  0  0.134408  0  0.98101  0  0.147584  0  0.122996  0.127644  0  0.986542  0
H  H20  1  0.63384636  0.13664640  0.38691354  1  0  0.118964  0  0.929371  0  0  0.130532  0  0.984014  0  0  0.134411  0  0.980966  0  0.147671  0  0.123017  0.127646  0  0.9865  0
H  H21  1  0.13384618  0.36335204  0.11308769  1  0  0.118931  0  0.92944  0  0  0.130506  0  0.984078  0  0  0.134382  0  0.981032  0  0.147574  0  0.123006  0.127619  0  0.986565  0
H  H22  1  0.94589957  0.72387031  0.68970871  1  0  0.107075  0  0.935735  0  0  0.117323  0  0.993589  0  0  0.120138  0  0.992828  0  0.099778  0  0.11158  0.115278  0  0.994175  0
H  H23  1  0.44589776  0.77613051  0.81029282  1  0  0.107081  0  0.935699  0  0  0.117313  0  0.993581  0  0  0.120126  0  0.992823  0  0.099733  0  0.111562  0.115269  0  0.994167  0
H  H24  1  0.05410404  0.27613050  0.31029198  1  0  0.107101  0  0.935675  0  0  0.117329  0  0.993564  0  0  0.120145  0  0.992802  0  0.099739  0  0.111574  0.115285  0  0.994149  0
H  H25  1  0.55410258  0.22386951  0.18970941  1  0  0.107081  0  0.935709  0  0  0.117311  0  0.993594  0  0  0.120126  0  0.992833  0  0.099775  0  0.111567  0.115266  0  0.99418  0
H  H26  1  0.87385603  0.34127433  0.52073805  1  0  0.450113  0  0.828855  0  0  0.430576  0  0.876761  0  0  0.441884  0  0.860021  0  0.639898  0  0.320821  0.422559  0  0.888662  0
H  H27  1  0.37385749  0.15872647  0.97926342  1  0  0.450036  0  0.828972  0  0  0.430517  0  0.87684  0  0  0.441824  0  0.860104  0  0.639875  0  0.320823  0.4225  0  0.888741  0
H  H28  1  0.12614105  0.65872805  0.47926279  1  0  0.450044  0  0.82896  0  0  0.430517  0  0.876846  0  0  0.441824  0  0.860108  0  0.639858  0  0.32082  0.4225  0  0.888747  0
H  H29  1  0.62614122  0.84127199  0.02073757  1  0  0.450034  0  0.828985  0  0  0.430505  0  0.876869  0  0  0.441813  0  0.860131  0  0.639848  0  0.320805  0.422487  0  0.888772  0
H  H30  1  0.95508471  0.44663953  0.56588070  1  0  0.453226  0  0.809471  0  0  0.435181  0  0.861638  0  0  0.445856  0  0.845816  0  0.646694  0  0.327535  0.427617  0  0.87288  0
H  H31  1  0.45508617  0.05336205  0.93411976  1  0  0.453236  0  0.809484  0  0  0.435174  0  0.861656  0  0  0.445849  0  0.845834  0  0.646714  0  0.327534  0.42761  0  0.872898  0
H  H32  1  0.04491237  0.55336363  0.43411804  1  0  0.453273  0  0.809433  0  0  0.435211  0  0.8616  0  0  0.445884  0  0.845779  0  0.646723  0  0.327549  0.427648  0  0.872841  0
H  H33  1  0.54491418  0.94663641  0.06588177  1  0  0.45324  0  0.809459  0  0  0.435172  0  0.861659  0  0  0.445847  0  0.845837  0  0.646729  0  0.327537  0.427608  0  0.872902  0
H  H34  1  0.84250190  0.55305486  0.02946105  1  0  0.440381  0  0.857433  0  0  0.423386  0  0.901795  0  0  0.437132  0  0.882159  0  0.644736  0  0.305954  0.413446  0  0.915909  0
H  H35  1  0.34250172  0.94694675  0.47053947  1  0  0.440426  0  0.857383  0  0  0.423417  0  0.901773  0  0  0.437164  0  0.882134  0  0.644756  0  0.305937  0.413476  0  0.915889  0
H  H36  1  0.15749681  0.44694595  0.97054017  1  0  0.440375  0  0.85745  0  0  0.423364  0  0.901844  0  0  0.437112  0  0.882206  0  0.644752  0  0.305919  0.413423  0  0.915961  0
H  H37  1  0.65749209  0.05305563  0.52945920  1  0  0.440367  0  0.857465  0  0  0.423367  0  0.901833  0  0  0.437114  0  0.882198  0  0.644705  0  0.30595  0.413426  0  0.915948  0
C  C38  1  0.94984678  0.20543589  0.84009077  1  0  -0.015005  0  3.783186  0  0  -0.016199  0  4.058513  0  0  -0.023728  0  4.076984  0  0.484618  0  0.103536  -0.011588  0  4.04615  0
C  C39  1  0.44984824  0.29456647  0.65990814  1  0  -0.014965  0  3.783248  0  0  -0.016166  0  4.058576  0  0  -0.023697  0  4.077052  0  0.48459  0  0.103548  -0.011553  0  4.046211  0
C  C40  1  0.05015193  0.79456492  0.15990991  1  0  -0.014949  0  3.783174  0  0  -0.016116  0  4.058497  0  0  -0.023647  0  4.076969  0  0.484605  0  0.103581  -0.011504  0  4.046132  0
C  C41  1  0.55015047  0.70543591  0.34008998  1  0  -0.014867  0  3.783026  0  0  -0.016043  0  4.05838  0  0  -0.023574  0  4.076853  0  0.48461  0  0.103604  -0.011434  0  4.046015  0
C  C42  1  0.99850729  0.11068871  0.79781459  1  0  0.04553  0  3.516946  0  0  -0.02736  0  3.771612  0  0  -0.017737  0  3.779673  0  0.415124  0  0.080993  -0.033367  0  3.766189  0
C  C43  1  0.49850712  0.38931208  0.70218416  1  0  0.045487  0  3.51693  0  0  -0.027368  0  3.771616  0  0  -0.017746  0  3.779683  0  0.41535  0  0.080949  -0.033374  0  3.766192  0
C  C44  1  0.00149469  0.88931288  0.20218509  1  0  0.045434  0  3.516996  0  0  -0.027421  0  3.771679  0  0  -0.017796  0  3.779741  0  0.415301  0  0.080949  -0.033408  0  3.766255  0
C  C45  1  0.50149159  0.61068794  0.29781426  1  0  0.045443  0  3.516978  0  0  -0.027409  0  3.771597  0  0  -0.017783  0  3.779653  0  0.415109  0  0.080941  -0.033398  0  3.766175  0
C  C46  1  0.08117319  0.28846791  0.88182936  1  0  0.700835  0  3.857318  0  0  0.66196  0  4.146415  0  0  0.702237  0  4.132683  0  1.599033  0  0.259524  0.634355  0  4.154907  0
C  C47  1  0.58117010  0.21153132  0.61816977  1  0  0.70089  0  3.857483  0  0  0.662013  0  4.14658  0  0  0.702289  0  4.132846  0  1.599148  0  0.25954  0.634409  0  4.155073  0
C  C48  1  0.91882715  0.71153134  0.11817171  1  0  0.700851  0  3.857265  0  0  0.661908  0  4.14646  0  0  0.702182  0  4.132726  0  1.599046  0  0.259487  0.634305  0  4.154958  0
C  C49  1  0.41882861  0.78846870  0.38182920  1  0  0.700867  0  3.857204  0  0  0.66188  0  4.146471  0  0  0.702154  0  4.13274  0  1.599036  0  0.259478  0.63428  0  4.154963  0
C  C50  1  0.89030084  0.88590232  0.73484693  1  0  -0.130638  0  3.701532  0  0  -0.150712  0  3.95604  0  0  -0.156368  0  3.977791  0  0.012769  0  -0.075744  -0.146887  0  3.941331  0
C  C51  1  0.39029904  0.61409928  0.76515359  1  0  -0.130684  0  3.701594  0  0  -0.15077  0  3.956093  0  0  -0.156426  0  3.977843  0  0.012715  0  -0.075761  -0.146945  0  3.941384  0
C  C52  1  0.10970440  0.11409849  0.26515320  1  0  -0.13064  0  3.701469  0  0  -0.150727  0  3.955988  0  0  -0.156384  0  3.977739  0  0.012753  0  -0.075759  -0.146902  0  3.941277  0
C  C53  1  0.60970294  0.38590231  0.23484663  1  0  -0.130592  0  3.701477  0  0  -0.15065  0  3.955984  0  0  -0.15631  0  3.977742  0  0.012758  0  -0.075705  -0.146825  0  3.941274  0
C  C54  1  0.75034700  0.97137549  0.73424959  1  0  0.183074  0  3.749469  0  0  0.159553  0  3.997706  0  0  0.164405  0  4.019957  0  0.27027  0  0.115233  0.156455  0  3.982498  0
C  C55  1  0.25034683  0.52862612  0.76574930  1  0  0.183133  0  3.749317  0  0  0.159659  0  3.997536  0  0  0.164514  0  4.019787  0  0.270314  0  0.115269  0.156561  0  3.982329  0
C  C56  1  0.24965497  0.02862532  0.26575000  1  0  0.183111  0  3.749329  0  0  0.159634  0  3.997571  0  0  0.164487  0  4.01982  0  0.270309  0  0.115282  0.156537  0  3.982363  0
C  C57  1  0.74965351  0.47137547  0.23424929  1  0  0.183055  0  3.749444  0  0  0.159533  0  3.997694  0  0  0.164384  0  4.019944  0  0.27032  0  0.115209  0.156434  0  3.982486  0
C  C58  1  0.56047784  0.96384985  0.69181945  1  0  -0.132775  0  3.712161  0  0  -0.158908  0  3.974012  0  0  -0.163439  0  3.993397  0  -0.012385  0  -0.076778  -0.155989  0  3.961034  0
C  C59  1  0.06047604  0.53615098  0.80818045  1  0  -0.132774  0  3.712096  0  0  -0.158914  0  3.973945  0  0  -0.163449  0  3.993334  0  -0.012369  0  -0.076775  -0.155997  0  3.960968  0
C  C60  1  0.43952414  0.03615018  0.30818170  1  0  -0.132765  0  3.712245  0  0  -0.158909  0  3.974106  0  0  -0.163441  0  3.993492  0  -0.012398  0  -0.076778  -0.155991  0  3.961127  0
C  C61  1  0.93952431  0.46384905  0.19181798  1  0  -0.132698  0  3.712225  0  0  -0.158851  0  3.974066  0  0  -0.163381  0  3.993452  0  -0.012375  0  -0.076721  -0.155933  0  3.961088  0
C  C62  1  0.60279573  0.68572098  0.59669718  1  0  0.627972  0  3.898115  0  0  0.587798  0  4.204198  0  0  0.625512  0  4.196246  0  1.506278  0  0.20781  0.562214  0  4.208428  0
C  C63  1  0.10279882  0.81427906  0.90330427  1  0  0.628232  0  3.897863  0  0  0.587985  0  4.204052  0  0  0.625702  0  4.196084  0  1.506563  0  0.207835  0.562401  0  4.208285  0
C  C64  1  0.39719809  0.31427905  0.40330560  1  0  0.628243  0  3.897894  0  0  0.588038  0  4.204011  0  0  0.625753  0  4.196048  0  1.506589  0  0.207794  0.562453  0  4.208248  0
C  C65  1  0.89720316  0.18571940  0.09669726  1  0  0.62803  0  3.898054  0  0  0.587845  0  4.204165  0  0  0.62556  0  4.196205  0  1.50628  0  0.207833  0.562262  0  4.208394  0
C  C66  1  0.65231617  0.78404172  0.64628083  1  0  -0.062755  0  3.75781  0  0  -0.039523  0  3.984068  0  0  -0.048745  0  4.006317  0  -0.06852  0  -0.006031  -0.033634  0  3.969063  0
C  C67  1  0.15231437  0.71595675  0.85372045  1  0  -0.062749  0  3.757748  0  0  -0.039481  0  3.984003  0  0  -0.048704  0  4.006251  0  -0.068591  0  -0.006002  -0.033591  0  3.968997  0
C  C68  1  0.34768580  0.21595674  0.35372070  1  0  -0.062801  0  3.757838  0  0  -0.039551  0  3.984088  0  0  -0.048771  0  4.006333  0  -0.068646  0  -0.005983  -0.033661  0  3.969083  0
C  C69  1  0.84768598  0.28404092  0.14628045  1  0  -0.062768  0  3.757856  0  0  -0.039525  0  3.984111  0  0  -0.048749  0  4.006358  0  -0.068659  0  -0.005994  -0.033638  0  3.969108  0
C  C70  1  0.51196092  0.87000938  0.64746614  1  0  -0.029012  0  3.677368  0  0  -0.05023  0  3.918012  0  0  -0.047483  0  3.935212  0  0.006317  0  -0.059132  -0.051869  0  3.906568  0
C  C71  1  0.01196075  0.62998988  0.85253414  1  0  -0.029053  0  3.677482  0  0  -0.050281  0  3.918127  0  0  -0.047535  0  3.935329  0  0.006298  0  -0.059144  -0.051921  0  3.906684  0
C  C72  1  0.48803779  0.12998908  0.35253540  1  0  -0.02904  0  3.677581  0  0  -0.050265  0  3.91823  0  0  -0.047518  0  3.935426  0  0.006277  0  -0.059165  -0.051905  0  3.906786  0
C  C73  1  0.98803959  0.37000858  0.14746521  1  0  -0.029015  0  3.677525  0  0  -0.050239  0  3.918178  0  0  -0.047491  0  3.935375  0  0.006376  0  -0.059171  -0.051878  0  3.906736  0
C  C74  1  0.83956474  0.79183459  0.69071322  1  0  -0.034815  0  3.693227  0  0  -0.056511  0  3.935083  0  0  -0.054907  0  3.955021  0  0.030224  0  -0.065432  -0.05716  0  3.921384  0
C  C75  1  0.33956294  0.70816623  0.80928777  1  0  -0.034872  0  3.693218  0  0  -0.056559  0  3.935089  0  0  -0.054957  0  3.955036  0  0.030292  0  -0.065442  -0.057207  0  3.92139  0
C  C76  1  0.16043723  0.20816622  0.30928747  1  0  -0.034922  0  3.6932  0  0  -0.056609  0  3.935085  0  0  -0.055007  0  3.955027  0  0.030288  0  -0.065489  -0.057257  0  3.921385  0
C  C77  1  0.66043741  0.29183301  0.19071330  1  0  -0.034868  0  3.69327  0  0  -0.056543  0  3.935122  0  0  -0.054941  0  3.955064  0  0.030252  0  -0.065448  -0.057191  0  3.921425  0
N  N78  1  0.63520561  0.13432359  0.80475522  1  0  -0.023789  0  2.806981  0  0  -0.038766  0  3.088374  0  0  -0.033752  0  3.096991  0  -0.060336  0  -0.052271  -0.041838  0  3.082336  0
N  N79  1  0.13520707  0.36567721  0.69524407  1  0  -0.023784  0  2.807021  0  0  -0.038726  0  3.088427  0  0  -0.033711  0  3.097044  0  -0.060315  0  -0.05226  -0.041797  0  3.08239  0
N  N80  1  0.36479310  0.86567644  0.19524484  1  0  -0.023779  0  2.806962  0  0  -0.038733  0  3.088369  0  0  -0.033719  0  3.096983  0  -0.060741  0  -0.052265  -0.041804  0  3.082334  0
N  N81  1  0.86479328  0.63432360  0.30475498  1  0  -0.023738  0  2.806991  0  0  -0.038728  0  3.088392  0  0  -0.033715  0  3.097009  0  -0.060708  0  -0.052272  -0.041799  0  3.082356  0
N  N82  1  0.80063927  0.06932317  0.77728704  1  0  0.036509  0  3.544648  0  0  0.154502  0  3.719792  0  0  0.147659  0  3.736038  0  -0.822754  0  -0.091791  0.15892  0  3.708602  0
N  N83  1  0.30064073  0.43067919  0.72271187  1  0  0.036558  0  3.544445  0  0  0.154468  0  3.719659  0  0  0.147623  0  3.735904  0  -0.822754  0  -0.091813  0.158887  0  3.708469  0
N  N84  1  0.19936107  0.93067842  0.22271318  1  0  0.036617  0  3.544476  0  0  0.15452  0  3.719715  0  0  0.147677  0  3.735959  0  -0.822372  0  -0.091792  0.15894  0  3.70852  0
N  N85  1  0.69936125  0.56932319  0.27728680  1  0  0.036508  0  3.544666  0  0  0.154507  0  3.719792  0  0  0.147664  0  3.736039  0  -0.82234  0  -0.091764  0.158927  0  3.708597  0
N  N86  1  0.72775212  0.21565816  0.84296485  1  0  -0.281729  0  3.221917  0  0  -0.276833  0  3.549476  0  0  -0.288736  0  3.570019  0  -0.640821  0  -0.228592  -0.267893  0  3.534981  0
N  N87  1  0.22775195  0.28434264  0.65703553  1  0  -0.281808  0  3.222027  0  0  -0.276917  0  3.549603  0  0  -0.288823  0  3.570143  0  -0.640808  0  -0.228626  -0.267982  0  3.535108  0
N  N88  1  0.27224822  0.78434187  0.15703575  1  0  -0.281867  0  3.221946  0  0  -0.27696  0  3.549515  0  0  -0.28886  0  3.570048  0  -0.640811  0  -0.228647  -0.268032  0  3.535025  0
N  N89  1  0.77224676  0.71565739  0.34296507  1  0  -0.281873  0  3.221912  0  0  -0.276974  0  3.549502  0  0  -0.288878  0  3.570041  0  -0.640822  0  -0.228653  -0.268043  0  3.535011  0
O  O90  1  0.97636440  0.35286489  0.92949755  1  0  -0.661969  0  2.064461  0  0  -0.627245  0  2.313013  0  0  -0.659563  0  2.30394  0  -1.161299  0  -0.332515  -0.6041  0  2.318396  0
O  O91  1  0.47636096  0.14713669  0.57050237  1  0  -0.662024  0  2.064526  0  0  -0.62729  0  2.313081  0  0  -0.659608  0  2.303998  0  -1.161347  0  -0.332539  -0.604153  0  2.318463  0
O  O92  1  0.02363594  0.64713513  0.07050360  1  0  -0.661997  0  2.064414  0  0  -0.627243  0  2.313015  0  0  -0.659557  0  2.303932  0  -1.161294  0  -0.332537  -0.604114  0  2.318399  0
O  O93  1  0.52363448  0.85286569  0.42949684  1  0  -0.661986  0  2.064381  0  0  -0.627206  0  2.312988  0  0  -0.65952  0  2.303907  0  -1.161293  0  -0.33251  -0.604074  0  2.318368  0
O  O94  1  0.70337373  0.51354428  0.02012871  1  0  -0.990163  0  1.769616  0  0  -1.017091  0  2.034543  0  0  -1.063473  0  2.014789  0  -1.212984  0  -0.71791  -0.982195  0  2.047045  0
O  O95  1  0.20337192  0.98646124  0.47986895  1  0  -0.990183  0  1.769572  0  0  -1.017082  0  2.034462  0  0  -1.06347  0  2.0147  0  -1.21302  0  -0.717868  -0.982199  0  2.046976  0
O  O96  1  0.29662498  0.48645966  0.97986848  1  0  -0.990163  0  1.769686  0  0  -1.017038  0  2.034538  0  0  -1.063417  0  2.014781  0  -1.213102  0  -0.717848  -0.982153  0  2.047058  0
O  O97  1  0.79662352  0.01354505  0.52012849  1  0  -0.990093  0  1.76963  0  0  -1.01702  0  2.034577  0  0  -1.063412  0  2.014818  0  -1.212931  0  -0.717887  -0.982134  0  2.047086  0
O  O98  1  0.62569575  0.45348180  0.85995160  1  0  -0.722418  0  1.615909  0  0  -0.738251  0  1.9242  0  0  -0.764155  0  1.914915  0  -0.869218  0  -0.752306  -0.721715  0  1.931116  0
O  O99  1  0.12568905  0.04652369  0.64003837  1  0  -0.722296  0  1.616553  0  0  -0.738093  0  1.924856  0  0  -0.764012  0  1.915586  0  -0.869154  0  -0.752567  -0.721577  0  1.931766  0
O  O100  1  0.37430949  0.54652449  0.14003984  1  0  -0.722356  0  1.616769  0  0  -0.738179  0  1.925135  0  0  -0.764092  0  1.915885  0  -0.869202  0  -0.75269  -0.72167  0  1.932042  0
O  O101  1  0.87430966  0.95347633  0.35995679  1  0  -0.72245  0  1.61641  0  0  -0.738206  0  1.924667  0  0  -0.764131  0  1.915411  0  -0.869225  0  -0.752515  -0.721691  0  1.931567  0
O  O102  1  0.28304227  0.29492148  0.86920261  1  0  -0.630922  0  2.066162  0  0  -0.613835  0  2.333657  0  0  -0.647416  0  2.327386  0  -1.158105  0  -0.352014  -0.589737  0  2.337059  0
O  O103  1  0.78303918  0.20507932  0.63079450  1  0  -0.630943  0  2.066249  0  0  -0.613863  0  2.333765  0  0  -0.647446  0  2.327486  0  -1.15825  0  -0.351993  -0.589771  0  2.337163  0
O  O104  1  0.71695481  0.70507933  0.13079753  1  0  -0.630931  0  2.066128  0  0  -0.613822  0  2.333679  0  0  -0.647401  0  2.327402  0  -1.158203  0  -0.351959  -0.589738  0  2.337078  0
O  O105  1  0.21695464  0.79492149  0.36920237  1  0  -0.630938  0  2.066103  0  0  -0.613824  0  2.33367  0  0  -0.647408  0  2.327394  0  -1.158201  0  -0.351977  -0.58974  0  2.337069  0
O  O106  1  0.53932542  0.28803532  0.00124094  1  0  -0.726326  0  1.549466  0  0  -0.737005  0  1.832358  0  0  -0.760771  0  1.817959  0  -0.889049  0  -0.743162  -0.721836  0  1.842749  0
O  O107  1  0.03931546  0.21197097  0.49875456  1  0  -0.726625  0  1.549  0  0  -0.737243  0  1.831784  0  0  -0.761046  0  1.817411  0  -0.889083  0  -0.74303  -0.722077  0  1.842161  0
O  O108  1  0.46067492  0.71197255  0.99875339  1  0  -0.726598  0  1.548574  0  0  -0.737229  0  1.831353  0  0  -0.761026  0  1.816985  0  -0.889039  0  -0.742905  -0.722069  0  1.841727  0
O  O109  1  0.96067999  0.78803455  0.50124443  1  0  -0.726385  0  1.549185  0  0  -0.737028  0  1.832029  0  0  -0.760816  0  1.817642  0  -0.889008  0  -0.743044  -0.721872  0  1.8424  0
O  O110  1  0.29956377  0.46513036  0.56531559  1  0  -0.742039  0  1.617238  0  0  -0.75334  0  1.909687  0  0  -0.775697  0  1.900852  0  -0.890468  0  -0.759661  -0.739524  0  1.916376  0
O  O111  1  0.79958189  0.03486495  0.93468749  1  0  -0.741956  0  1.61772  0  0  -0.75322  0  1.91016  0  0  -0.775563  0  1.901339  0  -0.890376  0  -0.759751  -0.739397  0  1.916861  0
O  O112  1  0.70041536  0.53486340  0.43468927  1  0  -0.742018  0  1.61813  0  0  -0.753266  0  1.910602  0  0  -0.775609  0  1.901747  0  -0.890459  0  -0.759953  -0.739462  0  1.917305  0
O  O113  1  0.20042987  0.96512881  0.06531464  1  0  -0.741945  0  1.617577  0  0  -0.753212  0  1.910019  0  0  -0.775563  0  1.901217  0  -0.890455  0  -0.75975  -0.739389  0  1.916719  0
O  O114  1  0.70289889  0.60010910  0.60308906  1  0  -0.622503  0  1.943777  0  0  -0.604614  0  2.193182  0  0  -0.637369  0  2.188404  0  -1.147388  0  -0.34865  -0.581385  0  2.195413  0
O  O115  1  0.20289871  0.89988702  0.89691416  1  0  -0.622614  0  1.943894  0  0  -0.604664  0  2.193318  0  0  -0.637414  0  2.188534  0  -1.14762  0  -0.34865  -0.581433  0  2.195553  0
O  O116  1  0.29710309  0.39988936  0.39691356  1  0  -0.622682  0  1.943878  0  0  -0.604732  0  2.19327  0  0  -0.637487  0  2.188488  0  -1.147652  0  -0.348674  -0.581505  0  2.195503  0
O  O117  1  0.79710163  0.10010831  0.10308813  1  0  -0.622532  0  1.943861  0  0  -0.604605  0  2.193242  0  0  -0.637355  0  2.188463  0  -1.147434  0  -0.348669  -0.581376  0  2.195475  0
O  O118  1  0.45669997  0.68487461  0.54660481  1  0  -0.609174  0  1.974009  0  0  -0.593423  0  2.228813  0  0  -0.626871  0  2.225002  0  -1.125449  0  -0.343798  -0.569797  0  2.23044  0
O  O119  1  0.95669851  0.81512308  0.95339640  1  0  -0.609208  0  1.973804  0  0  -0.593483  0  2.228667  0  0  -0.626929  0  2.224852  0  -1.125491  0  -0.343795  -0.569853  0  2.230297  0
O  O120  1  0.54330037  0.31512385  0.45339836  1  0  -0.609219  0  1.973888  0  0  -0.593491  0  2.228703  0  0  -0.62694  0  2.224886  0  -1.125503  0  -0.343759  -0.569866  0  2.230332  0
O  O121  1  0.04330183  0.18487146  0.04660473  1  0  -0.609221  0  1.974011  0  0  -0.593499  0  2.228837  0  0  -0.626943  0  2.225022  0  -1.125442  0  -0.343854  -0.569871  0  2.230467  0
O  O122  1  0.82281643  0.40797611  0.54854393  1  0  -0.854667  0  1.888777  0  0  -0.829017  0  2.073578  0  0  -0.850168  0  2.043244  0  -1.226886  0  -0.588623  -0.813742  0  2.094477  0
O  O123  1  0.32281625  0.09202234  0.95145785  1  0  -0.85461  0  1.888869  0  0  -0.828944  0  2.073631  0  0  -0.850089  0  2.0433  0  -1.226861  0  -0.588588  -0.813666  0  2.094533  0
O  O124  1  0.17718555  0.59202470  0.45145839  1  0  -0.854667  0  1.888804  0  0  -0.829009  0  2.073583  0  0  -0.85016  0  2.043252  0  -1.226848  0  -0.588619  -0.813734  0  2.094478  0
O  O125  1  0.67718409  0.90797377  0.04854235  1  0  -0.85462  0  1.88883  0  0  -0.828954  0  2.073613  0  0  -0.850101  0  2.043283  0  -1.226864  0  -0.588624  -0.813674  0  2.094513  0
