# generated using pymatgen
data_ZnH4C12Br3(NO3)2
_symmetry_space_group_name_H-M   'P 1'
_cell_length_a   10.29985900
_cell_length_b   10.86841142
_cell_length_c   11.26040523
_cell_angle_alpha   90.30518690
_cell_angle_beta   80.78974506
_cell_angle_gamma   80.53745705
_symmetry_Int_Tables_number   1
_chemical_formula_structural   ZnH4C12Br3(NO3)2
_chemical_formula_sum   'Zn2 H8 C24 Br6 N4 O12'
_cell_volume   1226.69491452
_cell_formula_units_Z   2
loop_
 _symmetry_equiv_pos_site_id
 _symmetry_equiv_pos_as_xyz
  1  'x, y, z'
loop_
 _atom_site_type_symbol
 _atom_site_label
 _atom_site_symmetry_multiplicity
 _atom_site_fract_x
 _atom_site_fract_y
 _atom_site_fract_z
 _atom_site_occupancy
 _atom_site_pbe_bader_charge
 _atom_site_pbe_bader_spin_density
 _atom_site_pbe_cm5_charge
 _atom_site_pbe_ddec_charge
 _atom_site_pbe_ddec_spin_density
 _atom_site_pbe_ddec_sum_bond_order
 _atom_site_pbe_magmom
Zn  Zn0  1  0.36547977  0.50334943  0.50973544  1  1.299096  0  0.677787  0.884178  0  2.362213  0
Zn  Zn1  1  0.64656734  0.48593667  0.49384308  1  1.302913  0  0.677748  0.88952  0  2.339834  0
H  H2  1  0.66166709  0.83068712  0.84551591  1  0.089688  0  0.107134  0.110149  0  0.992249  0
H  H3  1  0.43665033  0.13349218  0.10032229  1  0.092362  0  0.090102  0.087318  0  1.061887  0
H  H4  1  0.33126375  0.94035653  0.12913684  1  0.114257  0  0.115579  0.1267  0  0.984088  0
H  H5  1  0.78233795  0.01314816  0.79696213  1  0.095586  0  0.1203  0.132751  0  0.9689  0
H  H6  1  0.51675240  0.22146547  0.27166410  1  0.088813  0  0.106827  0.118856  0  1.004567  0
H  H7  1  0.53948122  0.75820349  0.69621845  1  0.11863  0  0.099777  0.107873  0  1.051309  0
H  H8  1  0.14730439  0.62472262  0.44281765  1  0.497071  0  0.296304  0.293981  0  0.973926  0
H  H9  1  0.86842101  0.37914452  0.56522401  1  0.489271  0  0.296731  0.296183  0  0.968091  0
C  C10  1  0.54057554  0.48903497  0.27097428  1  1.639093  0  0.204334  0.601814  0  4.197244  0
C  C11  1  0.46280603  0.50542521  0.73328462  1  1.641057  0  0.204641  0.60205  0  4.233361  0
C  C12  1  0.47891110  0.73335111  0.50274273  1  1.624076  0  0.215284  0.593179  0  4.190773  0
C  C13  1  0.53844093  0.25507984  0.48920783  1  1.56319  0  0.214268  0.593573  0  4.167  0
C  C14  1  0.38101025  0.90984253  0.30368730  1  0.20854  0  0.07985  0.031702  0  3.867937  0
C  C15  1  0.69017756  0.06024267  0.64330067  1  0.17945  0  0.076318  0.030908  0  3.880409  0
C  C16  1  0.38062689  0.97374947  0.19851333  1  -0.008038  0  -0.070737  -0.099682  0  3.954664  0
C  C17  1  0.71021582  0.99079162  0.74265576  1  0.053938  0  -0.077661  -0.112374  0  3.96258  0
C  C18  1  0.43549639  0.08444904  0.18453560  1  -0.032808  0  -0.09246  -0.075774  0  4.019535  0
C  C19  1  0.64719990  0.88510287  0.76620470  1  -0.032198  0  -0.090318  -0.078321  0  4.010527  0
C  C20  1  0.48019538  0.13311959  0.28001936  1  -0.001627  0  -0.071157  -0.085494  0  3.91608  0
C  C21  1  0.57760916  0.84567762  0.68316141  1  -0.027046  0  -0.079068  -0.102312  0  3.936506  0
C  C22  1  0.48839001  0.06649051  0.38824346  1  0.04287  0  0.009414  0.077546  0  3.933898  0
C  C23  1  0.55231320  0.91748212  0.58079611  1  0.022905  0  0.004395  0.062638  0  3.945668  0
C  C24  1  0.44752529  0.94541094  0.39900458  1  0.052268  0  0.004318  0.008394  0  3.932576  0
C  C25  1  0.59806708  0.03582685  0.56578638  1  -0.009612  0  0.008661  0.022446  0  3.941284  0
C  C26  1  0.54977167  0.11537254  0.47827141  1  0.016902  0  -0.001718  -0.096504  0  3.851802  0
C  C27  1  0.48179343  0.87229129  0.49610619  1  0.002413  0  0.007128  -0.067662  0  3.825569  0
C  C28  1  0.54746089  0.47913221  0.13684926  1  -0.072037  0  -0.025188  -0.064852  0  3.827447  0
C  C29  1  0.44048163  0.52298163  0.86822439  1  0.026232  0  -0.028062  -0.06592  0  3.888138  0
C  C30  1  0.45204337  0.45041999  0.07713248  1  0.080856  0  -0.028758  0.036561  0  4.000839  0
C  C31  1  0.46848205  0.43418932  0.94644130  1  -0.060892  0  -0.045694  -0.002824  0  4.069384  0
C  C32  1  0.94090674  0.51119174  0.47555947  1  0.746359  0  0.163825  0.257857  0  3.948464  0
C  C33  1  0.07927626  0.47578116  0.50592535  1  0.76814  0  0.16026  0.247971  0  3.96612  0
Br  Br34  1  0.53534128  0.26728805  0.88455403  1  -0.029651  0  0.048141  -0.017862  0  1.542992  0
Br  Br35  1  0.28284647  0.41784103  0.15570292  1  -0.016434  0  0.047255  -0.011102  0  1.486285  0
Br  Br36  1  0.36890541  0.68905147  0.92345005  1  -0.004062  0  0.068846  0.021863  0  1.475511  0
Br  Br37  1  0.71242652  0.50462763  0.04568220  1  -0.016894  0  0.032972  -0.019033  0  1.413394  0
Br  Br38  1  0.11006245  0.32213943  0.58177835  1  0.091934  0  0.156409  0.083884  0  1.462198  0
Br  Br39  1  0.91890689  0.64934695  0.37601066  1  0.093805  0  0.153519  0.077358  0  1.427883  0
N  N40  1  0.84380211  0.45517210  0.51305742  1  -1.213493  0  -0.442507  -0.423908  0  3.26118  0
N  N41  1  0.17109661  0.54151324  0.48515748  1  -1.224879  0  -0.446204  -0.428784  0  3.300922  0
N  N42  1  0.29067589  0.81706816  0.31621831  1  0.360642  0  0.0514  0.517528  0  4.189557  0
N  N43  1  0.79331403  0.13763291  0.60455545  1  0.402633  0  0.04856  0.526119  0  4.232991  0
O  O44  1  0.42781368  0.53459244  0.33082869  1  -1.154865  0  -0.309974  -0.532932  0  2.406209  0
O  O45  1  0.57400367  0.52641557  0.67849122  1  -1.150996  0  -0.306764  -0.530899  0  2.294497  0
O  O46  1  0.64691578  0.45011274  0.31258984  1  -1.143955  0  -0.316386  -0.535165  0  2.302437  0
O  O47  1  0.36688052  0.47505892  0.68828460  1  -1.142318  0  -0.313958  -0.530693  0  2.311224  0
O  O48  1  0.37676202  0.69048966  0.54905284  1  -1.144028  0  -0.303821  -0.516224  0  2.330016  0
O  O49  1  0.62957719  0.30331963  0.52559365  1  -1.160294  0  -0.30689  -0.533247  0  2.400732  0
O  O50  1  0.59308892  0.67016985  0.46099380  1  -1.149822  0  -0.315141  -0.556854  0  2.368914  0
O  O51  1  0.42858516  0.31620071  0.46711834  1  -1.157087  0  -0.311478  -0.560086  0  2.388507  0
O  O52  1  0.28600797  0.75295067  0.22610174  1  -0.469096  0  -0.142231  -0.35617  0  1.995981  0
O  O53  1  0.21610952  0.81584739  0.41472621  1  -0.449728  0  -0.136423  -0.336565  0  1.953075  0
O  O54  1  0.85186980  0.12071395  0.49943904  1  -0.447633  0  -0.13799  -0.330989  0  1.897305  0
O  O55  1  0.82294522  0.20663346  0.68087724  1  -0.485503  0  -0.147499  -0.368669  0  1.975617  0
