# generated using pymatgen
data_MoH9C7(NO)3
_symmetry_space_group_name_H-M   'P 1'
_cell_length_a   10.58987091
_cell_length_b   10.58988136
_cell_length_c   10.74524826
_cell_angle_alpha   109.77067702
_cell_angle_beta   109.77059650
_cell_angle_gamma   108.27439034
_symmetry_Int_Tables_number   1
_chemical_formula_structural   MoH9C7(NO)3
_chemical_formula_sum   'Mo4 H36 C28 N12 O12'
_cell_volume   934.25756025
_cell_formula_units_Z   4
loop_
 _symmetry_equiv_pos_site_id
 _symmetry_equiv_pos_as_xyz
  1  'x, y, z'
loop_
 _atom_site_type_symbol
 _atom_site_label
 _atom_site_symmetry_multiplicity
 _atom_site_fract_x
 _atom_site_fract_y
 _atom_site_fract_z
 _atom_site_occupancy
 _atom_site_hle17_bader_spin_density
 _atom_site_hle17_ddec_charge
 _atom_site_hle17_ddec_spin_density
 _atom_site_hle17_ddec_sum_bond_order
 _atom_site_hle17_magmom
 _atom_site_hse06_10hf_bader_spin_density
 _atom_site_hse06_10hf_ddec_charge
 _atom_site_hse06_10hf_ddec_spin_density
 _atom_site_hse06_10hf_ddec_sum_bond_order
 _atom_site_hse06_10hf_magmom
 _atom_site_hse06_bader_spin_density
 _atom_site_hse06_ddec_charge
 _atom_site_hse06_ddec_spin_density
 _atom_site_hse06_ddec_sum_bond_order
 _atom_site_hse06_magmom
 _atom_site_pbe_bader_spin_density
 _atom_site_pbe_cm5_charge
 _atom_site_pbe_ddec_charge
 _atom_site_pbe_ddec_spin_density
 _atom_site_pbe_ddec_sum_bond_order
 _atom_site_pbe_magmom
Mo  Mo0  1  0.52074625  0.52074746  0.33669997  1  0  2.103081  0  4.240942  0  0  2.088495  0  4.810049  0  0  2.189423  0  4.777925  0  0  1.551325  2.01329  0  4.840161  0
Mo  Mo1  1  0.81595317  0.81595473  0.33670323  1  0  2.103309  0  4.240903  0  0  2.088738  0  4.809961  0  0  2.189645  0  4.777866  0  0  1.551415  2.013529  0  4.840094  0
Mo  Mo2  1  0.47925217  0.47925187  0.66329749  1  0  2.103157  0  4.24098  0  0  2.088586  0  4.810063  0  0  2.189517  0  4.777938  0  0  1.551391  2.013381  0  4.840201  0
Mo  Mo3  1  0.18404790  0.18404803  0.66329999  1  0  2.103159  0  4.24092  0  0  2.088566  0  4.810026  0  0  2.189489  0  4.777912  0  0  1.551361  2.013358  0  4.840174  0
H  H4  1  0.53712602  0.79419914  0.67385108  1  0  0.128193  0  0.971682  0  0  0.136085  0  1.0355  0  0  0.140191  0  1.030258  0  0  0.14371  0.133266  0  1.038906  0
H  H5  1  0.13672352  0.87965294  0.67385269  1  0  0.128183  0  0.97175  0  0  0.136091  0  1.035553  0  0  0.1402  0  1.030308  0  0  0.143702  0.133275  0  1.038958  0
H  H6  1  0.20580098  0.46287370  0.32615008  1  0  0.1282  0  0.971645  0  0  0.136101  0  1.035456  0  0  0.140207  0  1.030213  0  0  0.143704  0.133278  0  1.038864  0
H  H7  1  0.12034727  0.86327612  0.32614793  1  0  0.128204  0  0.971712  0  0  0.136106  0  1.035525  0  0  0.140209  0  1.030287  0  0  0.143715  0.133283  0  1.038934  0
H  H8  1  0.46287295  0.20580133  0.32614880  1  0  0.12818  0  0.971669  0  0  0.136075  0  1.035489  0  0  0.140186  0  1.030244  0  0  0.143699  0.133258  0  1.038897  0
H  H9  1  0.86327535  0.12034524  0.32614638  1  0  0.128168  0  0.971729  0  0  0.136078  0  1.03554  0  0  0.14019  0  1.030293  0  0  0.143709  0.133261  0  1.038946  0
H  H10  1  0.79420055  0.53712792  0.67385105  1  0  0.128151  0  0.971806  0  0  0.136094  0  1.035555  0  0  0.140202  0  1.030311  0  0  0.143717  0.133276  0  1.038965  0
H  H11  1  0.87965214  0.13672319  0.67385357  1  0  0.128243  0  0.971696  0  0  0.136119  0  1.035534  0  0  0.140225  0  1.030292  0  0  0.143697  0.133298  0  1.038944  0
H  H12  1  0.54372022  0.96604439  0.85727255  1  0  0.08332  0  0.95202  0  0  0.099934  0  1.016259  0  0  0.100568  0  1.016905  0  0  0.095196  0.099274  0  1.016293  0
H  H13  1  0.31355225  0.89122982  0.85727467  1  0  0.083353  0  0.951996  0  0  0.09995  0  1.016236  0  0  0.100584  0  1.016889  0  0  0.095203  0.099292  0  1.016268  0
H  H14  1  0.03395689  0.45628043  0.14272851  1  0  0.083365  0  0.951943  0  0  0.099943  0  1.016238  0  0  0.100579  0  1.016881  0  0  0.0952  0.099286  0  1.016264  0
H  H15  1  0.10876944  0.68644726  0.14272453  1  0  0.083356  0  0.951985  0  0  0.099952  0  1.016237  0  0  0.100587  0  1.016882  0  0  0.095201  0.099291  0  1.016271  0
H  H16  1  0.45628031  0.03395723  0.14272731  1  0  0.083321  0  0.951989  0  0  0.099925  0  1.016249  0  0  0.100558  0  1.016893  0  0  0.095193  0.099265  0  1.016284  0
H  H17  1  0.68644672  0.10877065  0.14272521  1  0  0.083355  0  0.952014  0  0  0.09995  0  1.016261  0  0  0.100588  0  1.016904  0  0  0.09521  0.099293  0  1.016291  0
H  H18  1  0.96604408  0.54372004  0.85727297  1  0  0.083331  0  0.952013  0  0  0.099945  0  1.016258  0  0  0.100581  0  1.016903  0  0  0.095196  0.099288  0  1.016288  0
H  H19  1  0.89122998  0.31355207  0.85727419  1  0  0.08333  0  0.952018  0  0  0.099937  0  1.016274  0  0  0.100571  0  1.016924  0  0  0.095189  0.099278  0  1.016307  0
H  H20  1  0.48947466  0.05934933  0.75489094  1  0  0.09704  0  0.930387  0  0  0.110538  0  0.994552  0  0  0.112229  0  0.994073  0  0  0.09546  0.109221  0  0.995152  0
H  H21  1  0.26541713  0.69554176  0.75489164  1  0  0.097054  0  0.930364  0  0  0.110538  0  0.994522  0  0  0.112227  0  0.994046  0  0  0.095468  0.109219  0  0.995123  0
H  H22  1  0.94065060  0.51052647  0.24510912  1  0  0.097062  0  0.930376  0  0  0.110562  0  0.994543  0  0  0.112253  0  0.994065  0  0  0.095459  0.109244  0  0.995141  0
H  H23  1  0.30445857  0.73458340  0.24510813  1  0  0.097056  0  0.930356  0  0  0.11054  0  0.994526  0  0  0.112233  0  0.994045  0  0  0.09546  0.109219  0  0.995129  0
H  H24  1  0.51052632  0.94065115  0.24510961  1  0  0.09705  0  0.930385  0  0  0.110552  0  0.994544  0  0  0.112246  0  0.994063  0  0  0.095457  0.109236  0  0.995145  0
H  H25  1  0.73458285  0.30445872  0.24510764  1  0  0.097059  0  0.930348  0  0  0.110535  0  0.994518  0  0  0.11223  0  0.994037  0  0  0.095466  0.10922  0  0.995115  0
H  H26  1  0.05934938  0.48947401  0.75489109  1  0  0.097059  0  0.930384  0  0  0.110555  0  0.994552  0  0  0.112247  0  0.994073  0  0  0.095453  0.109238  0  0.99515  0
H  H27  1  0.69554241  0.26541708  0.75489149  1  0  0.097072  0  0.930368  0  0  0.110575  0  0.994524  0  0  0.112267  0  0.994044  0  0  0.09547  0.109257  0  0.995126  0
H  H28  1  0.49061797  0.16441203  0.99999882  1  0  0.068302  0  0.92766  0  0  0.083449  0  0.983991  0  0  0.084761  0  0.983313  0  0  0.096052  0.082436  0  0.984835  0
H  H29  1  0.50938301  0.83558845  0.00000081  1  0  0.068275  0  0.927661  0  0  0.083432  0  0.984  0  0  0.084741  0  0.983326  0  0  0.096044  0.082417  0  0.984845  0
H  H30  1  0.83558768  0.50938192  0.99999999  1  0  0.068328  0  0.927654  0  0  0.083452  0  0.983979  0  0  0.084769  0  0.983294  0  0  0.096055  0.082437  0  0.984824  0
H  H31  1  0.16441286  0.49061769  0.99999927  1  0  0.068307  0  0.927654  0  0  0.083431  0  0.983991  0  0  0.084741  0  0.983318  0  0  0.096048  0.082417  0  0.984833  0
H  H32  1  0.56006351  0.33943476  0.89949862  1  0  0.097321  0  0.952147  0  0  0.112376  0  1.014183  0  0  0.114147  0  1.014139  0  0  0.093637  0.11079  0  1.014751  0
H  H33  1  0.33943697  0.56006476  0.89949996  1  0  0.097328  0  0.952174  0  0  0.112392  0  1.014208  0  0  0.114162  0  1.014163  0  0  0.093647  0.110806  0  1.014776  0
H  H34  1  0.66056457  0.43993686  0.10050024  1  0  0.097318  0  0.952149  0  0  0.112372  0  1.014185  0  0  0.114144  0  1.01414  0  0  0.093634  0.110785  0  1.014755  0
H  H35  1  0.43993748  0.66056572  0.10050008  1  0  0.097313  0  0.952172  0  0  0.112379  0  1.014203  0  0  0.114147  0  1.014162  0  0  0.093636  0.110792  0  1.014771  0
H  H36  1  0.82124862  0.03449154  0.00000019  1  0  0.105022  0  0.911118  0  0  0.121738  0  0.967442  0  0  0.123544  0  0.966745  0  0  0.103777  0.120714  0  0.96759  0
H  H37  1  0.17875236  0.96550893  0.00000036  1  0  0.104998  0  0.911116  0  0  0.121734  0  0.967445  0  0  0.12354  0  0.966748  0  0  0.103791  0.120712  0  0.967593  0
H  H38  1  0.96550911  0.17875207  0.99999976  1  0  0.105015  0  0.911109  0  0  0.121735  0  0.967432  0  0  0.123541  0  0.966734  0  0  0.103775  0.120714  0  0.967575  0
H  H39  1  0.03449097  0.82124867  0.99999973  1  0  0.104997  0  0.911113  0  0  0.121733  0  0.967446  0  0  0.12354  0  0.966745  0  0  0.10379  0.120711  0  0.967592  0
C  C40  1  0.60929096  0.85323031  0.63809979  1  0  0.183761  0  3.582667  0  0  0.125466  0  3.845558  0  0  0.140888  0  3.853403  0  0  0.16524  0.1153  0  3.840016  0
C  C41  1  0.02881071  0.78487093  0.63810189  1  0  0.183764  0  3.582789  0  0  0.125441  0  3.845679  0  0  0.14086  0  3.853526  0  0  0.165212  0.115273  0  3.840135  0
C  C42  1  0.14677001  0.39070850  0.36190133  1  0  0.183705  0  3.582796  0  0  0.125384  0  3.845686  0  0  0.140804  0  3.853535  0  0  0.165198  0.115219  0  3.840138  0
C  C43  1  0.21513113  0.97119217  0.36189952  1  0  0.183701  0  3.582821  0  0  0.125393  0  3.845715  0  0  0.140816  0  3.853562  0  0  0.165151  0.115227  0  3.840174  0
C  C44  1  0.39070801  0.14677016  0.36190102  1  0  0.183704  0  3.582788  0  0  0.125406  0  3.845674  0  0  0.140824  0  3.85352  0  0  0.165203  0.115237  0  3.840137  0
C  C45  1  0.97119127  0.21512954  0.36189900  1  0  0.183762  0  3.582818  0  0  0.125422  0  3.845723  0  0  0.140837  0  3.853572  0  0  0.16514  0.115253  0  3.840176  0
C  C46  1  0.85322985  0.60928968  0.63809994  1  0  0.183756  0  3.582698  0  0  0.12545  0  3.845552  0  0  0.140869  0  3.853397  0  0  0.165223  0.115281  0  3.84001  0
C  C47  1  0.78486985  0.02880830  0.63810196  1  0  0.183663  0  3.582955  0  0  0.125345  0  3.84581  0  0  0.140765  0  3.853655  0  0  0.165214  0.11518  0  3.840266  0
C  C48  1  0.73165122  0.12544223  0.85709355  1  0  0.252843  0  3.514895  0  0  0.252344  0  3.760878  0  0  0.257501  0  3.77766  0  0  0.0925  0.24869  0  3.749827  0
C  C49  1  0.12544252  0.73165104  0.85709315  1  0  0.252848  0  3.514935  0  0  0.252383  0  3.760853  0  0  0.257543  0  3.777629  0  0  0.092521  0.248707  0  3.749865  0
C  C50  1  0.87455746  0.26834943  0.14290707  1  0  0.252813  0  3.514974  0  0  0.252333  0  3.76085  0  0  0.257493  0  3.777629  0  0  0.092481  0.248654  0  3.749875  0
C  C51  1  0.26834821  0.87455710  0.14290610  1  0  0.252839  0  3.514915  0  0  0.252364  0  3.760905  0  0  0.257514  0  3.777709  0  0  0.09254  0.248718  0  3.749832  0
C  C52  1  0.57929276  0.07561698  0.85754311  1  0  -0.229164  0  3.625223  0  0  -0.277443  0  3.874252  0  0  -0.280111  0  3.88789  0  0  -0.162979  -0.275337  0  3.86509  0
C  C53  1  0.27825017  0.78192721  0.85754533  1  0  -0.229213  0  3.625338  0  0  -0.277399  0  3.874253  0  0  -0.280069  0  3.887891  0  0  -0.162958  -0.275295  0  3.865097  0
C  C54  1  0.92438345  0.42070594  0.14245626  1  0  -0.2292  0  3.625265  0  0  -0.277497  0  3.874296  0  0  -0.280164  0  3.88793  0  0  -0.162985  -0.275397  0  3.865144  0
C  C55  1  0.21807301  0.72174967  0.14245517  1  0  -0.229206  0  3.625361  0  0  -0.277451  0  3.874291  0  0  -0.280114  0  3.887921  0  0  -0.162967  -0.275346  0  3.865124  0
C  C56  1  0.42070666  0.92438235  0.14245654  1  0  -0.229163  0  3.625269  0  0  -0.277433  0  3.874309  0  0  -0.280098  0  3.887943  0  0  -0.162956  -0.275334  0  3.865152  0
C  C57  1  0.72174981  0.21807327  0.14245489  1  0  -0.229201  0  3.625325  0  0  -0.277404  0  3.874246  0  0  -0.280074  0  3.887881  0  0  -0.16297  -0.275298  0  3.865083  0
C  C58  1  0.07561698  0.57929339  0.85754280  1  0  -0.229206  0  3.625242  0  0  -0.277512  0  3.874257  0  0  -0.28018  0  3.887891  0  0  -0.162978  -0.275407  0  3.865098  0
C  C59  1  0.78192641  0.27824965  0.85754541  1  0  -0.229166  0  3.62535  0  0  -0.277463  0  3.874339  0  0  -0.280135  0  3.887981  0  0  -0.162949  -0.275369  0  3.8652  0
C  C60  1  0.59967227  0.19943851  0.00000112  1  0  0.055806  0  3.611123  0  0  0.05667  0  3.842116  0  0  0.056824  0  3.858711  0  0  -0.090697  0.056558  0  3.831025  0
C  C61  1  0.40032825  0.80056310  0.99999966  1  0  0.055856  0  3.611086  0  0  0.056693  0  3.842132  0  0  0.056848  0  3.858726  0  0  -0.090705  0.056582  0  3.831041  0
C  C62  1  0.80056165  0.40032750  0.99999859  1  0  0.055729  0  3.611272  0  0  0.056711  0  3.842145  0  0  0.056865  0  3.85874  0  0  -0.090709  0.056603  0  3.831046  0
C  C63  1  0.19943933  0.59967298  0.00000196  1  0  0.055792  0  3.611127  0  0  0.056767  0  3.841984  0  0  0.056922  0  3.858576  0  0  -0.090679  0.056655  0  3.830894  0
C  C64  1  0.64842724  0.35157295  0.00000041  1  0  -0.174815  0  3.586903  0  0  -0.212434  0  3.816448  0  0  -0.214507  0  3.829353  0  0  -0.167201  -0.211027  0  3.80844  0
C  C65  1  0.35157363  0.64842725  0.99999995  1  0  -0.174811  0  3.586796  0  0  -0.212479  0  3.816429  0  0  -0.214546  0  3.829326  0  0  -0.167225  -0.21107  0  3.808416  0
C  C66  1  0.85596181  0.14403721  0.99999992  1  0  -0.258934  0  3.563216  0  0  -0.310587  0  3.816588  0  0  -0.313846  0  3.828196  0  0  -0.152426  -0.30821  0  3.808813  0
C  C67  1  0.14403771  0.85596239  0.99999993  1  0  -0.258924  0  3.563209  0  0  -0.310662  0  3.816682  0  0  -0.313919  0  3.828288  0  0  -0.152556  -0.308287  0  3.808911  0
N  N68  1  0.62068853  0.78608655  0.51721753  1  0  -0.273097  0  3.206115  0  0  -0.241495  0  3.499204  0  0  -0.255935  0  3.518963  0  0  -0.247889  -0.231401  0  3.485802  0
N  N69  1  0.89652825  0.73113017  0.51721899  1  0  -0.273184  0  3.206156  0  0  -0.241493  0  3.49921  0  0  -0.255927  0  3.51897  0  0  -0.247909  -0.231399  0  3.485812  0
N  N70  1  0.21391132  0.37931005  0.48278148  1  0  -0.273124  0  3.20614  0  0  -0.241457  0  3.499209  0  0  -0.255896  0  3.518972  0  0  -0.247886  -0.231366  0  3.485811  0
N  N71  1  0.26886919  0.10347073  0.48278039  1  0  -0.273092  0  3.206142  0  0  -0.241424  0  3.499207  0  0  -0.255861  0  3.518966  0  0  -0.247871  -0.231331  0  3.485808  0
N  N72  1  0.37931034  0.21391163  0.48278062  1  0  -0.273079  0  3.206174  0  0  -0.241415  0  3.499237  0  0  -0.255849  0  3.518994  0  0  -0.247845  -0.231322  0  3.485839  0
N  N73  1  0.10346961  0.26886801  0.48277976  1  0  -0.273073  0  3.206096  0  0  -0.241401  0  3.499163  0  0  -0.255836  0  3.518924  0  0  -0.247845  -0.231309  0  3.485766  0
N  N74  1  0.78608710  0.62068927  0.51721690  1  0  -0.273021  0  3.20602  0  0  -0.241394  0  3.499108  0  0  -0.255833  0  3.518869  0  0  -0.247848  -0.231301  0  3.485711  0
N  N75  1  0.73113068  0.89652744  0.51721995  1  0  -0.273136  0  3.206255  0  0  -0.241384  0  3.499237  0  0  -0.255816  0  3.518993  0  0  -0.247866  -0.23129  0  3.485834  0
N  N76  1  0.71047010  0.00658041  0.71705370  1  0  -0.132055  0  3.443205  0  0  -0.040868  0  3.662648  0  0  -0.05776  0  3.684071  0  0  -0.21598  -0.029996  0  3.648523  0
N  N77  1  0.00658304  0.71047187  0.71705482  1  0  -0.132086  0  3.443116  0  0  -0.040939  0  3.662604  0  0  -0.057834  0  3.684029  0  0  -0.215957  -0.030062  0  3.648477  0
N  N78  1  0.99341638  0.28952745  0.28294483  1  0  -0.132053  0  3.443169  0  0  -0.040853  0  3.662617  0  0  -0.057746  0  3.684042  0  0  -0.215888  -0.029978  0  3.648487  0
N  N79  1  0.28952821  0.99341662  0.28294481  1  0  -0.132022  0  3.443118  0  0  -0.040866  0  3.6626  0  0  -0.057761  0  3.684026  0  0  -0.21592  -0.029998  0  3.648476  0
O  O80  1  0.63612174  0.63612203  0.27224470  1  0  -0.883315  0  1.848046  0  0  -0.887565  0  2.160878  0  0  -0.931472  0  2.157112  0  0  -0.584494  -0.854137  0  2.163735  0
O  O81  1  0.36387824  0.36387844  0.72775552  1  0  -0.883286  0  1.848103  0  0  -0.88752  0  2.16092  0  0  -0.931432  0  2.157162  0  0  -0.584477  -0.854092  0  2.163785  0
O  O82  1  0.49999816  0.49999852  0.49999799  1  0  -0.965536  0  1.905495  0  0  -0.967294  0  2.233821  0  0  -1.015138  0  2.234001  0  0  -0.61346  -0.929273  0  2.23174  0
O  O83  1  0.00000032  0.00000070  0.50000270  1  0  -0.965558  0  1.905495  0  0  -0.967332  0  2.233847  0  0  -1.015161  0  2.234004  0  0  -0.613459  -0.929312  0  2.23177  0
O  O84  1  0.34423086  0.50508931  0.23855614  1  0  -0.694556  0  1.475568  0  0  -0.69577  0  1.727668  0  0  -0.723367  0  1.717797  0  0  -0.52467  -0.675943  0  1.735343  0
O  O85  1  0.89432693  0.73346788  0.23855948  1  0  -0.694625  0  1.475547  0  0  -0.695865  0  1.727653  0  0  -0.723461  0  1.717787  0  0  -0.5247  -0.676039  0  1.735337  0
O  O86  1  0.49491060  0.65576989  0.76144149  1  0  -0.694571  0  1.475547  0  0  -0.6958  0  1.727651  0  0  -0.723401  0  1.717778  0  0  -0.524687  -0.675978  0  1.735338  0
O  O87  1  0.26653467  0.10567616  0.76144421  1  0  -0.694552  0  1.475481  0  0  -0.695784  0  1.727584  0  0  -0.723381  0  1.717715  0  0  -0.524662  -0.675962  0  1.73528  0
O  O88  1  0.65577013  0.49491118  0.76144163  1  0  -0.694563  0  1.475526  0  0  -0.69581  0  1.727631  0  0  -0.723407  0  1.71776  0  0  -0.52469  -0.675987  0  1.735327  0
O  O89  1  0.10567615  0.26653488  0.76144347  1  0  -0.694591  0  1.475537  0  0  -0.695808  0  1.727646  0  0  -0.723401  0  1.717778  0  0  -0.524676  -0.675979  0  1.735338  0
O  O90  1  0.50508883  0.34422944  0.23855537  1  0  -0.694526  0  1.475462  0  0  -0.69575  0  1.727561  0  0  -0.723345  0  1.717694  0  0  -0.524638  -0.675925  0  1.735246  0
O  O91  1  0.73346941  0.89432660  0.23856001  1  0  -0.694579  0  1.475562  0  0  -0.695809  0  1.727672  0  0  -0.723402  0  1.717804  0  0  -0.524677  -0.675986  0  1.735362  0
