# generated using pymatgen
data_Zn4H52C69N22O
_symmetry_space_group_name_H-M   'P 1'
_cell_length_a   19.51409086
_cell_length_b   20.20046269
_cell_length_c   19.78527861
_cell_angle_alpha   107.07539552
_cell_angle_beta   110.46925351
_cell_angle_gamma   109.19360934
_symmetry_Int_Tables_number   1
_chemical_formula_structural   Zn4H52C69N22O
_chemical_formula_sum   'Zn4 H52 C69 N22 O1'
_cell_volume   6120.71871730
_cell_formula_units_Z   1
loop_
 _symmetry_equiv_pos_site_id
 _symmetry_equiv_pos_as_xyz
  1  'x, y, z'
loop_
 _atom_site_type_symbol
 _atom_site_label
 _atom_site_symmetry_multiplicity
 _atom_site_fract_x
 _atom_site_fract_y
 _atom_site_fract_z
 _atom_site_occupancy
 _atom_site_pbe_bader_charge
 _atom_site_pbe_bader_spin_density
 _atom_site_pbe_cm5_charge
 _atom_site_pbe_ddec_charge
 _atom_site_pbe_ddec_spin_density
 _atom_site_pbe_ddec_sum_bond_order
 _atom_site_pbe_magmom
Zn  Zn0  1  0.12445297  0.49957108  0.11148388  1  1.189513  0  0.74453  0.647651  0  2.369017  0
Zn  Zn1  1  0.88338091  0.50357630  0.91778396  1  1.188899  0  0.749079  0.673359  0  2.269953  0
Zn  Zn2  1  0.90837345  0.38909976  0.01049525  1  1.183587  0  0.760683  0.673515  0  2.275621  0
Zn  Zn3  1  0.09270555  0.59970768  0.00213574  1  1.179713  0  0.740705  0.647709  0  2.353551  0
H  H4  1  0.17186215  0.34969737  0.09653254  1  0.087377  0  0.124135  0.114084  0  0.985891  0
H  H5  1  0.76533435  0.55928324  0.97223508  1  0.097768  0  0.122245  0.113682  0  0.99264  0
H  H6  1  0.87158924  0.49416116  0.13850323  1  0.106944  0  0.116535  0.107739  0  1.037578  0
H  H7  1  0.10282940  0.75058656  0.96929275  1  0.08986  0  0.121182  0.108954  0  0.986694  0
H  H8  1  0.84951666  0.65019540  0.92607859  1  0.080936  0  0.114917  0.104302  0  1.003734  0
H  H9  1  0.13899916  0.59263418  0.28445280  1  0.117427  0  0.120361  0.109437  0  1.01576  0
H  H10  1  0.12378620  0.74025641  0.15400188  1  0.119628  0  0.120265  0.116299  0  0.997771  0
H  H11  1  0.71414564  0.35579273  0.01746287  1  0.105007  0  0.1241  0.114557  0  0.980465  0
H  H12  1  0.86437046  0.54167525  0.51548814  1  0.084597  0  0.097937  0.105362  0  1.03643  0
H  H13  1  0.13436763  0.67968333  0.52711582  1  0.039611  0  0.102637  0.106282  0  0.988687  0
H  H14  1  0.13352899  0.66787425  0.64878174  1  0.053064  0  0.097204  0.104626  0  1.007309  0
H  H15  1  0.39628271  0.88896026  0.53003259  1  0.026557  0  0.100119  0.102643  0  1.000749  0
H  H16  1  0.52723834  0.00923814  0.64452669  1  0.091075  0  0.096939  0.10452  0  1.007224  0
H  H17  1  0.48383512  0.14194939  0.51407906  1  0.057983  0  0.099087  0.1092  0  1.02724  0
H  H18  1  0.14721411  0.07415177  0.97077794  1  0.069901  0  0.102519  0.110758  0  0.99087  0
H  H19  1  0.11355355  0.93450855  0.93924616  1  0.050273  0  0.098813  0.105972  0  1.002031  0
H  H20  1  0.77440397  0.21134133  0.85103460  1  0.09338  0  0.119467  0.107141  0  0.997272  0
H  H21  1  0.77289849  0.37000966  0.74367474  1  0.095078  0  0.116577  0.107014  0  1.014962  0
H  H22  1  0.19344527  0.41067539  0.02208886  1  0.104722  0  0.116175  0.103448  0  1.033537  0
H  H23  1  0.10033437  0.55294282  0.84037477  1  0.085726  0  0.11379  0.103519  0  1.018982  0
H  H24  1  0.90438601  0.22562433  0.93916649  1  0.082831  0  0.119065  0.106952  0  1.007226  0
H  H25  1  0.85601574  0.55301819  0.33113457  1  0.456219  0  0.305026  0.248719  0  0.972642  0
H  H26  1  0.72125484  0.48930257  0.30582685  1  0.063701  0  0.110489  0.117118  0  0.974092  0
H  H27  1  0.75475092  0.53783603  0.41110755  1  0.03884  0  0.097729  0.098864  0  0.99757  0
H  H28  1  0.76171325  0.45030316  0.37078151  1  0.01952  0  0.092815  0.089394  0  0.989709  0
H  H29  1  0.80754856  0.53881820  0.76539832  1  0.399962  0  0.306256  0.244315  0  0.957989  0
H  H30  1  0.73636479  0.49857833  0.62450649  1  0.074765  0  0.102553  0.105351  0  0.982243  0
H  H31  1  0.81652534  0.48109592  0.61408606  1  0.05859  0  0.107045  0.119837  0  0.980835  0
H  H32  1  0.83563917  0.58000538  0.66092904  1  0.056481  0  0.093421  0.096086  0  1.005717  0
H  H33  1  0.28956206  0.96880987  0.33979954  1  0.436927  0  0.305789  0.249217  0  0.971486  0
H  H34  1  0.30617142  0.07653214  0.31596530  1  0.042064  0  0.109726  0.114834  0  0.975537  0
H  H35  1  0.41545399  0.10942593  0.36931251  1  0.027641  0  0.093402  0.089254  0  0.991192  0
H  H36  1  0.36545862  0.14075419  0.42231877  1  0.039819  0  0.100023  0.100986  0  0.98275  0
H  H37  1  0.75767847  0.72861064  0.68308442  1  0.029156  0  0.102262  0.070435  0  0.961478  0
H  H38  1  0.86341990  0.74955388  0.73077467  1  0.058411  0  0.091886  0.056184  0  1.040968  0
H  H39  1  0.78449041  0.79635444  0.60112930  1  0.006469  0  0.089542  0.07975  0  0.987198  0
H  H40  1  0.89157787  0.82338740  0.65147484  1  0.032395  0  0.093665  0.088779  0  0.974377  0
H  H41  1  0.85620227  0.68025832  0.59410964  1  0.02071  0  0.085038  0.11259  0  1.018288  0
H  H42  1  0.81263785  0.70239642  0.51444180  1  0.038805  0  0.090242  0.122124  0  0.992896  0
H  H43  1  0.74787750  0.65096271  0.54624629  1  0.002193  0  0.079522  0.09757  0  1.016102  0
H  H44  1  0.90510327  0.06220424  0.81890933  1  0.437853  0  0.296161  0.236382  0  0.982149  0
H  H45  1  0.82359594  0.93654246  0.67004704  1  0.042132  0  0.091432  0.089284  0  1.00393  0
H  H46  1  0.78068266  0.99540436  0.70529211  1  0.034978  0  0.103728  0.10804  0  0.981165  0
H  H47  1  0.75887693  0.90525388  0.71156954  1  0.078737  0  0.099008  0.106736  0  1.008349  0
H  H48  1  0.24203729  0.65614433  0.96315143  1  0.412316  0  0.312155  0.250051  0  0.949453  0
H  H49  1  0.34233747  0.67121740  0.92088073  1  0.056395  0  0.10841  0.1147  0  0.975947  0
H  H50  1  0.26726885  0.56869230  0.85665017  1  0.058014  0  0.095112  0.094611  0  0.985054  0
H  H51  1  0.35979790  0.59867617  0.94622015  1  0.067361  0  0.106489  0.121623  0  1.000729  0
H  H52  1  0.31829684  0.63146645  0.28367265  1  0.436738  0  0.316902  0.261344  0  0.932851  0
H  H53  1  0.38144281  0.70061888  0.42450228  1  0.0368  0  0.105447  0.109284  0  0.980412  0
H  H54  1  0.31205478  0.74064514  0.41624001  1  0.059375  0  0.104903  0.11539  0  0.98656  0
H  H55  1  0.39639419  0.78019408  0.39875659  1  0.058082  0  0.097165  0.103956  0  0.986697  0
C  C56  1  0.10583882  0.33149815  0.06390382  1  0.398085  0  0.014711  -0.049934  0  3.962075  0
C  C57  1  0.97845157  0.54427264  0.76218189  1  0.098026  0  -0.039188  -0.057737  0  4.175305  0
C  C58  1  0.74024117  0.26321282  0.76623056  1  0.141084  0  -0.028771  0.05085  0  4.198258  0
C  C59  1  0.25753504  0.50504101  0.99416911  1  0.115634  0  -0.039782  -0.078638  0  4.184229  0
C  C60  1  0.24176369  0.67560817  0.24801763  1  0.949794  0  0.206503  0.283552  0  4.088587  0
C  C61  1  0.76321451  0.50783042  0.98013546  1  0.390391  0  0.015691  -0.044656  0  3.95064  0
C  C62  1  0.93730914  0.51155710  0.16228647  1  0.403545  0  0.010748  -0.045476  0  3.93004  0
C  C63  1  0.04352433  0.71702356  0.96459046  1  0.437238  0  0.017503  -0.042868  0  3.950802  0
C  C64  1  0.91387532  0.66551037  0.94204023  1  0.393147  0  -0.001074  -0.07582  0  3.986869  0
C  C65  1  0.07433931  0.56173894  0.23668400  1  0.437481  0  0.023604  -0.023304  0  3.90395  0
C  C66  1  0.15756459  0.71111656  0.17621691  1  0.467687  0  0.016951  -0.021208  0  3.978062  0
C  C67  1  0.90863818  0.52721101  0.77545520  1  0.951321  0  0.207948  0.280125  0  4.069646  0
C  C68  1  0.73718472  0.40355076  0.00305744  1  0.455356  0  0.019004  -0.04305  0  3.971309  0
C  C69  1  0.21966234  0.73716329  0.25595669  1  0.074749  0  -0.039909  -0.063795  0  4.168395  0
C  C70  1  0.71138211  0.46129564  0.00136292  1  0.130185  0  -0.031284  0.024954  0  4.221253  0
C  C71  1  0.00372780  0.56041755  0.24248178  1  0.136306  0  -0.027316  0.049928  0  4.183648  0
C  C72  1  0.96851826  0.71945890  0.92880536  1  0.11496  0  -0.029252  0.052596  0  4.199256  0
C  C73  1  0.32598793  0.49636961  0.99570555  1  -0.005832  0  -0.029702  -0.040674  0  4.117213  0
C  C74  1  0.38851786  0.48992470  0.00270373  1  -0.180584  0  -0.058659  -0.087541  0  4.352229  0
C  C75  1  0.45696605  0.48433835  0.00991688  1  -0.214566  0  -0.036083  -0.022852  0  4.283001  0
C  C76  1  0.52021580  0.47971144  0.01531377  1  0.059982  0  -0.038346  -0.033287  0  4.275821  0
C  C77  1  0.58705621  0.47420051  0.01615281  1  0.045462  0  -0.055269  -0.066746  0  4.357358  0
C  C78  1  0.78687993  0.26092986  0.83743495  1  0.407481  0  0.012916  -0.053124  0  3.955939  0
C  C79  1  0.64665928  0.46844420  0.01233167  1  -0.228829  0  -0.034399  -0.069425  0  4.093799  0
C  C80  1  0.92259766  0.58120824  0.44963468  1  0.491845  0  0.103738  0.201888  0  4.074418  0
C  C81  1  0.00086078  0.61735513  0.45231346  1  0.054668  0  -0.021009  0.023289  0  4.112339  0
C  C82  1  0.07548120  0.65057358  0.52559326  1  0.032843  0  -0.091044  -0.109165  0  4.027729  0
C  C83  1  0.07525342  0.64375296  0.59325396  1  -0.009206  0  -0.112355  -0.178669  0  4.026303  0
C  C84  1  0.99846928  0.60195782  0.58871930  1  0.106245  0  -0.008885  0.158242  0  4.168761  0
C  C85  1  0.92303048  0.57325448  0.51781719  1  -0.114279  0  -0.111505  -0.265056  0  3.941917  0
C  C86  1  0.00195875  0.61010505  0.37963550  1  -0.385937  0  -0.05586  -0.11537  0  4.191575  0
C  C87  1  0.99572855  0.58514397  0.65248926  1  -0.173019  0  -0.060656  -0.136328  0  4.149075  0
C  C88  1  0.98842378  0.56469166  0.70305001  1  -0.221425  0  -0.061203  -0.092398  0  4.213753  0
C  C89  1  0.23548100  0.56429103  0.98587912  1  0.968016  0  0.213385  0.293704  0  4.078131  0
C  C90  1  0.00064359  0.59171077  0.31427850  1  -0.011374  0  -0.05861  -0.114107  0  4.161706  0
C  C91  1  0.48865968  0.01148066  0.59093569  1  -0.084905  0  -0.112352  -0.17704  0  4.029114  0
C  C92  1  0.51478999  0.08255558  0.58493614  1  0.098712  0  -0.009264  0.157503  0  4.163325  0
C  C93  1  0.46332708  0.08640005  0.51714741  1  0.016736  0  -0.111388  -0.262092  0  3.932863  0
C  C94  1  0.38855034  0.01943079  0.45293138  1  0.452853  0  0.103315  0.20157  0  4.074348  0
C  C95  1  0.36641182  0.94583851  0.45614986  1  0.134999  0  -0.021583  0.027324  0  4.115603  0
C  C96  1  0.41563610  0.94472431  0.52712206  1  -0.003657  0  -0.094133  -0.11897  0  4.040493  0
C  C97  1  0.59358390  0.14805762  0.64595435  1  -0.046339  0  -0.054656  -0.115513  0  4.149603  0
C  C98  1  0.30267543  0.87421517  0.38633260  1  -0.079373  0  -0.063161  -0.140306  0  4.201935  0
C  C99  1  0.25861808  0.81052593  0.32457028  1  -0.319616  0  -0.061876  -0.097718  0  4.200306  0
C  C100  1  0.78527678  0.34207966  0.78252724  1  0.44134  0  0.013428  -0.039166  0  3.913091  0
C  C101  1  0.66323537  0.20177368  0.69914078  1  -0.344606  0  -0.06093  -0.112817  0  4.184027  0
C  C102  1  0.06575938  0.94864337  0.90966421  1  -0.034393  0  -0.108267  -0.152799  0  4.054015  0
C  C103  1  0.98199891  0.88703238  0.85855276  1  0.103587  0  -0.018263  0.033692  0  4.150363  0
C  C104  1  0.91983841  0.90239481  0.81429304  1  0.503403  0  0.077609  0.109106  0  3.982102  0
C  C105  1  0.93776639  0.98150328  0.83200537  1  0.508183  0  0.099008  0.09449  0  4.023579  0
C  C106  1  0.02008213  0.04367159  0.89412477  1  0.040143  0  -0.020015  0.037601  0  4.130049  0
C  C107  1  0.08404146  0.02576494  0.92748872  1  0.021732  0  -0.100704  -0.13752  0  4.06254  0
C  C108  1  0.96374383  0.81662522  0.86621212  1  0.091631  0  -0.048683  -0.091787  0  4.162253  0
C  C109  1  0.03370649  0.12202412  0.92698495  1  -0.227648  0  -0.052994  -0.110321  0  4.179382  0
C  C110  1  0.03937794  0.18628977  0.96197336  1  -0.131799  0  -0.057573  -0.11414  0  4.158405  0
C  C111  1  0.19931740  0.46171324  0.01201982  1  0.452998  0  0.01377  -0.028529  0  3.988278  0
C  C112  1  0.95921488  0.76839112  0.89240632  1  -0.448022  0  -0.05785  -0.114487  0  4.140266  0
C  C113  1  0.03805885  0.54348143  0.82745911  1  0.429466  0  0.004284  -0.048545  0  3.997076  0
C  C114  1  0.96905348  0.26833260  0.98407444  1  0.444209  0  0.015285  -0.039558  0  3.959501  0
C  C115  1  0.03946805  0.25684893  0.00094908  1  0.090168  0  -0.027888  0.049356  0  4.19529  0
C  C116  1  0.76838635  0.50528958  0.36665962  1  0.315725  0  -0.130682  -0.203459  0  4.012169  0
C  C117  1  0.80396225  0.52015028  0.65402403  1  0.239205  0  -0.135761  -0.203461  0  3.978891  0
C  C118  1  0.35756462  0.09037557  0.37317364  1  0.330542  0  -0.13037  -0.200746  0  4.018028  0
C  C119  1  0.82174367  0.77078545  0.70235489  1  0.411894  0  -0.068923  0.023985  0  3.896094  0
C  C120  1  0.82841648  0.77725667  0.62986558  1  0.003491  0  -0.170628  -0.139488  0  3.988105  0
C  C121  1  0.81030492  0.69844071  0.56787062  1  -0.057091  0  -0.242856  -0.350075  0  3.977958  0
C  C122  1  0.80692013  0.95696571  0.71713229  1  0.262729  0  -0.139835  -0.213046  0  4.000782  0
C  C123  1  0.31185438  0.61460113  0.92025588  1  0.268381  0  -0.132333  -0.206572  0  3.96804  0
C  C124  1  0.34939336  0.72532264  0.39042525  1  0.273539  0  -0.133846  -0.205857  0  3.980084  0
N  N125  1  0.07695497  0.38267025  0.08191124  1  -0.791349  0  -0.276551  -0.189709  0  3.546308  0
N  N126  1  0.81372774  0.47879850  0.96939009  1  -0.800982  0  -0.277447  -0.192227  0  3.638061  0
N  N127  1  0.96674973  0.48498056  0.11359846  1  -0.828401  0  -0.291556  -0.204622  0  3.669004  0
N  N128  1  0.03340301  0.66567533  0.99511203  1  -0.808998  0  -0.276671  -0.176896  0  3.600827  0
N  N129  1  0.95292823  0.63263271  0.98112070  1  -0.762597  0  -0.275637  -0.227404  0  3.444403  0
N  N130  1  0.05078992  0.51597043  0.15958834  1  -0.759967  0  -0.274276  -0.178864  0  3.608774  0
N  N131  1  0.14498108  0.64214585  0.12526610  1  -0.8409  0  -0.292772  -0.214981  0  3.632501  0
N  N132  1  0.79790540  0.41440745  0.98380823  1  -0.753247  0  -0.253069  -0.198336  0  3.453036  0
N  N133  1  0.92841094  0.51879356  0.84358839  1  -0.814323  0  -0.291868  -0.28445  0  3.59527  0
N  N134  1  0.85278736  0.33303468  0.89134012  1  -0.812333  0  -0.289025  -0.186105  0  3.668747  0
N  N135  1  0.17079013  0.55545228  0.99935131  1  -0.820471  0  -0.290761  -0.285353  0  3.525981  0
N  N136  1  0.85182285  0.38322958  0.85816149  1  -0.774018  0  -0.273489  -0.199046  0  3.531447  0
N  N137  1  0.14859171  0.49235468  0.01632062  1  -0.798929  0  -0.287435  -0.211592  0  3.54571  0
N  N138  1  0.00811750  0.52914641  0.87642396  1  -0.780233  0  -0.285375  -0.216904  0  3.558023  0
N  N139  1  0.99152863  0.34298359  0.03221982  1  -0.78212  0  -0.271068  -0.203019  0  3.5341  0
N  N140  1  0.19735275  0.61977070  0.16954836  1  -0.813641  0  -0.302696  -0.319508  0  3.491413  0
N  N141  1  0.84995181  0.55339943  0.38009057  1  -1.241662  0  -0.446256  -0.290087  0  3.628227  0
N  N142  1  0.83005521  0.51626212  0.73059308  1  -1.159899  0  -0.448042  -0.324123  0  3.58191  0
N  N143  1  0.33735487  0.02166793  0.38652940  1  -1.241046  0  -0.445035  -0.28799  0  3.636825  0
N  N144  1  0.87874529  0.00280019  0.79888951  1  -1.185781  0  -0.447725  -0.273204  0  3.581762  0
N  N145  1  0.27212053  0.62402005  0.97002672  1  -1.195541  0  -0.445718  -0.319172  0  3.574674  0
N  N146  1  0.29489698  0.66501636  0.30590604  1  -1.206169  0  -0.447748  -0.327293  0  3.582562  0
O  O147  1  0.83805229  0.84410979  0.76244229  1  -1.064995  0  -0.194612  -0.20916  0  2.524918  0
