# generated using pymatgen
data_AgH15C17SN4O5
_symmetry_space_group_name_H-M   'P 1'
_cell_length_a   8.29328030
_cell_length_b   10.27160210
_cell_length_c   11.38448126
_cell_angle_alpha   79.37823231
_cell_angle_beta   77.70982032
_cell_angle_gamma   83.42969093
_symmetry_Int_Tables_number   1
_chemical_formula_structural   AgH15C17SN4O5
_chemical_formula_sum   'Ag2 H30 C34 S2 N8 O10'
_cell_volume   928.46973917
_cell_formula_units_Z   2
loop_
 _symmetry_equiv_pos_site_id
 _symmetry_equiv_pos_as_xyz
  1  'x, y, z'
loop_
 _atom_site_type_symbol
 _atom_site_label
 _atom_site_symmetry_multiplicity
 _atom_site_fract_x
 _atom_site_fract_y
 _atom_site_fract_z
 _atom_site_occupancy
 _atom_site_hle17_bader_spin_density
 _atom_site_hle17_ddec_charge
 _atom_site_hle17_ddec_spin_density
 _atom_site_hle17_ddec_sum_bond_order
 _atom_site_hle17_magmom
 _atom_site_hse06_10hf_bader_spin_density
 _atom_site_hse06_10hf_ddec_charge
 _atom_site_hse06_10hf_ddec_spin_density
 _atom_site_hse06_10hf_ddec_sum_bond_order
 _atom_site_hse06_10hf_magmom
 _atom_site_hse06_bader_spin_density
 _atom_site_hse06_ddec_charge
 _atom_site_hse06_ddec_spin_density
 _atom_site_hse06_ddec_sum_bond_order
 _atom_site_hse06_magmom
 _atom_site_pbe_bader_spin_density
 _atom_site_pbe_cm5_charge
 _atom_site_pbe_ddec_charge
 _atom_site_pbe_ddec_spin_density
 _atom_site_pbe_ddec_sum_bond_order
 _atom_site_pbe_magmom
Ag  Ag0  1  0.32935807  0.41213825  0.53794129  1  0  0.529154  0  1.420227  0  0  0.378172  0  1.856416  0  0  0.40662  0  1.814383  0  0  0.481067  0.358485  0  1.885707  0
Ag  Ag1  1  0.67063401  0.58787947  0.46206485  1  0  0.529121  0  1.420315  0  0  0.378185  0  1.856504  0  0  0.406633  0  1.814465  0  0  0.481036  0.358491  0  1.885793  0
H  H2  1  0.79682132  0.01902031  0.08391844  1  0  0.346517  0  0.919488  0  0  0.327878  0  0.979024  0  0  0.337434  0  0.970973  0  0  0.299917  0.321099  0  0.984781  0
H  H3  1  0.20317869  0.98098757  0.91607596  1  0  0.346737  0  0.919126  0  0  0.327937  0  0.978891  0  0  0.337487  0  0.970855  0  0  0.300015  0.321158  0  0.984649  0
H  H4  1  0.68654949  0.17302583  0.05730454  1  0  0.344079  0  0.905384  0  0  0.325595  0  0.970097  0  0  0.333481  0  0.963537  0  0  0.300094  0.319983  0  0.974783  0
H  H5  1  0.31344550  0.82698597  0.94268284  1  0  0.344186  0  0.905308  0  0  0.325642  0  0.970059  0  0  0.333544  0  0.963477  0  0  0.30016  0.320032  0  0.97474  0
H  H6  1  0.84866041  0.80927480  0.99504012  1  0  0.358981  0  0.913635  0  0  0.337231  0  0.978213  0  0  0.34754  0  0.969002  0  0  0.298679  0.329945  0  0.984675  0
H  H7  1  0.15134323  0.19072217  0.00495735  1  0  0.358938  0  0.913795  0  0  0.337171  0  0.978383  0  0  0.347479  0  0.96918  0  0  0.298666  0.329883  0  0.984844  0
H  H8  1  0.96445843  0.65420546  0.02972423  1  0  0.315832  0  0.896729  0  0  0.307138  0  0.947217  0  0  0.313713  0  0.94226  0  0  0.309335  0.302452  0  0.950804  0
H  H9  1  0.03554776  0.34578456  0.97028811  1  0  0.315823  0  0.896659  0  0  0.307121  0  0.947162  0  0  0.313696  0  0.942206  0  0  0.309308  0.302433  0  0.950753  0
H  H10  1  0.44042226  0.45321878  0.76957370  1  0  0.091331  0  0.955589  0  0  0.098955  0  1.020458  0  0  0.101738  0  1.017777  0  0  0.113682  0.096983  0  1.022298  0
H  H11  1  0.55957861  0.54678513  0.23041332  1  0  0.091395  0  0.955441  0  0  0.098973  0  1.020353  0  0  0.101756  0  1.017673  0  0  0.113706  0.097004  0  1.022189  0
H  H12  1  0.58694926  0.31756339  0.92656883  1  0  0.105423  0  0.939366  0  0  0.121879  0  0.989329  0  0  0.124509  0  0.98894  0  0  0.11231  0.119873  0  0.989819  0
H  H13  1  0.41304409  0.68244839  0.07342668  1  0  0.105388  0  0.939377  0  0  0.121811  0  0.98938  0  0  0.124453  0  0.988979  0  0  0.112283  0.119808  0  0.989867  0
H  H14  1  0.55697780  0.97443357  0.76400372  1  0  0.122748  0  0.973256  0  0  0.128443  0  1.039263  0  0  0.132258  0  1.036742  0  0  0.1129  0.125596  0  1.041336  0
H  H15  1  0.44302942  0.02557439  0.23599325  1  0  0.122755  0  0.973262  0  0  0.128389  0  1.039313  0  0  0.1322  0  1.036801  0  0  0.1129  0.125542  0  1.041386  0
H  H16  1  0.41050410  0.12362082  0.61504527  1  0  0.085522  0  0.943366  0  0  0.095208  0  1.009208  0  0  0.097209  0  1.007022  0  0  0.118935  0.0935  0  1.011204  0
H  H17  1  0.58949304  0.87637906  0.38495256  1  0  0.085549  0  0.943395  0  0  0.095185  0  1.009284  0  0  0.097186  0  1.007097  0  0  0.118939  0.093477  0  1.011281  0
H  H18  1  0.20014067  0.36989139  0.31130054  1  0  0.085987  0  0.947509  0  0  0.09549  0  1.010776  0  0  0.097468  0  1.00926  0  0  0.120545  0.094111  0  1.011781  0
H  H19  1  0.79986340  0.63011255  0.68869574  1  0  0.085979  0  0.94749  0  0  0.095484  0  1.01076  0  0  0.097464  0  1.009244  0  0  0.120523  0.094104  0  1.01177  0
H  H20  1  0.04869052  0.50456773  0.15859062  1  0  0.096843  0  0.947927  0  0  0.112711  0  0.999263  0  0  0.115652  0  0.998094  0  0  0.11019  0.110437  0  1.000454  0
H  H21  1  0.95132591  0.49541846  0.84139816  1  0  0.096854  0  0.947942  0  0  0.11274  0  0.999265  0  0  0.115681  0  0.998096  0  0  0.110225  0.110468  0  1.000455  0
H  H22  1  0.03465352  0.83905986  0.34165136  1  0  0.122518  0  0.966356  0  0  0.12806  0  1.030509  0  0  0.130672  0  1.031111  0  0  0.114306  0.126624  0  1.029294  0
H  H23  1  0.96533913  0.16093698  0.65834579  1  0  0.122485  0  0.966542  0  0  0.128065  0  1.030652  0  0  0.130684  0  1.031234  0  0  0.114272  0.12663  0  1.029437  0
H  H24  1  0.18572364  0.68771351  0.49138131  1  0  0.084846  0  0.988901  0  0  0.091076  0  1.055988  0  0  0.092322  0  1.056346  0  0  0.112388  0.089907  0  1.056335  0
H  H25  1  0.81426169  0.31229220  0.50861798  1  0  0.084823  0  0.988929  0  0  0.091061  0  1.055999  0  0  0.092301  0  1.056366  0  0  0.1124  0.089894  0  1.056333  0
H  H26  1  0.65775358  0.01800705  0.51811680  1  0  0.115674  0  0.971373  0  0  0.124649  0  1.037895  0  0  0.127686  0  1.036235  0  0  0.106868  0.122302  0  1.039486  0
H  H27  1  0.34226373  0.98195925  0.48187862  1  0  0.115675  0  0.971432  0  0  0.124641  0  1.037944  0  0  0.127678  0  1.036283  0  0  0.10676  0.122299  0  1.039531  0
H  H28  1  0.98863569  0.24714901  0.23188196  1  0  0.091155  0  0.949787  0  0  0.103932  0  1.007825  0  0  0.107304  0  1.006014  0  0  0.099657  0.1015  0  1.009192  0
H  H29  1  0.01135603  0.75284085  0.76812611  1  0  0.091097  0  0.949823  0  0  0.103887  0  1.007847  0  0  0.107256  0  1.006041  0  0  0.099683  0.101459  0  1.009207  0
H  H30  1  0.76979291  0.86075133  0.67925207  1  0  0.110782  0  0.969888  0  0  0.120027  0  1.033067  0  0  0.123881  0  1.029842  0  0  0.104131  0.117204  0  1.035533  0
H  H31  1  0.23020505  0.13923265  0.32074385  1  0  0.110857  0  0.969823  0  0  0.120012  0  1.033107  0  0  0.123868  0  1.02988  0  0  0.104158  0.117188  0  1.035575  0
C  C32  1  0.46916838  0.34643627  0.77285665  1  0  0.10383  0  3.701429  0  0  0.072878  0  3.949567  0  0  0.078982  0  3.969037  0  0  0.035088  0.068497  0  3.936951  0
C  C33  1  0.53081982  0.65356550  0.22714379  1  0  0.103927  0  3.701263  0  0  0.073009  0  3.949397  0  0  0.079117  0  3.968864  0  0  0.035106  0.068627  0  3.936784  0
C  C34  1  0.55116703  0.26940270  0.85937458  1  0  -0.123307  0  3.715735  0  0  -0.145599  0  3.96021  0  0  -0.151026  0  3.982119  0  0  -0.078945  -0.141837  0  3.945406  0
C  C35  1  0.44880555  0.73060187  0.14063708  1  0  -0.123525  0  3.715949  0  0  -0.145796  0  3.960427  0  0  -0.151231  0  3.982326  0  0  -0.079074  -0.142037  0  3.945627  0
C  C36  1  0.58822515  0.13347887  0.85589738  1  0  -0.002557  0  3.717784  0  0  0.017963  0  3.947777  0  0  0.0168  0  3.968274  0  0  0.009144  0.018593  0  3.933858  0
C  C37  1  0.41175730  0.86652680  0.14411020  1  0  -0.002456  0  3.717551  0  0  0.018063  0  3.947527  0  0  0.016899  0  3.968026  0  0  0.009263  0.018691  0  3.933615  0
C  C38  1  0.53476995  0.07993269  0.76805535  1  0  -0.108607  0  3.68915  0  0  -0.133063  0  3.937422  0  0  -0.138564  0  3.958229  0  0  -0.072945  -0.129406  0  3.923593  0
C  C39  1  0.46522381  0.92007312  0.23194635  1  0  -0.108679  0  3.689139  0  0  -0.133083  0  3.937434  0  0  -0.138577  0  3.95823  0  0  -0.072974  -0.129429  0  3.923613  0
C  C40  1  0.45297344  0.16245907  0.68496615  1  0  0.132769  0  3.679224  0  0  0.100718  0  3.926772  0  0  0.107561  0  3.945613  0  0  0.048855  0.096258  0  3.914312  0
C  C41  1  0.54702288  0.83754677  0.31503346  1  0  0.132721  0  3.679141  0  0  0.100713  0  3.926649  0  0  0.107554  0  3.945489  0  0  0.048786  0.096254  0  3.914185  0
C  C42  1  0.68698255  0.04048009  0.93745627  1  0  0.598865  0  3.85378  0  0  0.55048  0  4.142452  0  0  0.579459  0  4.14151  0  0  0.240591  0.531067  0  4.142261  0
C  C43  1  0.31300957  0.95952173  0.06253926  1  0  0.599152  0  3.85347  0  0  0.550769  0  4.142134  0  0  0.579748  0  4.141187  0  0  0.240692  0.531354  0  4.141942  0
C  C44  1  0.16071397  0.47412583  0.31504515  1  0  0.119271  0  3.695966  0  0  0.088099  0  3.94238  0  0  0.094077  0  3.962569  0  0  0.04912  0.083983  0  3.928663  0
C  C45  1  0.83928080  0.52587403  0.68495124  1  0  0.119269  0  3.69607  0  0  0.088142  0  3.942515  0  0  0.09412  0  3.962703  0  0  0.049133  0.08402  0  3.928796  0
C  C46  1  0.07738931  0.55148500  0.22928884  1  0  -0.135062  0  3.732894  0  0  -0.156742  0  3.982485  0  0  -0.162166  0  4.002885  0  0  -0.078813  -0.153127  0  3.969072  0
C  C47  1  0.92260867  0.44850992  0.77070442  1  0  -0.135247  0  3.732948  0  0  -0.156946  0  3.982539  0  0  -0.162374  0  4.00294  0  0  -0.07891  -0.153333  0  3.969128  0
C  C48  1  0.03138497  0.68538148  0.23753983  1  0  -0.016176  0  3.752509  0  0  -0.001634  0  3.996239  0  0  -0.002092  0  4.014841  0  0  0.006311  -0.00148  0  3.983759  0
C  C49  1  0.96861057  0.31461242  0.76245566  1  0  -0.016046  0  3.75234  0  0  -0.001423  0  3.996125  0  0  -0.001881  0  4.014725  0  0  0.006363  -0.001266  0  3.983645  0
C  C50  1  0.06940385  0.73526374  0.33366192  1  0  -0.121767  0  3.710684  0  0  -0.144011  0  3.962784  0  0  -0.149207  0  3.982729  0  0  -0.073882  -0.140355  0  3.948996  0
C  C51  1  0.93060300  0.26473228  0.66632298  1  0  -0.122004  0  3.710611  0  0  -0.144315  0  3.962742  0  0  -0.149509  0  3.982688  0  0  -0.073955  -0.140663  0  3.948959  0
C  C52  1  0.15160070  0.65230163  0.41629040  1  0  0.123364  0  3.673337  0  0  0.092296  0  3.918931  0  0  0.098317  0  3.939168  0  0  0.044681  0.087834  0  3.906007  0
C  C53  1  0.84839817  0.34769629  0.58370225  1  0  0.12366  0  3.673031  0  0  0.092702  0  3.918533  0  0  0.098725  0  3.938769  0  0  0.044837  0.088237  0  3.90561  0
C  C54  1  0.94271810  0.78222894  0.15167773  1  0  0.600486  0  3.865433  0  0  0.549029  0  4.162056  0  0  0.577839  0  4.161362  0  0  0.241043  0.529603  0  4.161911  0
C  C55  1  0.05728020  0.21778190  0.84831905  1  0  0.600671  0  3.865069  0  0  0.548936  0  4.162089  0  0  0.577752  0  4.161384  0  0  0.241033  0.52951  0  4.161941  0
C  C56  1  0.80863271  0.14254732  0.37294065  1  0  -0.105938  0  3.731413  0  0  -0.079193  0  3.977447  0  0  -0.084198  0  3.99757  0  0  -0.021192  -0.076191  0  3.964162  0
C  C57  1  0.19138109  0.85744279  0.62706630  1  0  -0.106109  0  3.731602  0  0  -0.079112  0  3.977293  0  0  -0.084118  0  3.997418  0  0  -0.021107  -0.076109  0  3.964007  0
C  C58  1  0.78212272  0.04584750  0.47533451  1  0  -0.112911  0  3.692247  0  0  -0.145722  0  3.939941  0  0  -0.145434  0  3.958644  0  0  -0.084021  -0.14587  0  3.927771  0
C  C59  1  0.21788700  0.95415550  0.52467350  1  0  -0.112897  0  3.692124  0  0  -0.145739  0  3.939758  0  0  -0.145459  0  3.958482  0  0  -0.083945  -0.145893  0  3.927574  0
C  C60  1  0.91771364  0.98178854  0.52752648  1  0  0.054121  0  3.770992  0  0  0.073902  0  3.993931  0  0  0.073625  0  4.016999  0  0  -0.006523  0.07392  0  3.97824  0
C  C61  1  0.08227122  0.01821417  0.47248918  1  0  0.054413  0  3.770561  0  0  0.074086  0  3.993596  0  0  0.07381  0  4.016664  0  0  -0.006373  0.074123  0  3.977879  0
C  C62  1  0.97138060  0.17485120  0.31570748  1  0  -0.063222  0  3.762638  0  0  -0.090108  0  4.019188  0  0  -0.090576  0  4.038512  0  0  -0.088882  -0.089427  0  4.005717  0
C  C63  1  0.02862595  0.82514479  0.68430735  1  0  -0.063107  0  3.762277  0  0  -0.090079  0  4.018808  0  0  -0.090545  0  4.038129  0  0  -0.088987  -0.0894  0  4.005335  0
C  C64  1  0.89507411  0.88532659  0.63539506  1  0  -0.104335  0  3.711053  0  0  -0.125897  0  3.964154  0  0  -0.127349  0  3.98265  0  0  -0.08564  -0.124599  0  3.951039  0
C  C65  1  0.10493395  0.11467937  0.36461444  1  0  -0.104384  0  3.7111  0  0  -0.125854  0  3.964208  0  0  -0.127304  0  3.982694  0  0  -0.085742  -0.12456  0  3.951087  0
S  S66  1  0.63788928  0.24324738  0.32066680  1  0  1.291203  0  5.683862  0  0  1.199143  0  6.201854  0  0  1.246818  0  6.177848  0  0  0.491555  1.166195  0  6.217088  0
S  S67  1  0.36212042  0.75674467  0.67934387  1  0  1.291235  0  5.684228  0  0  1.199069  0  6.202229  0  0  1.246746  0  6.178223  0  0  0.491554  1.16612  0  6.21746  0
N  N68  1  0.42306498  0.29408826  0.68566465  1  0  -0.29405  0  3.371173  0  0  -0.200598  0  3.646763  0  0  -0.22006  0  3.664559  0  0  -0.353656  -0.187121  0  3.634389  0
N  N69  1  0.57692178  0.70591448  0.31433758  1  0  -0.294024  0  3.370863  0  0  -0.200538  0  3.646366  0  0  -0.220001  0  3.664163  0  0  -0.353559  -0.187061  0  3.633992  0
N  N70  1  0.19735612  0.52361107  0.40712982  1  0  -0.285744  0  3.36414  0  0  -0.194132  0  3.641641  0  0  -0.21271  0  3.658688  0  0  -0.348388  -0.181541  0  3.630002  0
N  N71  1  0.80265455  0.47639196  0.59285961  1  0  -0.285786  0  3.364144  0  0  -0.194325  0  3.641806  0  0  -0.212902  0  3.658849  0  0  -0.348449  -0.181715  0  3.630143  0
N  N72  1  0.73076654  0.08536007  0.02790118  1  0  -0.674503  0  3.125414  0  0  -0.63656  0  3.361296  0  0  -0.66098  0  3.357566  0  0  -0.561566  -0.619742  0  3.36363  0
N  N73  1  0.26922556  0.91465070  0.97209729  1  0  -0.674871  0  3.125298  0  0  -0.636759  0  3.36146  0  0  -0.661191  0  3.357692  0  0  -0.561752  -0.619942  0  3.363799  0
N  N74  1  0.91430034  0.74267720  0.05257958  1  0  -0.674974  0  3.101472  0  0  -0.637899  0  3.330435  0  0  -0.661566  0  3.325543  0  0  -0.560755  -0.621388  0  3.333405  0
N  N75  1  0.08569612  0.25731670  0.94742195  1  0  -0.67495  0  3.101471  0  0  -0.637778  0  3.330556  0  0  -0.661447  0  3.325667  0  0  -0.560695  -0.621267  0  3.333524  0
O  O76  1  0.72680672  0.92419634  0.91569990  1  0  -0.579045  0  1.931226  0  0  -0.526545  0  2.14303  0  0  -0.549799  0  2.138147  0  0  -0.299631  -0.510467  0  2.14583  0
O  O77  1  0.27321117  0.07581771  0.08428944  1  0  -0.57922  0  1.931  0  0  -0.526688  0  2.142787  0  0  -0.549937  0  2.137891  0  0  -0.299679  -0.510608  0  2.145583  0
O  O78  1  0.89702567  0.89534405  0.17743343  1  0  -0.545891  0  1.944183  0  0  -0.491945  0  2.152274  0  0  -0.514367  0  2.148933  0  0  -0.283087  -0.476541  0  2.154153  0
O  O79  1  0.10298139  0.10466489  0.82256429  1  0  -0.546056  0  1.943925  0  0  -0.491917  0  2.152098  0  0  -0.514338  0  2.148757  0  0  -0.283121  -0.476513  0  2.153976  0
O  O80  1  0.49230611  0.16609172  0.36432526  1  0  -0.672557  0  1.950412  0  0  -0.625198  0  2.207053  0  0  -0.64579  0  2.192177  0  0  -0.346642  -0.610354  0  2.216948  0
O  O81  1  0.50770361  0.83389934  0.63568733  1  0  -0.672572  0  1.950461  0  0  -0.625224  0  2.207153  0  0  -0.64581  0  2.192262  0  0  -0.346677  -0.610381  0  2.217048  0
O  O82  1  0.62480544  0.36206931  0.38000786  1  0  -0.728206  0  2.042721  0  0  -0.668068  0  2.33323  0  0  -0.690662  0  2.313469  0  0  -0.365855  -0.651653  0  2.346277  0
O  O83  1  0.37522721  0.63792499  0.62000387  1  0  -0.728138  0  2.042801  0  0  -0.667979  0  2.333323  0  0  -0.690574  0  2.31356  0  0  -0.365851  -0.651566  0  2.346381  0
O  O84  1  0.68495273  0.27733815  0.18724481  1  0  -0.682547  0  1.896754  0  0  -0.638155  0  2.131529  0  0  -0.656541  0  2.11519  0  0  -0.37096  -0.624974  0  2.142177  0
O  O85  1  0.31505270  0.72266082  0.81276089  1  0  -0.682539  0  1.896928  0  0  -0.638124  0  2.131701  0  0  -0.656514  0  2.115368  0  0  -0.370961  -0.624943  0  2.142348  0
