# generated using pymatgen
data_V4Cu3H4C4(NO2)6
_symmetry_space_group_name_H-M   'P 1'
_cell_length_a   8.84194435
_cell_length_b   8.89825525
_cell_length_c   11.42367307
_cell_angle_alpha   111.90357145
_cell_angle_beta   89.99861239
_cell_angle_gamma   90.00764645
_symmetry_Int_Tables_number   1
_chemical_formula_structural   V4Cu3H4C4(NO2)6
_chemical_formula_sum   'V8 Cu6 H8 C8 N12 O24'
_cell_volume   833.90936867
_cell_formula_units_Z   2
loop_
 _symmetry_equiv_pos_site_id
 _symmetry_equiv_pos_as_xyz
  1  'x, y, z'
loop_
 _atom_site_type_symbol
 _atom_site_label
 _atom_site_symmetry_multiplicity
 _atom_site_fract_x
 _atom_site_fract_y
 _atom_site_fract_z
 _atom_site_occupancy
 _atom_site_hle17_ddec_charge
 _atom_site_hle17_ddec_spin_density
 _atom_site_hle17_ddec_sum_bond_order
 _atom_site_hle17_magmom
 _atom_site_hse06_10hf_ddec_charge
 _atom_site_hse06_10hf_ddec_spin_density
 _atom_site_hse06_10hf_ddec_sum_bond_order
 _atom_site_hse06_10hf_magmom
 _atom_site_hse06_ddec_charge
 _atom_site_hse06_ddec_spin_density
 _atom_site_hse06_ddec_sum_bond_order
 _atom_site_hse06_magmom
 _atom_site_pbe_cm5_charge
 _atom_site_pbe_ddec_charge
 _atom_site_pbe_ddec_spin_density
 _atom_site_pbe_ddec_sum_bond_order
 _atom_site_pbe_magmom
V  V0  1  0.68071396  0.19782262  0.01861110  1  1.998702  -0.01285  2.957991  -0.017  2.076944  -0.005425  3.338618  -0.008  2.175627  -0.004688  3.316896  -0.007  1.456274  1.994312  -0.005464  3.380259  -0.008
V  V1  1  0.18062146  0.30215066  0.48161196  1  1.999068  -0.012738  2.956794  -0.017  2.077367  -0.00539  3.337334  -0.008  2.17607  -0.004646  3.315617  -0.007  1.455703  1.994296  -0.005401  3.379534  -0.008
V  V2  1  0.31902878  0.80185528  0.98147071  1  1.998687  -0.012453  2.960431  -0.017  2.077148  -0.005225  3.340781  -0.008  2.175745  -0.004503  3.31919  -0.007  1.456705  1.995051  -0.005249  3.381738  -0.008
V  V3  1  0.81927060  0.69804203  0.51866404  1  1.998424  -0.012836  2.959349  -0.017  2.076682  -0.005412  3.340013  -0.008  2.175358  -0.004662  3.318345  -0.007  1.455918  1.993938  -0.005448  3.381809  -0.008
V  V4  1  0.84746769  0.08507196  0.73407173  1  1.998391  0.014155  3.007046  0.022  2.077154  0.022869  3.394548  0.037  2.174642  0.018165  3.369694  0.031  1.45247  1.994214  0.02571  3.442534  0.04
V  V5  1  0.34718876  0.41475997  0.76618120  1  1.997608  0.014132  3.005445  0.022  2.077003  0.022949  3.392075  0.037  2.17393  0.018232  3.368149  0.031  1.451825  1.994074  0.025839  3.439965  0.04
V  V6  1  0.15239496  0.91508436  0.26601687  1  1.998242  0.013758  3.004399  0.021  2.076954  0.022752  3.392115  0.037  2.174628  0.018059  3.367056  0.031  1.452068  1.993977  0.025639  3.440061  0.04
V  V7  1  0.65247141  0.58481381  0.23415575  1  1.998909  0.01387  3.005585  0.022  2.077901  0.022703  3.392799  0.037  2.175238  0.018041  3.368274  0.031  1.452751  1.994897  0.025562  3.440801  0.04
Cu  Cu8  1  0.00005202  0.00006790  0.00036550  1  0.933547  -0.607965  1.920207  -0.45  0.938799  -0.754154  2.318124  -0.61  1.030574  -0.861762  2.237206  -0.713  0.770452  0.875951  -0.590088  2.374734  -0.472
Cu  Cu9  1  0.49999410  0.50014838  0.49990801  1  0.934455  -0.608145  1.919682  -0.45  0.939307  -0.754223  2.318574  -0.61  1.031864  -0.86177  2.236342  -0.713  0.770588  0.876516  -0.59035  2.375132  -0.472
Cu  Cu10  1  0.70872955  0.88001997  0.11483053  1  1.019016  0.649779  1.81546  0.494  1.035251  0.766531  2.192366  0.63  1.113225  0.850315  2.131422  0.725  0.785105  0.980204  0.66058  2.241067  0.529
Cu  Cu11  1  0.20934949  0.61989713  0.38497008  1  1.018629  0.650089  1.818205  0.495  1.034891  0.766374  2.195227  0.631  1.112859  0.849986  2.134236  0.725  0.786013  0.980182  0.66112  2.243546  0.53
Cu  Cu12  1  0.29082318  0.11952343  0.88504765  1  1.018533  0.649565  1.823025  0.494  1.034633  0.766083  2.200428  0.63  1.112262  0.849707  2.139392  0.725  0.786594  0.980406  0.660019  2.248424  0.529
Cu  Cu13  1  0.79123360  0.38028580  0.61471394  1  1.018859  0.649358  1.818981  0.494  1.034955  0.766317  2.19629  0.63  1.112601  0.850112  2.135688  0.725  0.785419  0.980291  0.659856  2.244605  0.529
H  H14  1  0.68104736  0.51036188  0.89718573  1  0.113485  -0.000544  0.920881  0.0  0.122565  -0.000153  0.979868  0.0  0.123797  -0.000117  0.976999  0.0  0.150524  0.121526  -0.000148  0.981826  0.0
H  H15  1  0.18078001  0.98923691  0.60228811  1  0.112856  -0.000541  0.921687  0.0  0.122216  -0.000152  0.98041  0.0  0.1234  -0.000117  0.977626  0.0  0.150452  0.121222  -0.000147  0.982302  0.0
H  H16  1  0.31959675  0.48883261  0.10190304  1  0.113347  -0.000539  0.921259  0.0  0.122352  -0.000151  0.980182  0.0  0.123643  -0.000116  0.97728  0.0  0.150592  0.121251  -0.000146  0.982192  0.0
H  H17  1  0.81886323  0.01066497  0.39747624  1  0.113086  -0.000544  0.921204  0.0  0.122329  -0.000152  0.980049  0.0  0.123564  -0.000116  0.977175  0.0  0.150443  0.121291  -0.000147  0.982003  0.0
H  H18  1  0.03565695  0.68213309  0.73384149  1  0.119742  0.000253  0.926725  0.0  0.131048  0.00033  0.981221  0.0  0.132581  0.00025  0.978394  0.0  0.148961  0.129601  0.000343  0.983487  0.001
H  H19  1  0.53528310  0.81837034  0.76627434  1  0.119919  0.00026  0.927451  0.0  0.131043  0.000332  0.982183  0.0  0.132588  0.000252  0.979338  0.0  0.149186  0.129609  0.000346  0.984438  0.001
H  H20  1  0.96531751  0.31902265  0.26681928  1  0.12018  0.000263  0.927839  0.0  0.13132  0.000333  0.982572  0.0  0.13288  0.000252  0.979711  0.0  0.149093  0.129865  0.000347  0.984845  0.001
H  H21  1  0.46458070  0.18172654  0.23341533  1  0.120011  0.000254  0.926342  0.0  0.13101  0.00033  0.981398  0.0  0.132558  0.00025  0.978545  0.0  0.149003  0.129554  0.000343  0.98369  0.001
C  C22  1  0.77136749  0.58380660  0.88295975  1  0.249044  -0.002081  3.618375  -0.002  0.20348  0.000763  3.881678  0.001  0.221494  -0.000339  3.89299  0.0  0.167315  0.1921  0.001582  3.873488  0.002
C  C23  1  0.27117355  0.91612738  0.61681279  1  0.249945  -0.002097  3.617249  -0.002  0.203965  0.000774  3.880743  0.001  0.222001  -0.000323  3.8921  0.0  0.167777  0.192586  0.001594  3.872538  0.002
C  C24  1  0.22923253  0.41580464  0.11661862  1  0.248994  -0.002132  3.617062  -0.002  0.203552  0.000778  3.880387  0.001  0.221493  -0.000323  3.89171  0.0  0.166965  0.192275  0.001586  3.872222  0.002
C  C25  1  0.72860881  0.08401556  0.38305046  1  0.249086  -0.002078  3.617666  -0.002  0.203432  0.000752  3.880932  0.001  0.221438  -0.000342  3.89226  0.0  0.16737  0.192079  0.001572  3.872728  0.002
C  C26  1  0.95248067  0.67054729  0.79950639  1  0.231624  0.003471  3.650302  0.003  0.179996  0.001712  3.929389  0.001  0.198376  0.001385  3.941072  0.001  0.162295  0.168386  0.001957  3.920831  0.002
C  C27  1  0.45223526  0.82989837  0.70054696  1  0.231787  0.003388  3.649342  0.003  0.180346  0.001683  3.928402  0.001  0.198714  0.00135  3.940118  0.001  0.162596  0.168737  0.001931  3.91987  0.002
C  C28  1  0.04819518  0.33007785  0.20077966  1  0.230735  0.003276  3.649837  0.003  0.179223  0.001642  3.929101  0.001  0.197593  0.001313  3.940779  0.001  0.162077  0.167659  0.001874  3.920517  0.002
C  C29  1  0.54761610  0.17042261  0.29927959  1  0.230936  0.003453  3.648651  0.003  0.179541  0.001696  3.928003  0.001  0.197902  0.001378  3.93976  0.001  0.161883  0.167963  0.001936  3.919402  0.002
N  N30  1  0.81421249  0.72599650  0.96738663  1  -0.242858  0.060124  3.248972  0.079  -0.205622  0.042662  3.547642  0.058  -0.231757  0.035583  3.568369  0.051  -0.271887  -0.188205  0.043658  3.534259  0.058
N  N31  1  0.31444197  0.77412412  0.53244192  1  -0.242916  0.06007  3.250007  0.079  -0.205682  0.042571  3.549084  0.058  -0.231836  0.035496  3.569848  0.051  -0.272372  -0.188324  0.043614  3.535675  0.057
N  N32  1  0.18581187  0.27369106  0.03250979  1  -0.242047  0.060224  3.250657  0.079  -0.204695  0.042711  3.549073  0.058  -0.23075  0.035639  3.569729  0.051  -0.271991  -0.187405  0.043732  3.535696  0.058
N  N33  1  0.68571476  0.22628407  0.46728828  1  -0.241798  0.060201  3.247753  0.079  -0.204419  0.042739  3.54631  0.059  -0.230481  0.035652  3.567106  0.051  -0.271649  -0.187081  0.043705  3.532958  0.058
N  N34  1  0.92886484  0.78082649  0.91453902  1  -0.257145  -0.051909  3.306148  -0.067  -0.224433  -0.039431  3.621233  -0.053  -0.254896  -0.035203  3.644189  -0.049  -0.281505  -0.203815  -0.034694  3.60633  -0.046
N  N35  1  0.42903447  0.71956251  0.58546944  1  -0.257565  -0.051783  3.305209  -0.066  -0.224984  -0.039327  3.620838  -0.053  -0.255595  -0.035099  3.643741  -0.049  -0.281747  -0.204357  -0.034628  3.605957  -0.046
N  N36  1  0.07125908  0.21938924  0.08579706  1  -0.25724  -0.051632  3.305257  -0.066  -0.224476  -0.039271  3.620396  -0.053  -0.2549  -0.035066  3.643235  -0.049  -0.281324  -0.203882  -0.034537  3.605594  -0.046
N  N37  1  0.57116525  0.28093046  0.41423987  1  -0.257163  -0.05191  3.305104  -0.067  -0.224687  -0.039396  3.620733  -0.053  -0.255323  -0.035171  3.643603  -0.049  -0.281237  -0.204076  -0.034681  3.605887  -0.046
N  N38  1  0.85475205  0.54565913  0.77598439  1  -0.381793  0.061391  3.231731  0.08  -0.338894  0.042828  3.536723  0.058  -0.372291  0.035273  3.547896  0.05  -0.365611  -0.316108  0.044347  3.528427  0.058
N  N39  1  0.35422637  0.95443578  0.72396197  1  -0.381716  0.061408  3.232095  0.08  -0.338523  0.042828  3.537072  0.058  -0.371871  0.035299  3.548062  0.05  -0.366631  -0.315828  0.044357  3.528841  0.058
N  N40  1  0.14626646  0.45451296  0.22384792  1  -0.381322  0.061563  3.231377  0.081  -0.33856  0.042848  3.536725  0.058  -0.372035  0.03529  3.547864  0.05  -0.36614  -0.315813  0.044441  3.52841  0.058
N  N41  1  0.64532866  0.04559574  0.27600460  1  -0.381606  0.061468  3.230593  0.08  -0.338816  0.042845  3.535718  0.058  -0.372276  0.035276  3.546886  0.05  -0.365776  -0.315975  0.044388  3.527371  0.058
O  O42  1  0.71532793  0.17670309  0.85985075  1  -0.959032  0.002416  1.560621  0.003  -0.989779  0.001215  1.859187  0.001  -1.034363  0.000767  1.850396  0.001  -0.685539  -0.952092  0.002012  1.869972  0.002
O  O43  1  0.21496472  0.32311960  0.64045633  1  -0.958903  0.002442  1.559721  0.003  -0.989868  0.001227  1.858195  0.001  -1.034294  0.000766  1.849503  0.001  -0.685042  -0.952041  0.002032  1.869018  0.002
O  O44  1  0.28486158  0.82357925  0.14041451  1  -0.958875  0.002426  1.560077  0.003  -0.989687  0.001222  1.858546  0.001  -1.034295  0.000765  1.849735  0.001  -0.685186  -0.952138  0.002025  1.869212  0.002
O  O45  1  0.78472147  0.67660315  0.35985036  1  -0.958786  0.00241  1.56051  0.003  -0.989624  0.001219  1.859031  0.001  -1.034161  0.000767  1.850281  0.001  -0.685365  -0.951876  0.002004  1.869813  0.002
O  O46  1  0.72922177  0.39566010  0.12420553  1  -0.984638  0.000171  1.556075  0.0  -1.012748  -5e-05  1.8459  0.0  -1.057573  -0.000245  1.83883  -0.001  -0.691538  -0.975224  0.000146  1.85593  0.0
O  O47  1  0.22919411  0.10428017  0.37606653  1  -0.984569  0.00015  1.555221  0.0  -1.012614  -6.7e-05  1.845127  0.0  -1.057553  -0.000257  1.838063  -0.001  -0.691135  -0.974964  0.000129  1.855178  0.0
O  O48  1  0.27050400  0.60400696  0.87622154  1  -0.984302  0.000163  1.558107  0.0  -1.012621  -6e-05  1.848135  0.0  -1.05733  -0.000256  1.841155  -0.001  -0.691392  -0.975244  0.000142  1.858041  0.0
O  O49  1  0.77076129  0.89583618  0.62402972  1  -0.984217  0.000183  1.557121  0.0  -1.012284  -4.1e-05  1.847112  0.0  -1.057171  -0.00024  1.840051  -0.001  -0.691331  -0.974725  0.000158  1.857137  0.0
O  O50  1  0.78400448  0.05301315  0.05604184  1  -0.920705  0.001822  1.772098  0.004  -0.962299  -0.001356  2.138349  -0.001  -1.029409  -0.002674  2.130461  -0.003  -0.610842  -0.910916  0.003934  2.144706  0.006
O  O51  1  0.28393257  0.44703188  0.44432087  1  -0.920846  0.001435  1.771256  0.003  -0.962295  -0.001477  2.137516  -0.002  -1.029429  -0.002759  2.129392  -0.004  -0.611174  -0.910974  0.003802  2.144027  0.006
O  O52  1  0.21592036  0.94677132  0.94399040  1  -0.920891  0.000999  1.77312  0.003  -0.962669  -0.0017  2.139695  -0.002  -1.029734  -0.002884  2.131746  -0.004  -0.611178  -0.911504  0.003532  2.145938  0.005
O  O53  1  0.71588485  0.55319113  0.55611887  1  -0.921042  0.001565  1.772652  0.003  -0.962564  -0.001452  2.139049  -0.002  -1.029837  -0.002712  2.131053  -0.003  -0.610796  -0.911162  0.003742  2.145478  0.005
O  O54  1  0.50183590  0.16748587  0.03241185  1  -0.75603  0.01202  1.419291  0.018  -0.787151  0.004684  1.708077  0.009  -0.819009  0.003164  1.698537  0.007  -0.578333  -0.761011  0.006353  1.715952  0.011
O  O55  1  0.00176711  0.33220128  0.46734989  1  -0.756744  0.011969  1.420201  0.018  -0.787932  0.004677  1.709138  0.009  -0.819788  0.003149  1.699581  0.007  -0.578334  -0.761579  0.006341  1.717115  0.011
O  O56  1  0.49789210  0.83156209  0.96711233  1  -0.756081  0.011796  1.419225  0.018  -0.787123  0.004614  1.707418  0.009  -0.818979  0.003124  1.697857  0.007  -0.578577  -0.761029  0.006226  1.715223  0.011
O  O57  1  0.99816341  0.66791019  0.53255761  1  -0.755977  0.01201  1.418799  0.018  -0.787093  0.004679  1.707253  0.009  -0.818959  0.003164  1.69768  0.007  -0.578087  -0.760827  0.006308  1.715147  0.011
O  O58  1  0.88116318  0.20828643  0.65628073  1  -0.854147  0.065215  1.572637  0.089  -0.888795  0.039846  1.895105  0.057  -0.935516  0.030138  1.881846  0.045  -0.62044  -0.852116  0.043401  1.906331  0.059
O  O59  1  0.38131998  0.29145586  0.84386935  1  -0.853712  0.065831  1.573035  0.09  -0.888773  0.040083  1.895622  0.057  -0.935415  0.030304  1.882492  0.045  -0.620253  -0.852073  0.043724  1.906697  0.06
O  O60  1  0.11831381  0.79164938  0.34359764  1  -0.853311  0.066158  1.570937  0.09  -0.888144  0.040232  1.893338  0.057  -0.935043  0.030393  1.880094  0.045  -0.620101  -0.851459  0.043933  1.904487  0.06
O  O61  1  0.61842048  0.70801496  0.15640880  1  -0.853927  0.065535  1.570127  0.089  -0.888802  0.03999  1.892358  0.057  -0.935501  0.030226  1.879054  0.045  -0.620446  -0.85206  0.043589  1.903608  0.06
O  O62  1  0.99379453  0.94861521  0.20477391  1  -0.841249  0.000698  1.408239  0.0  -0.886584  0.0002  1.714811  -0.001  -0.920567  -0.000697  1.700605  -0.002  -0.602953  -0.859616  0.001471  1.728037  0.001
O  O63  1  0.49376106  0.55131244  0.29523436  1  -0.841718  0.000606  1.409357  0.0  -0.886947  0.000181  1.715938  -0.001  -0.920953  -0.000705  1.701797  -0.002  -0.602995  -0.859992  0.001426  1.729183  0.001
O  O64  1  0.00617106  0.05167915  0.79514207  1  -0.840746  0.000443  1.407781  0.0  -0.886287  0.000111  1.714557  -0.001  -0.920096  -0.00075  1.700365  -0.002  -0.602885  -0.859466  0.001337  1.727803  0.001
O  O65  1  0.50564465  0.44842598  0.70484666  1  -0.840229  0.000538  1.405005  0.0  -0.885935  0.00015  1.711269  -0.001  -0.919655  -0.000742  1.697226  -0.002  -0.602624  -0.859058  0.001386  1.724479  0.001
