# generated using pymatgen
data_PrH8(C2O3)3
_symmetry_space_group_name_H-M   'P 1'
_cell_length_a   6.20249453
_cell_length_b   7.38420732
_cell_length_c   28.38880719
_cell_angle_alpha   89.99971893
_cell_angle_beta   90.00010379
_cell_angle_gamma   90.00005519
_symmetry_Int_Tables_number   1
_chemical_formula_structural   PrH8(C2O3)3
_chemical_formula_sum   'Pr4 H32 C24 O36'
_cell_volume   1300.22171838
_cell_formula_units_Z   4
loop_
 _symmetry_equiv_pos_site_id
 _symmetry_equiv_pos_as_xyz
  1  'x, y, z'
loop_
 _atom_site_type_symbol
 _atom_site_label
 _atom_site_symmetry_multiplicity
 _atom_site_fract_x
 _atom_site_fract_y
 _atom_site_fract_z
 _atom_site_occupancy
 _atom_site_pbe_bader_charge
 _atom_site_pbe_bader_spin_density
 _atom_site_pbe_cm5_charge
 _atom_site_pbe_ddec_charge
 _atom_site_pbe_ddec_spin_density
 _atom_site_pbe_ddec_sum_bond_order
 _atom_site_pbe_magmom
Pr  Pr0  1  0.57084782  0.90783813  0.66386611  1  2.256396  0  1.4795  2.047657  0  2.150426  0
Pr  Pr1  1  0.57084759  0.09215722  0.33613358  1  2.256392  0  1.479505  2.04771  0  2.150336  0
Pr  Pr2  1  0.42915739  0.59216508  0.16386570  1  2.256457  0  1.479483  2.047686  0  2.150348  0
Pr  Pr3  1  0.42915527  0.40783557  0.83613429  1  2.25638  0  1.479489  2.047678  0  2.150319  0
H  H4  1  0.01306847  0.03521625  0.65298057  1  0.650317  0  0.302939  0.394924  0  0.944494  0
H  H5  1  0.92300865  0.10888645  0.60537461  1  0.605907  0  0.337009  0.420193  0  0.859433  0
H  H6  1  0.49110217  0.47601396  0.64845113  1  0.643855  0  0.351277  0.398916  0  0.854657  0
H  H7  1  0.12506071  0.44709537  0.64595996  1  0.114768  0  0.130167  0.102196  0  0.944236  0
H  H8  1  0.31425774  0.64921225  0.75412433  1  0.633742  0  0.301776  0.338512  0  1.020256  0
H  H9  1  0.04459336  0.35838637  0.72202519  1  0.116912  0  0.133374  0.114427  0  0.9369  0
H  H10  1  0.70157835  0.82654329  0.49822661  1  0.042896  0  0.100296  0.112745  0  0.966056  0
H  H11  1  0.41692514  0.83115438  0.49717543  1  0.093933  0  0.109332  0.129134  0  0.956692  0
H  H12  1  0.01306772  0.96478001  0.34701996  1  0.650318  0  0.30297  0.394954  0  0.944451  0
H  H13  1  0.92300661  0.89111325  0.39462627  1  0.605882  0  0.337001  0.42019  0  0.859502  0
H  H14  1  0.49110418  0.52398268  0.35154888  1  0.643875  0  0.3513  0.398951  0  0.854652  0
H  H15  1  0.12506277  0.55289827  0.35404026  1  0.114844  0  0.130159  0.102194  0  0.944219  0
H  H16  1  0.31425544  0.35078696  0.24587562  1  0.633746  0  0.301782  0.338514  0  1.020257  0
H  H17  1  0.04459005  0.64161126  0.27797500  1  0.116892  0  0.133399  0.11445  0  0.936955  0
H  H18  1  0.70158122  0.17345623  0.50177349  1  0.042864  0  0.100274  0.112712  0  0.966077  0
H  H19  1  0.41692478  0.16884627  0.50282385  1  0.093944  0  0.109312  0.129101  0  0.956659  0
H  H20  1  0.98693608  0.46479494  0.15298414  1  0.650232  0  0.302865  0.394819  0  0.944637  0
H  H21  1  0.07698582  0.39113241  0.10537616  1  0.606151  0  0.337024  0.420283  0  0.859235  0
H  H22  1  0.50889750  0.02398782  0.14845190  1  0.643935  0  0.351264  0.398916  0  0.85469  0
H  H23  1  0.87493894  0.05291595  0.14596118  1  0.114705  0  0.130136  0.102161  0  0.944288  0
H  H24  1  0.68573694  0.85078653  0.25412440  1  0.63373  0  0.301769  0.338494  0  1.020316  0
H  H25  1  0.95539887  0.14162214  0.22202739  1  0.116658  0  0.133345  0.114399  0  0.936834  0
H  H26  1  0.29842160  0.67345896  0.99822685  1  0.042918  0  0.100275  0.112707  0  0.966058  0
H  H27  1  0.58308126  0.66884519  0.99717579  1  0.093901  0  0.109379  0.129258  0  0.956639  0
H  H28  1  0.98693097  0.53520888  0.84701642  1  0.650231  0  0.302885  0.39485  0  0.944591  0
H  H29  1  0.07698442  0.60887067  0.89462405  1  0.606142  0  0.337013  0.420266  0  0.859266  0
H  H30  1  0.50889615  0.97601425  0.85154812  1  0.643812  0  0.351273  0.398896  0  0.854737  0
H  H31  1  0.87493758  0.94709319  0.85403933  1  0.114782  0  0.130149  0.102209  0  0.944321  0
H  H32  1  0.68573860  0.14921568  0.74587499  1  0.633723  0  0.301775  0.338535  0  1.020334  0
H  H33  1  0.95539839  0.85838165  0.77797421  1  0.116743  0  0.133366  0.114418  0  0.936814  0
H  H34  1  0.29842690  0.32653888  0.00177414  1  0.042914  0  0.100298  0.112767  0  0.96606  0
H  H35  1  0.58308334  0.33115695  0.00282391  1  0.093899  0  0.109343  0.129182  0  0.956651  0
C  C36  1  0.06778403  0.71160146  0.67445904  1  1.606361  0  0.239798  0.632732  0  4.124071  0
C  C37  1  0.19897952  0.53707501  0.67231044  1  0.405149  0  0.011568  0.042789  0  3.839729  0
C  C38  1  0.19637103  0.43547123  0.72004798  1  0.454648  0  0.007764  0.037653  0  3.867092  0
C  C39  1  0.38261376  0.29924817  0.71906180  1  1.611846  0  0.239516  0.612845  0  4.131984  0
C  C40  1  0.55709648  0.90219596  0.56329478  1  1.511599  0  0.184525  0.626033  0  4.189777  0
C  C41  1  0.56028530  0.90385812  0.51003330  1  -0.053028  0  -0.158483  -0.257657  0  3.919783  0
C  C42  1  0.06778555  0.28839348  0.32554010  1  1.606372  0  0.239765  0.632685  0  4.123981  0
C  C43  1  0.19897803  0.46292139  0.32768875  1  0.405116  0  0.011533  0.042817  0  3.839853  0
C  C44  1  0.19636765  0.56452381  0.27995192  1  0.45472  0  0.007733  0.037472  0  3.867399  0
C  C45  1  0.38261538  0.70075109  0.28093782  1  1.611836  0  0.239536  0.612982  0  4.131811  0
C  C46  1  0.55709549  0.09780615  0.43670490  1  1.511603  0  0.184533  0.626048  0  4.189858  0
C  C47  1  0.56028636  0.09614128  0.48996639  1  -0.020672  0  -0.158436  -0.257565  0  3.919693  0
C  C48  1  0.93222772  0.78840697  0.17445999  1  1.606201  0  0.239818  0.632863  0  4.124151  0
C  C49  1  0.80102738  0.96292939  0.17231147  1  0.405305  0  0.011467  0.042536  0  3.839765  0
C  C50  1  0.80362279  0.06453054  0.22004952  1  0.45481  0  0.007887  0.037979  0  3.866882  0
C  C51  1  0.61737038  0.20075227  0.21906274  1  1.611903  0  0.239375  0.6127  0  4.132233  0
C  C52  1  0.44290950  0.59780511  0.06329473  1  1.511379  0  0.184585  0.626189  0  4.189561  0
C  C53  1  0.43971863  0.59613990  0.01003324  1  -0.053019  0  -0.158509  -0.257753  0  3.919851  0
C  C54  1  0.93222045  0.21159815  0.82554055  1  1.606332  0  0.239737  0.632753  0  4.124217  0
C  C55  1  0.80102314  0.03707427  0.82768866  1  0.405149  0  0.011516  0.042556  0  3.83982  0
C  C56  1  0.80362241  0.93547041  0.77995097  1  0.45474  0  0.00785  0.037865  0  3.866886  0
C  C57  1  0.61737147  0.79924718  0.78093732  1  1.611905  0  0.239388  0.612777  0  4.132067  0
C  C58  1  0.44290660  0.40219555  0.93670527  1  1.511595  0  0.184614  0.626293  0  4.189611  0
C  C59  1  0.43971940  0.40385941  0.98996640  1  -0.020701  0  -0.1585  -0.257783  0  3.91988  0
O  O60  1  0.89164883  0.10773637  0.63898257  1  -1.241622  0  -0.617382  -0.826411  0  1.980212  0
O  O61  1  0.17017838  0.86083353  0.67055848  1  -1.186513  0  -0.357914  -0.622853  0  2.291448  0
O  O62  1  0.86710276  0.69533729  0.67981977  1  -1.169881  0  -0.383906  -0.623252  0  2.243083  0
O  O63  1  0.41327391  0.58547041  0.65762157  1  -1.152153  0  -0.427846  -0.558626  0  2.384444  0
O  O64  1  0.20732976  0.54795551  0.76068822  1  -1.159426  0  -0.416009  -0.549194  0  2.352333  0
O  O65  1  0.40746807  0.20453694  0.68237874  1  -1.21453  0  -0.380833  -0.632266  0  2.254659  0
O  O66  1  0.50671881  0.29372392  0.75482874  1  -1.20129  0  -0.362641  -0.617383  0  2.363213  0
O  O67  1  0.67907162  0.79064422  0.58534406  1  -1.189407  0  -0.415026  -0.665137  0  2.127533  0
O  O68  1  0.43544984  0.01349773  0.58560376  1  -1.196636  0  -0.408804  -0.658017  0  2.105979  0
O  O69  1  0.89164651  0.89226331  0.36101830  1  -1.241603  0  -0.617401  -0.826436  0  1.980247  0
O  O70  1  0.17017654  0.13916014  0.32944035  1  -1.186586  0  -0.357872  -0.622832  0  2.291337  0
O  O71  1  0.86710264  0.30465694  0.32017969  1  -1.169875  0  -0.383886  -0.62319  0  2.243058  0
O  O72  1  0.41327572  0.41452481  0.34237701  1  -1.152177  0  -0.42781  -0.558629  0  2.384462  0
O  O73  1  0.20732752  0.45204361  0.23931132  1  -1.159471  0  -0.416025  -0.549166  0  2.352442  0
O  O74  1  0.40747172  0.79545828  0.31762088  1  -1.214491  0  -0.380812  -0.6323  0  2.254592  0
O  O75  1  0.50671530  0.70627679  0.24517057  1  -1.201329  0  -0.362704  -0.617471  0  2.363267  0
O  O76  1  0.67906896  0.20935664  0.41465532  1  -1.189413  0  -0.415008  -0.665126  0  2.127642  0
O  O77  1  0.43544969  0.98650157  0.41439623  1  -1.196647  0  -0.408818  -0.658048  0  2.105997  0
O  O78  1  0.10835237  0.39227508  0.13898483  1  -1.24172  0  -0.617339  -0.826397  0  1.980128  0
O  O79  1  0.82982850  0.63916955  0.17056170  1  -1.186381  0  -0.357992  -0.623007  0  2.291228  0
O  O80  1  0.13289936  0.80467510  0.17982039  1  -1.169975  0  -0.383788  -0.623112  0  2.243299  0
O  O81  1  0.58673125  0.91453292  0.15762222  1  -1.152236  0  -0.427789  -0.558558  0  2.384459  0
O  O82  1  0.79266820  0.95204315  0.26068927  1  -1.159449  0  -0.416008  -0.549246  0  2.352404  0
O  O83  1  0.59251899  0.29546285  0.18238026  1  -1.214492  0  -0.380756  -0.63229  0  2.254713  0
O  O84  1  0.49327691  0.20627177  0.25482998  1  -1.201304  0  -0.362612  -0.617301  0  2.36346  0
O  O85  1  0.32093938  0.70935508  0.08534452  1  -1.189358  0  -0.41504  -0.665231  0  2.127538  0
O  O86  1  0.56456704  0.48650661  0.08560467  1  -1.196491  0  -0.408865  -0.658089  0  2.105834  0
O  O87  1  0.10835069  0.60772667  0.86101538  1  -1.241717  0  -0.617343  -0.826406  0  1.980126  0
O  O88  1  0.82982304  0.36083414  0.82943774  1  -1.186518  0  -0.357941  -0.622934  0  2.291347  0
O  O89  1  0.13289202  0.19533615  0.82017948  1  -1.169923  0  -0.383812  -0.62312  0  2.243258  0
O  O90  1  0.58672558  0.08547057  0.84237783  1  -1.152089  0  -0.427827  -0.558559  0  2.384455  0
O  O91  1  0.79266646  0.04795779  0.73931157  1  -1.15944  0  -0.41601  -0.549237  0  2.352393  0
O  O92  1  0.59252350  0.70454065  0.81762050  1  -1.214483  0  -0.380755  -0.632291  0  2.254642  0
O  O93  1  0.49327769  0.79372758  0.74516969  1  -1.201294  0  -0.362611  -0.617324  0  2.363395  0
O  O94  1  0.32093778  0.29064143  0.91465648  1  -1.189335  0  -0.415054  -0.66527  0  2.127567  0
O  O95  1  0.56456085  0.51349686  0.91439608  1  -1.196688  0  -0.408844  -0.658104  0  2.105912  0
