# generated using pymatgen
data_CdH14C16(N3O2)4
_symmetry_space_group_name_H-M   'P 1'
_cell_length_a   7.25744898
_cell_length_b   7.47618309
_cell_length_c   12.04177255
_cell_angle_alpha   81.79062283
_cell_angle_beta   76.29704317
_cell_angle_gamma   59.85351266
_symmetry_Int_Tables_number   1
_chemical_formula_structural   CdH14C16(N3O2)4
_chemical_formula_sum   'Cd1 H14 C16 N12 O8'
_cell_volume   548.68949242
_cell_formula_units_Z   1
loop_
 _symmetry_equiv_pos_site_id
 _symmetry_equiv_pos_as_xyz
  1  'x, y, z'
loop_
 _atom_site_type_symbol
 _atom_site_label
 _atom_site_symmetry_multiplicity
 _atom_site_fract_x
 _atom_site_fract_y
 _atom_site_fract_z
 _atom_site_occupancy
 _atom_site_hle17_bader_spin_density
 _atom_site_hle17_ddec_charge
 _atom_site_hle17_ddec_spin_density
 _atom_site_hle17_ddec_sum_bond_order
 _atom_site_hle17_magmom
 _atom_site_hse06_10hf_bader_spin_density
 _atom_site_hse06_10hf_ddec_charge
 _atom_site_hse06_10hf_ddec_spin_density
 _atom_site_hse06_10hf_ddec_sum_bond_order
 _atom_site_hse06_10hf_magmom
 _atom_site_hse06_bader_spin_density
 _atom_site_hse06_ddec_charge
 _atom_site_hse06_ddec_spin_density
 _atom_site_hse06_ddec_sum_bond_order
 _atom_site_hse06_magmom
 _atom_site_pbe_bader_spin_density
 _atom_site_pbe_cm5_charge
 _atom_site_pbe_ddec_charge
 _atom_site_pbe_ddec_spin_density
 _atom_site_pbe_ddec_sum_bond_order
 _atom_site_pbe_magmom
Cd  Cd0  1  0.49999702  0.50000340  0.99999868  1  0  1.266782  0  1.543414  0  0  1.076843  0  1.998985  0  0  1.131628  0  1.939006  0  0  0.82173  1.036904  0  2.040954  0
H  H1  1  0.50236894  0.13046006  0.14423174  1  0  0.37984  0  0.924227  0  0  0.342871  0  1.011763  0  0  0.356449  0  0.998102  0  0  0.291863  0.333342  0  1.021179  0
H  H2  1  0.49763697  0.86954393  0.85576753  1  0  0.379818  0  0.924268  0  0  0.342896  0  1.01172  0  0  0.356475  0  0.998052  0  0  0.291873  0.333367  0  1.021137  0
H  H3  1  0.54812055  0.61593277  0.31506879  1  0  0.11987  0  0.958188  0  0  0.127069  0  1.0222  0  0  0.13152  0  1.019553  0  0  0.105927  0.123824  0  1.024391  0
H  H4  1  0.45187062  0.38406381  0.68492906  1  0  0.119864  0  0.95819  0  0  0.127074  0  1.022172  0  0  0.131531  0  1.019524  0  0  0.105931  0.123826  0  1.024368  0
H  H5  1  0.35227688  0.66464197  0.51649181  1  0  0.111961  0  0.93906  0  0  0.120854  0  1.001786  0  0  0.123656  0  0.999025  0  0  0.114344  0.118832  0  1.003689  0
H  H6  1  0.64771549  0.33536071  0.48350702  1  0  0.111948  0  0.939103  0  0  0.120855  0  1.001799  0  0  0.123655  0  0.999045  0  0  0.114317  0.11883  0  1.003706  0
H  H7  1  0.18008284  0.30913211  0.48643690  1  0  0.121772  0  0.92185  0  0  0.131455  0  0.981533  0  0  0.134922  0  0.978177  0  0  0.119417  0.128885  0  0.984035  0
H  H8  1  0.81993419  0.69086097  0.51356169  1  0  0.121707  0  0.921777  0  0  0.131475  0  0.981391  0  0  0.134947  0  0.978028  0  0  0.119427  0.128903  0  0.983895  0
H  H9  1  0.65531464  0.68532489  0.12006784  1  0  0.423829  0  0.882412  0  0  0.389304  0  0.950943  0  0  0.401697  0  0.933282  0  0  0.285964  0.380491  0  0.963473  0
H  H10  1  0.34467842  0.31467926  0.87993409  1  0  0.423761  0  0.882488  0  0  0.389277  0  0.950939  0  0  0.401669  0  0.93328  0  0  0.285951  0.380472  0  0.963457  0
H  H11  1  0.84122991  0.44306847  0.10000350  1  0  0.409654  0  0.894082  0  0  0.373174  0  0.96654  0  0  0.384085  0  0.950706  0  0  0.29095  0.365401  0  0.977809  0
H  H12  1  0.15876327  0.55693260  0.89999866  1  0  0.409644  0  0.894107  0  0  0.373145  0  0.966596  0  0  0.384058  0  0.95076  0  0  0.290937  0.365372  0  0.977865  0
H  H13  1  0.76233364  0.90120283  0.03486888  1  0  0.310631  0  0.878699  0  0  0.285883  0  0.947071  0  0  0.29449  0  0.93995  0  0  0.350762  0.279747  0  0.952353  0
H  H14  1  0.23765806  0.09879835  0.96512851  1  0  0.310623  0  0.878723  0  0  0.285882  0  0.947087  0  0  0.294485  0  0.939966  0  0  0.350776  0.279747  0  0.952369  0
C  C15  1  0.36543495  0.13490667  0.33414166  1  0  -0.236816  0  3.781854  0  0  -0.219486  0  4.027766  0  0  -0.2392  0  4.055365  0  0  -0.043845  -0.206473  0  4.009219  0
C  C16  1  0.63457347  0.86508660  0.66585400  1  0  -0.236645  0  3.782138  0  0  -0.21936  0  4.028132  0  0  -0.239075  0  4.055736  0  0  -0.043756  -0.206343  0  4.009585  0
C  C17  1  0.46841613  0.93719065  0.28310219  1  0  0.388841  0  3.781427  0  0  0.362728  0  4.049279  0  0  0.382288  0  4.064695  0  0  0.100383  0.34949  0  4.038489  0
C  C18  1  0.53157947  0.06280275  0.71689778  1  0  0.388852  0  3.781305  0  0  0.362755  0  4.04916  0  0  0.382314  0  4.064575  0  0  0.100404  0.349517  0  4.038373  0
C  C19  1  0.46802949  0.76710790  0.35294480  1  0  -0.172875  0  3.679406  0  0  -0.18992  0  3.93358  0  0  -0.202682  0  3.954957  0  0  -0.095696  -0.181566  0  3.919271  0
C  C20  1  0.53196585  0.23289169  0.64705302  1  0  -0.172855  0  3.679402  0  0  -0.189891  0  3.933524  0  0  -0.202661  0  3.954907  0  0  -0.095679  -0.181536  0  3.919216  0
C  C21  1  0.35921798  0.79362616  0.46464580  1  0  -0.039664  0  3.657719  0  0  -0.065389  0  3.906339  0  0  -0.059505  0  3.925967  0  0  -0.059975  -0.06875  0  3.892759  0
C  C22  1  0.64078078  0.20637794  0.53535365  1  0  -0.039716  0  3.657665  0  0  -0.065436  0  3.906274  0  0  -0.059552  0  3.925903  0  0  -0.059973  -0.068797  0  3.892694  0
C  C23  1  0.25124251  0.99135502  0.51394831  1  0  0.113351  0  3.840528  0  0  0.118159  0  4.100082  0  0  0.107364  0  4.129638  0  0  0.082844  0.12492  0  4.080193  0
C  C24  1  0.74875791  0.00864293  0.48605059  1  0  0.113465  0  3.840274  0  0  0.118236  0  4.099903  0  0  0.107439  0  4.129464  0  0  0.082846  0.124997  0  4.080016  0
C  C25  1  0.25870038  0.15875297  0.44762379  1  0  -0.048886  0  3.676983  0  0  -0.085809  0  3.927427  0  0  -0.079492  0  3.947547  0  0  -0.05231  -0.089581  0  3.913663  0
C  C26  1  0.74129699  0.84125106  0.55238085  1  0  -0.048874  0  3.67705  0  0  -0.085852  0  3.927538  0  0  -0.079535  0  3.94766  0  0  -0.05231  -0.089625  0  3.913777  0
C  C27  1  0.37542607  0.31547976  0.27120285  1  0  0.666838  0  3.808841  0  0  0.61708  0  4.102617  0  0  0.651449  0  4.094754  0  0  0.21862  0.593513  0  4.107677  0
C  C28  1  0.62457361  0.68453952  0.72880435  1  0  0.666536  0  3.808516  0  0  0.616762  0  4.102387  0  0  0.651127  0  4.094541  0  0  0.2184  0.593192  0  4.107442  0
C  C29  1  0.00135957  0.95680097  0.79468830  1  0  0.384241  0  3.782766  0  0  0.354759  0  4.082122  0  0  0.365942  0  4.095179  0  0  0.326605  0.346988  0  4.073576  0
C  C30  1  0.99863997  0.04320157  0.20531201  1  0  0.384184  0  3.783013  0  0  0.354741  0  4.082328  0  0  0.365983  0  4.095305  0  0  0.326583  0.346968  0  4.073785  0
N  N31  1  0.13670238  0.03849898  0.62426676  1  0  -0.085272  0  3.012014  0  0  -0.069618  0  3.298877  0  0  -0.05899  0  3.305499  0  0  -0.137401  -0.076298  0  3.294227  0
N  N32  1  0.86330066  0.96150506  0.37573209  1  0  -0.085354  0  3.012193  0  0  -0.069703  0  3.299087  0  0  -0.05908  0  3.305722  0  0  -0.137458  -0.076382  0  3.294435  0
N  N33  1  0.78847624  0.14484494  0.93766461  1  0  -0.102414  0  3.07909  0  0  -0.079266  0  3.383756  0  0  -0.081804  0  3.394756  0  0  -0.090965  -0.076835  0  3.376225  0
N  N34  1  0.21151328  0.85515776  0.06233545  1  0  -0.102496  0  3.07925  0  0  -0.079353  0  3.383947  0  0  -0.081897  0  3.394948  0  0  -0.090954  -0.076922  0  3.376414  0
N  N35  1  0.89832478  0.15263695  0.83546182  1  0  -0.230594  0  2.886697  0  0  -0.224798  0  3.174301  0  0  -0.229235  0  3.183565  0  0  -0.175532  -0.221794  0  3.168079  0
N  N36  1  0.10166970  0.84736720  0.16453907  1  0  -0.230509  0  2.886916  0  0  -0.224722  0  3.174505  0  0  -0.229181  0  3.183755  0  0  -0.175503  -0.221717  0  3.16828  0
N  N37  1  0.82650032  0.94990532  0.95863448  1  0  -0.020236  0  3.491507  0  0  0.028262  0  3.743293  0  0  0.021806  0  3.759059  0  0  -0.138303  0.031993  0  3.733496  0
N  N38  1  0.17349568  0.05009577  0.04136396  1  0  -0.020192  0  3.491538  0  0  0.028279  0  3.743381  0  0  0.021839  0  3.759131  0  0  -0.138338  0.03201  0  3.733585  0
N  N39  1  0.95883920  0.82681248  0.87294656  1  0  -0.256675  0  2.88959  0  0  -0.237566  0  3.151777  0  0  -0.244132  0  3.161066  0  0  -0.175924  -0.233045  0  3.146024  0
N  N40  1  0.04115890  0.17319009  0.12705311  1  0  -0.256653  0  2.889715  0  0  -0.237563  0  3.151914  0  0  -0.244154  0  3.16118  0  0  -0.175898  -0.233043  0  3.146161  0
N  N41  1  0.12797436  0.88835756  0.68809315  1  0  -0.247998  0  2.950481  0  0  -0.228597  0  3.243199  0  0  -0.235185  0  3.249822  0  0  -0.1757  -0.224168  0  3.238833  0
N  N42  1  0.87202375  0.11164499  0.31190736  1  0  -0.247967  0  2.950664  0  0  -0.228563  0  3.243345  0  0  -0.235168  0  3.249953  0  0  -0.175667  -0.224133  0  3.238975  0
O  O43  1  0.32197391  0.47684487  0.31354362  1  0  -0.507616  0  1.973544  0  0  -0.475679  0  2.205463  0  0  -0.49707  0  2.198364  0  0  -0.268323  -0.460857  0  2.210058  0
O  O44  1  0.67804686  0.52312655  0.68646123  1  0  -0.507644  0  1.972698  0  0  -0.475703  0  2.204642  0  0  -0.497099  0  2.197558  0  0  -0.268309  -0.460874  0  2.20923  0
O  O45  1  0.45720338  0.28475568  0.15597795  1  0  -0.639459  0  2.171555  0  0  -0.570221  0  2.429247  0  0  -0.596829  0  2.41  0  0  -0.362924  -0.551109  0  2.441732  0
O  O46  1  0.54280917  0.71524353  0.84402493  1  0  -0.639292  0  2.171719  0  0  -0.570082  0  2.429381  0  0  -0.596692  0  2.410156  0  0  -0.362885  -0.550972  0  2.441868  0
O  O47  1  0.55702331  0.91466832  0.17274454  1  0  -0.628276  0  2.029727  0  0  -0.564675  0  2.251578  0  0  -0.594476  0  2.248211  0  0  -0.332807  -0.543414  0  2.25331  0
O  O48  1  0.44297412  0.08533277  0.82725286  1  0  -0.628234  0  2.029787  0  0  -0.564659  0  2.251587  0  0  -0.594454  0  2.248214  0  0  -0.332777  -0.543403  0  2.253317  0
O  O49  1  0.72415746  0.56534867  0.06750395  1  0  -0.847435  0  1.901977  0  0  -0.778983  0  2.111278  0  0  -0.802863  0  2.07392  0  0  -0.588842  -0.761974  0  2.137382  0
O  O50  1  0.27583353  0.43465393  0.93250006  1  0  -0.847366  0  1.902052  0  0  -0.778926  0  2.111356  0  0  -0.802807  0  2.073996  0  0  -0.588802  -0.761921  0  2.137454  0
