# generated using pymatgen
data_ZnH14C12N4O5
_symmetry_space_group_name_H-M   'P 1'
_cell_length_a   10.46094973
_cell_length_b   11.62044130
_cell_length_c   12.16758378
_cell_angle_alpha   92.19772260
_cell_angle_beta   89.99984985
_cell_angle_gamma   90.00038935
_symmetry_Int_Tables_number   1
_chemical_formula_structural   ZnH14C12N4O5
_chemical_formula_sum   'Zn4 H56 C48 N16 O20'
_cell_volume   1478.01388899
_cell_formula_units_Z   4
loop_
 _symmetry_equiv_pos_site_id
 _symmetry_equiv_pos_as_xyz
  1  'x, y, z'
loop_
 _atom_site_type_symbol
 _atom_site_label
 _atom_site_symmetry_multiplicity
 _atom_site_fract_x
 _atom_site_fract_y
 _atom_site_fract_z
 _atom_site_occupancy
 _atom_site_hle17_bader_spin_density
 _atom_site_hle17_ddec_charge
 _atom_site_hle17_ddec_spin_density
 _atom_site_hle17_ddec_sum_bond_order
 _atom_site_hle17_magmom
 _atom_site_hse06_10hf_bader_spin_density
 _atom_site_hse06_10hf_ddec_charge
 _atom_site_hse06_10hf_ddec_spin_density
 _atom_site_hse06_10hf_ddec_sum_bond_order
 _atom_site_hse06_10hf_magmom
 _atom_site_hse06_bader_spin_density
 _atom_site_hse06_ddec_charge
 _atom_site_hse06_ddec_spin_density
 _atom_site_hse06_ddec_sum_bond_order
 _atom_site_hse06_magmom
 _atom_site_pbe_bader_spin_density
 _atom_site_pbe_cm5_charge
 _atom_site_pbe_ddec_charge
 _atom_site_pbe_ddec_spin_density
 _atom_site_pbe_ddec_sum_bond_order
 _atom_site_pbe_magmom
Zn  Zn0  1  0.64065940  0.01656975  0.30873640  1  0  0.991062  0  1.907473  0  0  0.821449  0  2.354347  0  0  0.86523  0  2.307411  0  0  0.669351  0.790758  0  2.386444  0
Zn  Zn1  1  0.64066230  0.48342949  0.19126707  1  0  0.991096  0  1.907432  0  0  0.821436  0  2.354308  0  0  0.865208  0  2.307384  0  0  0.669376  0.790747  0  2.386399  0
Zn  Zn2  1  0.35934289  0.98342730  0.69125824  1  0  0.991095  0  1.907444  0  0  0.821525  0  2.354274  0  0  0.865295  0  2.307354  0  0  0.669375  0.790874  0  2.386361  0
Zn  Zn3  1  0.35933616  0.51656854  0.80873827  1  0  0.991163  0  1.907229  0  0  0.821521  0  2.354072  0  0  0.865302  0  2.307137  0  0  0.669414  0.790831  0  2.386168  0
H  H4  1  0.78005418  0.90887863  0.52850550  1  0  0.103943  0  0.922091  0  0  0.114796  0  0.981379  0  0  0.117092  0  0.97844  0  0  0.141236  0.113096  0  0.983458  0
H  H5  1  0.78006186  0.59112144  0.97148773  1  0  0.103944  0  0.922096  0  0  0.11481  0  0.981375  0  0  0.117105  0  0.978435  0  0  0.141227  0.113111  0  0.983454  0
H  H6  1  0.21994524  0.09112363  0.47149338  1  0  0.10391  0  0.922155  0  0  0.114796  0  0.981409  0  0  0.11709  0  0.97847  0  0  0.141241  0.113106  0  0.983486  0
H  H7  1  0.21994329  0.40887479  0.02851099  1  0  0.103867  0  0.922135  0  0  0.11477  0  0.981374  0  0  0.117062  0  0.97844  0  0  0.14123  0.113075  0  0.983447  0
H  H8  1  0.10420447  0.83478834  0.33123517  1  0  0.116392  0  0.942599  0  0  0.130739  0  0.994032  0  0  0.133704  0  0.992401  0  0  0.125137  0.128214  0  0.995955  0
H  H9  1  0.10420217  0.66522629  0.16876806  1  0  0.116469  0  0.942719  0  0  0.130781  0  0.994172  0  0  0.133745  0  0.992542  0  0  0.125141  0.128252  0  0.996094  0
H  H10  1  0.89579303  0.16521488  0.66877277  1  0  0.116468  0  0.942565  0  0  0.130775  0  0.994036  0  0  0.13374  0  0.992407  0  0  0.125151  0.128255  0  0.99595  0
H  H11  1  0.89579916  0.33477352  0.83124226  1  0  0.116456  0  0.942518  0  0  0.130723  0  0.994042  0  0  0.133688  0  0.992413  0  0  0.125102  0.128193  0  0.995963  0
H  H12  1  0.90219942  0.90655247  0.19866146  1  0  0.101021  0  0.947659  0  0  0.111382  0  1.006284  0  0  0.113508  0  1.005811  0  0  0.116739  0.10983  0  1.006732  0
H  H13  1  0.90219329  0.59345397  0.30133405  1  0  0.100987  0  0.947697  0  0  0.111384  0  1.006287  0  0  0.113508  0  1.005824  0  0  0.116727  0.109833  0  1.006724  0
H  H14  1  0.09780096  0.09344456  0.80133235  1  0  0.101027  0  0.94776  0  0  0.111408  0  1.006353  0  0  0.113531  0  1.005877  0  0  0.116743  0.109848  0  1.0068  0
H  H15  1  0.09780421  0.40653793  0.69866291  1  0  0.10101  0  0.947754  0  0  0.111402  0  1.00635  0  0  0.113531  0  1.005876  0  0  0.116714  0.109848  0  1.006793  0
H  H16  1  0.00562235  0.88520180  0.62376623  1  0  0.086886  0  0.932936  0  0  0.098269  0  1.003376  0  0  0.099223  0  1.002932  0  0  0.113012  0.097466  0  1.003884  0
H  H17  1  0.00562381  0.61480054  0.87623287  1  0  0.08689  0  0.932912  0  0  0.098269  0  1.003337  0  0  0.099224  0  1.002893  0  0  0.113059  0.097463  0  1.003845  0
H  H18  1  0.99437898  0.11479447  0.37623578  1  0  0.086878  0  0.932903  0  0  0.098263  0  1.003331  0  0  0.099218  0  1.002885  0  0  0.113015  0.097464  0  1.003837  0
H  H19  1  0.99437752  0.38519493  0.12377488  1  0  0.086987  0  0.932802  0  0  0.098284  0  1.00333  0  0  0.099237  0  1.00289  0  0  0.113025  0.097483  0  1.003838  0
H  H20  1  0.13503695  0.84179605  0.53878389  1  0  0.10788  0  0.923324  0  0  0.122305  0  0.985681  0  0  0.123314  0  0.984846  0  0  0.120002  0.121475  0  0.986417  0
H  H21  1  0.13504326  0.65820623  0.96121657  1  0  0.107849  0  0.923284  0  0  0.122197  0  0.985737  0  0  0.123204  0  0.984911  0  0  0.120022  0.121408  0  0.986446  0
H  H22  1  0.86496343  0.15820284  0.46122148  1  0  0.107848  0  0.923305  0  0  0.122284  0  0.985641  0  0  0.123302  0  0.984795  0  0  0.120001  0.12146  0  0.986379  0
H  H23  1  0.86496094  0.34179790  0.03879551  1  0  0.107903  0  0.923227  0  0  0.122329  0  0.98557  0  0  0.123339  0  0.984737  0  0  0.120065  0.121545  0  0.986269  0
H  H24  1  0.03447559  0.64619539  0.50932536  1  0  0.024453  0  0.942906  0  0  0.037057  0  1.016703  0  0  0.038057  0  1.014801  0  0  0.085375  0.036161  0  1.018211  0
H  H25  1  0.03447660  0.85380541  0.99067445  1  0  0.024503  0  0.94298  0  0  0.037102  0  1.016792  0  0  0.0381  0  1.014891  0  0  0.085386  0.036211  0  1.018299  0
H  H26  1  0.96552191  0.35380520  0.49067840  1  0  0.024395  0  0.942929  0  0  0.037011  0  1.016748  0  0  0.038009  0  1.014847  0  0  0.085354  0.036127  0  1.018252  0
H  H27  1  0.96552568  0.14619261  0.00933007  1  0  0.024424  0  0.942915  0  0  0.037008  0  1.016783  0  0  0.03801  0  1.014878  0  0  0.085325  0.036125  0  1.018286  0
H  H28  1  0.07316512  0.68214604  0.65042447  1  0  0.072571  0  0.9634  0  0  0.084441  0  1.028644  0  0  0.085744  0  1.02802  0  0  0.102744  0.083328  0  1.029287  0
H  H29  1  0.07317011  0.81786620  0.84957638  1  0  0.072559  0  0.96339  0  0  0.084406  0  1.028679  0  0  0.085707  0  1.028059  0  0  0.102722  0.083296  0  1.029319  0
H  H30  1  0.92682856  0.31785630  0.34958099  1  0  0.072532  0  0.963395  0  0  0.084405  0  1.028666  0  0  0.085707  0  1.028041  0  0  0.102735  0.083301  0  1.029308  0
H  H31  1  0.92683600  0.18213874  0.15043078  1  0  0.072518  0  0.963394  0  0  0.084376  0  1.028694  0  0  0.085676  0  1.028079  0  0  0.102716  0.08327  0  1.029338  0
H  H32  1  0.89222019  0.55972940  0.72474686  1  0  0.043164  0  0.944395  0  0  0.057415  0  1.011999  0  0  0.057872  0  1.011961  0  0  0.095072  0.057017  0  1.012082  0
H  H33  1  0.89223399  0.94026875  0.77524526  1  0  0.043277  0  0.944189  0  0  0.057437  0  1.011827  0  0  0.05788  0  1.011822  0  0  0.095063  0.057045  0  1.011907  0
H  H34  1  0.10776871  0.44027027  0.27525113  1  0  0.043271  0  0.944253  0  0  0.057464  0  1.011882  0  0  0.057917  0  1.011856  0  0  0.09509  0.057077  0  1.011962  0
H  H35  1  0.10776735  0.05972660  0.22475180  1  0  0.043262  0  0.944182  0  0  0.057436  0  1.011846  0  0  0.05788  0  1.011839  0  0  0.095064  0.057042  0  1.01193  0
H  H36  1  0.90238948  0.51174470  0.58386582  1  0  0.020503  0  0.95648  0  0  0.030375  0  1.036605  0  0  0.031066  0  1.035056  0  0  0.086697  0.029723  0  1.037834  0
H  H37  1  0.90239364  0.98826216  0.91612897  1  0  0.020524  0  0.956535  0  0  0.030419  0  1.036564  0  0  0.031109  0  1.035016  0  0  0.086725  0.029764  0  1.037797  0
H  H38  1  0.09760707  0.48825418  0.41613790  1  0  0.020614  0  0.956474  0  0  0.030464  0  1.036582  0  0  0.031155  0  1.035033  0  0  0.086736  0.029818  0  1.037812  0
H  H39  1  0.09760960  0.01173495  0.08387060  1  0  0.020525  0  0.956518  0  0  0.030393  0  1.036614  0  0  0.031081  0  1.035067  0  0  0.086736  0.029746  0  1.037844  0
H  H40  1  0.66103109  0.61109473  0.69914711  1  0  0.11891  0  0.944234  0  0  0.131399  0  1.002522  0  0  0.134318  0  0.999912  0  0  0.120312  0.12915  0  1.004574  0
H  H41  1  0.66104251  0.88890640  0.80085134  1  0  0.118935  0  0.944324  0  0  0.131379  0  1.002652  0  0  0.134301  0  1.000033  0  0  0.120323  0.129143  0  1.004708  0
H  H42  1  0.33896354  0.38891016  0.30085595  1  0  0.118835  0  0.944406  0  0  0.131274  0  1.002742  0  0  0.134193  0  1.000129  0  0  0.120243  0.129041  0  1.004795  0
H  H43  1  0.33896647  0.11109240  0.19914662  1  0  0.118862  0  0.944428  0  0  0.131365  0  1.002697  0  0  0.134288  0  1.000081  0  0  0.120297  0.129124  0  1.004751  0
H  H44  1  0.69011017  0.46461846  0.66411659  1  0  0.089177  0  0.902622  0  0  0.106879  0  0.957682  0  0  0.10731  0  0.957702  0  0  0.116183  0.106384  0  0.957971  0
H  H45  1  0.69010924  0.03538552  0.83586396  1  0  0.08942  0  0.902355  0  0  0.106983  0  0.957566  0  0  0.107417  0  0.957583  0  0  0.116214  0.106498  0  0.957855  0
H  H46  1  0.30989116  0.53539054  0.33586931  1  0  0.089327  0  0.902413  0  0  0.106909  0  0.957596  0  0  0.107341  0  0.957616  0  0  0.116212  0.106432  0  0.957879  0
H  H47  1  0.30989209  0.96461492  0.16412665  1  0  0.089376  0  0.902425  0  0  0.106985  0  0.957596  0  0  0.10742  0  0.957614  0  0  0.11623  0.106502  0  0.957881  0
H  H48  1  0.57396226  0.73901466  0.55790639  1  0  0.126215  0  0.966038  0  0  0.134523  0  1.028513  0  0  0.137141  0  1.027537  0  0  0.123013  0.132535  0  1.02948  0
H  H49  1  0.57396271  0.76098592  0.94208978  1  0  0.126266  0  0.965964  0  0  0.134585  0  1.028435  0  0  0.137202  0  1.027461  0  0  0.12305  0.132599  0  1.029403  0
H  H50  1  0.42604002  0.26098411  0.44208829  1  0  0.126235  0  0.966061  0  0  0.13455  0  1.028518  0  0  0.137168  0  1.027543  0  0  0.123037  0.132564  0  1.029486  0
H  H51  1  0.42603384  0.23901459  0.05790659  1  0  0.126297  0  0.965913  0  0  0.134607  0  1.028392  0  0  0.137224  0  1.027418  0  0  0.123054  0.132625  0  1.029351  0
H  H52  1  0.53130099  0.71344130  0.33289895  1  0  0.111398  0  0.967622  0  0  0.120228  0  1.029428  0  0  0.123348  0  1.026965  0  0  0.116102  0.117868  0  1.031489  0
H  H53  1  0.53130152  0.78656640  0.16710069  1  0  0.111431  0  0.967541  0  0  0.120276  0  1.029318  0  0  0.123393  0  1.026864  0  0  0.11612  0.117946  0  1.031346  0
H  H54  1  0.46869461  0.28656096  0.66709992  1  0  0.111442  0  0.967548  0  0  0.120246  0  1.029375  0  0  0.123363  0  1.026922  0  0  0.116107  0.117928  0  1.031383  0
H  H55  1  0.46869121  0.21343411  0.83289567  1  0  0.11141  0  0.967602  0  0  0.120281  0  1.029351  0  0  0.123399  0  1.026893  0  0  0.116118  0.11792  0  1.031417  0
H  H56  1  0.71870429  0.41691979  0.44168935  1  0  0.0904  0  0.945767  0  0  0.101463  0  1.008354  0  0  0.103451  0  1.006221  0  0  0.13346  0.099957  0  1.009927  0
H  H57  1  0.71870648  0.08308411  0.05830421  1  0  0.090417  0  0.945845  0  0  0.101484  0  1.008418  0  0  0.103471  0  1.006289  0  0  0.133477  0.099979  0  1.009988  0
H  H58  1  0.28129226  0.58307728  0.55830693  1  0  0.090433  0  0.94579  0  0  0.101478  0  1.00839  0  0  0.103466  0  1.006258  0  0  0.133484  0.099976  0  1.00996  0
H  H59  1  0.28129772  0.91691122  0.94169038  1  0  0.0904  0  0.945694  0  0  0.101508  0  1.008238  0  0  0.103497  0  1.006105  0  0  0.133448  0.100001  0  1.009809  0
C  C60  1  0.83854607  0.89846908  0.45540912  1  0  0.181645  0  3.632989  0  0  0.115264  0  3.907862  0  0  0.129471  0  3.920063  0  0  0.147288  0.10606  0  3.899369  0
C  C61  1  0.83855131  0.60153095  0.04458554  1  0  0.181397  0  3.633095  0  0  0.114968  0  3.907975  0  0  0.129177  0  3.920175  0  0  0.147249  0.105766  0  3.89948  0
C  C62  1  0.16145430  0.10154007  0.54458993  1  0  0.181424  0  3.633172  0  0  0.115009  0  3.908072  0  0  0.129218  0  3.920272  0  0  0.147216  0.105806  0  3.899583  0
C  C63  1  0.16145098  0.39847390  0.95541340  1  0  0.18149  0  3.633156  0  0  0.115051  0  3.908038  0  0  0.129262  0  3.920238  0  0  0.147237  0.105849  0  3.899539  0
C  C64  1  0.00687686  0.86050763  0.35041084  1  0  -0.095106  0  3.713345  0  0  -0.135358  0  3.974322  0  0  -0.135372  0  3.994434  0  0  -0.006833  -0.135176  0  3.960904  0
C  C65  1  0.00688111  0.63950119  0.14958751  1  0  -0.095316  0  3.713386  0  0  -0.135513  0  3.974351  0  0  -0.135524  0  3.994462  0  0  -0.006781  -0.135331  0  3.960928  0
C  C66  1  0.99311682  0.13948948  0.64958872  1  0  -0.095208  0  3.713129  0  0  -0.135409  0  3.974101  0  0  -0.135425  0  3.994213  0  0  -0.006836  -0.135225  0  3.960665  0
C  C67  1  0.99312405  0.36049594  0.85041452  1  0  -0.09513  0  3.71307  0  0  -0.135302  0  3.974045  0  0  -0.135316  0  3.994159  0  0  -0.006717  -0.135118  0  3.960616  0
C  C68  1  0.90692635  0.89652415  0.28675581  1  0  0.003947  0  3.77574  0  0  -0.031015  0  4.048897  0  0  -0.028386  0  4.068731  0  0  -0.003264  -0.032817  0  4.035516  0
C  C69  1  0.90692344  0.60348322  0.21324218  1  0  0.003993  0  3.775691  0  0  -0.031042  0  4.048823  0  0  -0.02842  0  4.068662  0  0  -0.00335  -0.032852  0  4.035443  0
C  C70  1  0.09307307  0.10347551  0.71324135  1  0  0.003882  0  3.775787  0  0  -0.031107  0  4.048945  0  0  -0.02847  0  4.068771  0  0  -0.003278  -0.032899  0  4.03554  0
C  C71  1  0.09307407  0.39651820  0.78675832  1  0  0.004019  0  3.775697  0  0  -0.030993  0  4.048803  0  0  -0.028368  0  4.068644  0  0  -0.003222  -0.032801  0  4.035414  0
C  C72  1  0.03292282  0.82793126  0.55392706  1  0  -0.03442  0  3.632421  0  0  -0.102785  0  3.897368  0  0  -0.098818  0  3.907271  0  0  -0.055396  -0.105382  0  3.890639  0
C  C73  1  0.03292832  0.67207209  0.94607035  1  0  -0.034206  0  3.632072  0  0  -0.10247  0  3.897052  0  0  -0.098503  0  3.906951  0  0  -0.055321  -0.105102  0  3.890333  0
C  C74  1  0.96707851  0.17206929  0.44607259  1  0  -0.034349  0  3.632402  0  0  -0.102654  0  3.897294  0  0  -0.098693  0  3.907201  0  0  -0.055303  -0.105241  0  3.890561  0
C  C75  1  0.96707683  0.32792764  0.05393339  1  0  -0.034602  0  3.632177  0  0  -0.102857  0  3.897163  0  0  -0.098891  0  3.907067  0  0  -0.055414  -0.105457  0  3.890412  0
C  C76  1  0.01020639  0.70358208  0.58138588  1  0  0.065306  0  3.663786  0  0  0.008231  0  3.935694  0  0  0.013894  0  3.941877  0  0  -0.074981  0.004578  0  3.9314  0
C  C77  1  0.01020910  0.79642461  0.91861414  1  0  0.065161  0  3.663872  0  0  0.008046  0  3.935893  0  0  0.013718  0  3.942075  0  0  -0.075021  0.004388  0  3.931606  0
C  C78  1  0.98979302  0.29642107  0.41861549  1  0  0.065408  0  3.663628  0  0  0.008245  0  3.935652  0  0  0.01391  0  3.941841  0  0  -0.074969  0.004586  0  3.931358  0
C  C79  1  0.98979414  0.20357513  0.08138960  1  0  0.065508  0  3.663526  0  0  0.00838  0  3.935548  0  0  0.014042  0  3.941734  0  0  -0.074854  0.004711  0  3.931262  0
C  C80  1  0.85423530  0.57392513  0.64155699  1  0  0.081249  0  3.686072  0  0  0.020845  0  3.96146  0  0  0.02707  0  3.968438  0  0  -0.068971  0.016776  0  3.95648  0
C  C81  1  0.85424299  0.92608141  0.85843625  1  0  0.081161  0  3.686121  0  0  0.020931  0  3.961311  0  0  0.027159  0  3.968288  0  0  -0.068904  0.01688  0  3.956335  0
C  C82  1  0.14576030  0.42608142  0.35844036  1  0  0.081025  0  3.686266  0  0  0.020731  0  3.961507  0  0  0.026955  0  3.968485  0  0  -0.068955  0.016676  0  3.956529  0
C  C83  1  0.14576121  0.07391654  0.14156251  1  0  0.08113  0  3.686148  0  0  0.020817  0  3.961521  0  0  0.027041  0  3.968496  0  0  -0.068969  0.016762  0  3.956544  0
C  C84  1  0.71106179  0.55299030  0.64032110  1  0  -0.046367  0  3.623502  0  0  -0.107781  0  3.87906  0  0  -0.104601  0  3.888455  0  0  -0.05521  -0.109762  0  3.872625  0
C  C85  1  0.71106964  0.94701624  0.85967163  1  0  -0.046672  0  3.623491  0  0  -0.107998  0  3.879009  0  0  -0.104818  0  3.888401  0  0  -0.055264  -0.110001  0  3.872616  0
C  C86  1  0.28893476  0.44701710  0.35967545  1  0  -0.04638  0  3.623585  0  0  -0.107683  0  3.879075  0  0  -0.104502  0  3.888465  0  0  -0.055143  -0.109679  0  3.87266  0
C  C87  1  0.28893456  0.05298601  0.14032642  1  0  -0.046506  0  3.623641  0  0  -0.107905  0  3.879244  0  0  -0.104724  0  3.888626  0  0  -0.055262  -0.109896  0  3.87282  0
C  C88  1  0.59689213  0.66953928  0.49919005  1  0  -0.053607  0  3.65257  0  0  -0.099844  0  3.921171  0  0  -0.098447  0  3.94053  0  0  0.001574  -0.100834  0  3.908421  0
C  C89  1  0.59688681  0.83046877  0.00080617  1  0  -0.05363  0  3.65253  0  0  -0.099879  0  3.921117  0  0  -0.098481  0  3.940473  0  0  0.001591  -0.100863  0  3.908367  0
C  C90  1  0.40310920  0.33046205  0.50080305  1  0  -0.053607  0  3.652674  0  0  -0.099846  0  3.921261  0  0  -0.09845  0  3.940619  0  0  0.001583  -0.10083  0  3.908512  0
C  C91  1  0.40311644  0.16952832  0.99919257  1  0  -0.053647  0  3.652409  0  0  -0.099896  0  3.921019  0  0  -0.0985  0  3.940378  0  0  0.001608  -0.100872  0  3.908243  0
C  C92  1  0.57671625  0.65492926  0.38791030  1  0  0.000143  0  3.7284  0  0  -0.035037  0  3.998316  0  0  -0.033798  0  4.018171  0  0  -0.005313  -0.035814  0  3.985041  0
C  C93  1  0.57671931  0.84507523  0.11208588  1  0  -4.6e-05  0  3.728195  0  0  -0.03519  0  3.998188  0  0  -0.03395  0  4.018035  0  0  -0.005368  -0.035983  0  3.984897  0
C  C94  1  0.42328221  0.34506950  0.61208356  1  0  -5e-05  0  3.728425  0  0  -0.03521  0  3.998428  0  0  -0.033969  0  4.018278  0  0  -0.005383  -0.036013  0  3.985121  0
C  C95  1  0.42328680  0.15492014  0.88791282  1  0  5.4e-05  0  3.72813  0  0  -0.035103  0  3.998087  0  0  -0.033864  0  4.017939  0  0  -0.005382  -0.035865  0  3.984805  0
C  C96  1  0.67396011  0.50093205  0.44063093  1  0  0.142817  0  3.675661  0  0  0.081448  0  3.945052  0  0  0.094023  0  3.959187  0  0  0.13271  0.073403  0  3.935161  0
C  C97  1  0.67397309  0.99907304  0.05936587  1  0  0.14247  0  3.675604  0  0  0.081144  0  3.945039  0  0  0.093718  0  3.959171  0  0  0.132558  0.073099  0  3.935141  0
C  C98  1  0.32603357  0.49906504  0.55936699  1  0  0.14258  0  3.675796  0  0  0.081237  0  3.945201  0  0  0.093815  0  3.959331  0  0  0.132597  0.073195  0  3.935303  0
C  C99  1  0.32603111  0.00092492  0.94063289  1  0  0.142624  0  3.67549  0  0  0.081261  0  3.944925  0  0  0.093836  0  3.959058  0  0  0.132687  0.073222  0  3.935027  0
C  C100  1  0.56147062  0.25000152  0.25000105  1  0  0.51053  0  3.953102  0  0  0.464839  0  4.253547  0  0  0.493722  0  4.246903  0  0  0.194255  0.44526  0  4.257433  0
C  C101  1  0.43852784  0.74999830  0.75001010  1  0  0.510553  0  3.952865  0  0  0.464861  0  4.253304  0  0  0.493742  0  4.246661  0  0  0.194215  0.44528  0  4.257201  0
C  C102  1  0.70985867  0.25000286  0.25000339  1  0  0.526317  0  3.906984  0  0  0.483624  0  4.193979  0  0  0.512808  0  4.186948  0  0  0.201383  0.463803  0  4.198153  0
C  C103  1  0.29013979  0.74999691  0.75000365  1  0  0.526223  0  3.907271  0  0  0.483515  0  4.194252  0  0  0.512698  0  4.187219  0  0  0.201359  0.4637  0  4.198423  0
C  C104  1  0.54324545  0.04617332  0.53129454  1  0  0.520392  0  3.920335  0  0  0.481305  0  4.209857  0  0  0.510393  0  4.203539  0  0  0.192849  0.461604  0  4.213356  0
C  C105  1  0.54323964  0.45381116  0.96871377  1  0  0.520171  0  3.920682  0  0  0.481072  0  4.210219  0  0  0.510156  0  4.203903  0  0  0.192736  0.461369  0  4.213713  0
C  C106  1  0.45676161  0.95380837  0.46871202  1  0  0.520284  0  3.920732  0  0  0.481139  0  4.210318  0  0  0.510223  0  4.204001  0  0  0.192727  0.461439  0  4.213817  0
C  C107  1  0.45675214  0.54617563  0.03128717  1  0  0.52043  0  3.920331  0  0  0.481323  0  4.209859  0  0  0.510407  0  4.203541  0  0  0.192843  0.461619  0  4.21336  0
N  N108  1  0.80293673  0.92050591  0.35322554  1  0  -0.367399  0  3.263918  0  0  -0.295528  0  3.551953  0  0  -0.315001  0  3.56789  0  0  -0.346463  -0.282295  0  3.540998  0
N  N109  1  0.80294054  0.57949564  0.14677007  1  0  -0.367269  0  3.2639  0  0  -0.295286  0  3.551828  0  0  -0.31476  0  3.567777  0  0  -0.346367  -0.282052  0  3.540868  0
N  N110  1  0.19706364  0.07949634  0.64677252  1  0  -0.367289  0  3.263917  0  0  -0.295421  0  3.551958  0  0  -0.314894  0  3.567896  0  0  -0.346449  -0.282187  0  3.541002  0
N  N111  1  0.19706079  0.42051007  0.85322890  1  0  -0.367359  0  3.263921  0  0  -0.295441  0  3.551949  0  0  -0.314914  0  3.567885  0  0  -0.346469  -0.282204  0  3.540982  0
N  N112  1  0.96171735  0.86222900  0.45724247  1  0  -0.05983  0  3.579337  0  0  0.03378  0  3.802111  0  0  0.019291  0  3.828925  0  0  -0.244674  0.043367  0  3.78377  0
N  N113  1  0.96172287  0.63777611  0.04275535  1  0  -0.059701  0  3.579383  0  0  0.033881  0  3.802148  0  0  0.019391  0  3.828963  0  0  -0.244786  0.043467  0  3.783814  0
N  N114  1  0.03828111  0.13777757  0.54275734  1  0  -0.059638  0  3.579382  0  0  0.033943  0  3.80214  0  0  0.019452  0  3.828962  0  0  -0.244674  0.043539  0  3.78379  0
N  N115  1  0.03828229  0.36222707  0.95724848  1  0  -0.059738  0  3.579283  0  0  0.033862  0  3.802034  0  0  0.019373  0  3.828848  0  0  -0.244764  0.043444  0  3.783698  0
N  N116  1  0.65792249  0.57099135  0.53138230  1  0  -0.050539  0  3.578634  0  0  0.041812  0  3.798717  0  0  0.027743  0  3.825674  0  0  -0.241504  0.051128  0  3.780384  0
N  N117  1  0.65792605  0.92901401  0.96861134  1  0  -0.050353  0  3.578489  0  0  0.042047  0  3.798469  0  0  0.027981  0  3.825425  0  0  -0.241421  0.051363  0  3.780144  0
N  N118  1  0.34207214  0.42901001  0.46861327  1  0  -0.050399  0  3.578792  0  0  0.041964  0  3.798814  0  0  0.027899  0  3.82577  0  0  -0.24145  0.05128  0  3.780486  0
N  N119  1  0.34207624  0.07098307  0.03138658  1  0  -0.050506  0  3.578634  0  0  0.0419  0  3.798651  0  0  0.027838  0  3.825607  0  0  -0.241474  0.051217  0  3.780316  0
N  N120  1  0.62552314  0.54942191  0.35227747  1  0  -0.369179  0  3.288596  0  0  -0.295839  0  3.579567  0  0  -0.314352  0  3.594922  0  0  -0.351908  -0.283226  0  3.568773  0
N  N121  1  0.62553357  0.95057948  0.14772263  1  0  -0.368865  0  3.288074  0  0  -0.295683  0  3.579188  0  0  -0.314196  0  3.594541  0  0  -0.351909  -0.283077  0  3.568404  0
N  N122  1  0.37447437  0.45057517  0.64771963  1  0  -0.369017  0  3.288344  0  0  -0.2957  0  3.579323  0  0  -0.314214  0  3.594681  0  0  -0.351877  -0.28308  0  3.568531  0
N  N123  1  0.37446967  0.04941676  0.85227691  1  0  -0.369045  0  3.288139  0  0  -0.295878  0  3.579285  0  0  -0.314391  0  3.594639  0  0  -0.351951  -0.283276  0  3.568499  0
O  O124  1  0.63845883  0.08447524  0.48016088  1  0  -0.593054  0  2.059131  0  0  -0.544318  0  2.30519  0  0  -0.567524  0  2.295176  0  0  -0.320515  -0.528206  0  2.311633  0
O  O125  1  0.63845791  0.41554387  0.01985051  1  0  -0.592913  0  2.059564  0  0  -0.544156  0  2.305627  0  0  -0.567355  0  2.295615  0  0  -0.320406  -0.528066  0  2.312087  0
O  O126  1  0.36153486  0.91553391  0.51983818  1  0  -0.59302  0  2.059522  0  0  -0.544269  0  2.305609  0  0  -0.567471  0  2.295594  0  0  -0.320444  -0.528167  0  2.312059  0
O  O127  1  0.36153959  0.58447570  0.98015622  1  0  -0.593016  0  2.059197  0  0  -0.544264  0  2.305258  0  0  -0.567466  0  2.295243  0  0  -0.320432  -0.528162  0  2.311714  0
O  O128  1  0.51179703  0.07605649  0.62910277  1  0  -0.579229  0  2.061872  0  0  -0.52401  0  2.315864  0  0  -0.547852  0  2.303716  0  0  -0.317685  -0.507273  0  2.323803  0
O  O129  1  0.51180467  0.42393461  0.87089921  1  0  -0.579156  0  2.061669  0  0  -0.523986  0  2.315681  0  0  -0.547833  0  2.303543  0  0  -0.317706  -0.507242  0  2.323602  0
O  O130  1  0.48819857  0.92394668  0.37090025  1  0  -0.579113  0  2.061875  0  0  -0.523896  0  2.315929  0  0  -0.547744  0  2.303799  0  0  -0.317587  -0.507136  0  2.323853  0
O  O131  1  0.48820622  0.57605726  0.12909447  1  0  -0.57932  0  2.061747  0  0  -0.524096  0  2.315748  0  0  -0.547943  0  2.303617  0  0  -0.317778  -0.507364  0  2.323693  0
O  O132  1  0.50653736  0.15993272  0.28144046  1  0  -0.58115  0  2.086317  0  0  -0.527407  0  2.334315  0  0  -0.551817  0  2.325845  0  0  -0.305348  -0.510346  0  2.339589  0
O  O133  1  0.50655152  0.34005629  0.21856796  1  0  -0.580942  0  2.086805  0  0  -0.527292  0  2.334928  0  0  -0.551679  0  2.326435  0  0  -0.305291  -0.510217  0  2.340187  0
O  O134  1  0.49345441  0.84006434  0.71855581  1  0  -0.581136  0  2.086226  0  0  -0.527461  0  2.334331  0  0  -0.551863  0  2.325849  0  0  -0.305363  -0.510381  0  2.339597  0
O  O135  1  0.49345650  0.65993908  0.78143074  1  0  -0.580946  0  2.086555  0  0  -0.527287  0  2.334653  0  0  -0.551678  0  2.326169  0  0  -0.305225  -0.510228  0  2.339938  0
O  O136  1  0.76606447  0.15506296  0.26452828  1  0  -0.587076  0  2.088282  0  0  -0.527582  0  2.342258  0  0  -0.551878  0  2.333256  0  0  -0.30555  -0.510538  0  2.347764  0
O  O137  1  0.76605185  0.34493272  0.23547481  1  0  -0.58704  0  2.08904  0  0  -0.527547  0  2.343005  0  0  -0.551839  0  2.333998  0  0  -0.305617  -0.510526  0  2.348531  0
O  O138  1  0.23393973  0.84493324  0.73546797  1  0  -0.586964  0  2.088442  0  0  -0.52746  0  2.34238  0  0  -0.55175  0  2.333376  0  0  -0.305515  -0.510435  0  2.347932  0
O  O139  1  0.23394661  0.65506603  0.76451822  1  0  -0.587124  0  2.089144  0  0  -0.527562  0  2.343013  0  0  -0.55187  0  2.334037  0  0  -0.305649  -0.510518  0  2.348511  0
O  O140  1  0.87909681  0.68814732  0.60944607  1  0  -0.301137  0  2.231716  0  0  -0.233219  0  2.481695  0  0  -0.247765  0  2.482939  0  0  -0.233144  -0.222912  0  2.480365  0
O  O141  1  0.87910258  0.81185938  0.89054795  1  0  -0.301081  0  2.23182  0  0  -0.233171  0  2.481765  0  0  -0.247728  0  2.483015  0  0  -0.233117  -0.222854  0  2.480426  0
O  O142  1  0.12090165  0.31185838  0.39055290  1  0  -0.301134  0  2.231807  0  0  -0.23319  0  2.48176  0  0  -0.247738  0  2.483006  0  0  -0.233104  -0.22287  0  2.480425  0
O  O143  1  0.12090353  0.18813858  0.10945082  1  0  -0.301119  0  2.23179  0  0  -0.233156  0  2.481755  0  0  -0.2477  0  2.482999  0  0  -0.233115  -0.222838  0  2.48042  0
