# generated using pymatgen
data_H4Pb(C3O2)3
_symmetry_space_group_name_H-M   'P 1'
_cell_length_a   6.99613599
_cell_length_b   9.24124139
_cell_length_c   20.04375862
_cell_angle_alpha   73.10053665
_cell_angle_beta   79.95706877
_cell_angle_gamma   67.76462902
_symmetry_Int_Tables_number   1
_chemical_formula_structural   H4Pb(C3O2)3
_chemical_formula_sum   'H16 Pb4 C36 O24'
_cell_volume   1144.68625747
_cell_formula_units_Z   4
loop_
 _symmetry_equiv_pos_site_id
 _symmetry_equiv_pos_as_xyz
  1  'x, y, z'
loop_
 _atom_site_type_symbol
 _atom_site_label
 _atom_site_symmetry_multiplicity
 _atom_site_fract_x
 _atom_site_fract_y
 _atom_site_fract_z
 _atom_site_occupancy
 _atom_site_pbe_bader_charge
 _atom_site_pbe_bader_spin_density
 _atom_site_pbe_cm5_charge
 _atom_site_pbe_ddec_charge
 _atom_site_pbe_ddec_spin_density
 _atom_site_pbe_ddec_sum_bond_order
 _atom_site_pbe_magmom
H  H0  1  0.50699594  0.26134200  0.48018934  1  0.666253  0  0.312909  0.381883  0  0.952612  0
H  H1  1  0.24808611  0.23915303  0.01976137  1  0.659463  0  0.313477  0.383584  0  0.950867  0
H  H2  1  0.49301621  0.73864620  0.51980272  1  0.666352  0  0.312979  0.381986  0  0.952515  0
H  H3  1  0.75189229  0.76086195  0.98025648  1  0.659719  0  0.313459  0.383369  0  0.951094  0
H  H4  1  0.72655367  0.95862883  0.55221214  1  0.114659  0  0.112931  0.122084  0  0.993729  0
H  H5  1  0.23704432  0.54185748  0.94765977  1  0.113917  0  0.112795  0.122006  0  0.994152  0
H  H6  1  0.27343866  0.04136785  0.44777862  1  0.114493  0  0.112897  0.122005  0  0.993766  0
H  H7  1  0.76297839  0.45812997  0.05234221  1  0.114195  0  0.112878  0.12207  0  0.994254  0
H  H8  1  0.21669380  0.49640839  0.59359360  1  0.123981  0  0.116401  0.126818  0  0.984098  0
H  H9  1  0.30766598  0.00364975  0.90623046  1  0.121106  0  0.116584  0.126658  0  0.985082  0
H  H10  1  0.78330717  0.50359497  0.40640380  1  0.123707  0  0.11642  0.126855  0  0.984232  0
H  H11  1  0.69230863  0.99636379  0.09377482  1  0.121107  0  0.116579  0.126625  0  0.98509  0
H  H12  1  0.07992949  0.75904969  0.38119089  1  0.153263  0  0.115619  0.126273  0  0.99077  0
H  H13  1  0.22024421  0.74135508  0.11864123  1  0.100913  0  0.115353  0.125722  0  0.991614  0
H  H14  1  0.92007397  0.24093847  0.61880171  1  0.153511  0  0.115642  0.126205  0  0.990836  0
H  H15  1  0.77972513  0.25865402  0.88135942  1  0.101106  0  0.115414  0.125859  0  0.991414  0
Pb  Pb16  1  0.81663353  0.80626473  0.80118072  1  1.463557  0  0.685497  1.159643  0  1.751068  0
Pb  Pb17  1  0.42422652  0.69328813  0.69888591  1  1.462316  0  0.684911  1.159359  0  1.754563  0
Pb  Pb18  1  0.18342408  0.19370340  0.19882345  1  1.463572  0  0.685439  1.159581  0  1.751217  0
Pb  Pb19  1  0.57579070  0.30673702  0.30110835  1  1.462218  0  0.684887  1.159362  0  1.754507  0
C  C20  1  0.89298570  0.87611870  0.46114389  1  -0.078095  0  -0.013378  -0.033467  0  3.979256  0
C  C21  1  0.23048649  0.62423677  0.03871235  1  -0.045506  0  -0.012964  -0.032571  0  3.978111  0
C  C22  1  0.10700786  0.12387530  0.53885061  1  -0.078265  0  -0.013287  -0.033329  0  3.978982  0
C  C23  1  0.76951278  0.37576721  0.96129256  1  -0.045311  0  -0.0129  -0.032547  0  3.978382  0
C  C24  1  0.85038561  0.86281247  0.53303010  1  0.03375  0  -0.064082  -0.080053  0  3.897555  0
C  C25  1  0.24633058  0.63752600  0.96683436  1  0.027993  0  -0.063488  -0.079084  0  3.89875  0
C  C26  1  0.14959930  0.13718776  0.46696118  1  0.033716  0  -0.064106  -0.080177  0  3.897423  0
C  C27  1  0.75367614  0.36247436  0.03317104  1  0.027579  0  -0.063629  -0.07919  0  3.899006  0
C  C28  1  0.96871535  0.72734306  0.58055737  1  -0.050023  0  -0.014192  -0.040813  0  3.975597  0
C  C29  1  0.27700116  0.77286382  0.91931784  1  -0.038281  0  -0.01454  -0.042151  0  3.979725  0
C  C30  1  0.03127368  0.27266089  0.41943221  1  -0.049872  0  -0.014229  -0.040716  0  3.97547  0
C  C31  1  0.72299752  0.22714145  0.08068596  1  -0.038573  0  -0.014489  -0.042095  0  3.979608  0
C  C32  1  0.12536744  0.60197968  0.55642937  1  -0.003055  0  -0.063809  -0.086796  0  3.892442  0
C  C33  1  0.28438541  0.89819536  0.94342481  1  -0.010859  0  -0.064597  -0.087776  0  3.895198  0
C  C34  1  0.87463212  0.39802032  0.44356503  1  -0.002754  0  -0.063859  -0.086919  0  3.892718  0
C  C35  1  0.71559693  0.10181077  0.05658339  1  -0.010598  0  -0.064566  -0.087639  0  3.895076  0
C  C36  1  0.16223743  0.61259092  0.48450943  1  -0.037012  0  -0.018565  -0.055467  0  3.998895  0
C  C37  1  0.25966368  0.88770520  0.01534300  1  -0.003896  0  -0.017808  -0.053283  0  3.996252  0
C  C38  1  0.83776770  0.38740318  0.51548384  1  -0.037144  0  -0.018516  -0.055477  0  3.998504  0
C  C39  1  0.74031153  0.11229743  0.98466407  1  -0.004403  0  -0.017785  -0.053151  0  3.996363  0
C  C40  1  0.04821332  0.75053125  0.43706496  1  0.030145  0  -0.060007  -0.071809  0  3.876743  0
C  C41  1  0.23607470  0.74981747  0.06278445  1  0.015111  0  -0.060129  -0.072424  0  3.877828  0
C  C42  1  0.95178426  0.24946031  0.56293009  1  0.030101  0  -0.060169  -0.071804  0  3.87672  0
C  C43  1  0.76390252  0.25019355  0.93722246  1  0.015781  0  -0.060253  -0.072737  0  3.87778  0
C  C44  1  0.77411050  0.02353157  0.41003375  1  1.53805  0  0.214124  0.574819  0  4.190485  0
C  C45  1  0.20788355  0.47682879  0.08989770  1  1.546265  0  0.214946  0.576283  0  4.188229  0
C  C46  1  0.22590617  0.97646593  0.58996189  1  1.538694  0  0.214134  0.574904  0  4.190245  0
C  C47  1  0.79213312  0.52315927  0.91011207  1  1.546087  0  0.214875  0.576422  0  4.18838  0
C  C48  1  0.92764600  0.72057343  0.65691161  1  1.560483  0  0.222374  0.588807  0  4.196371  0
C  C49  1  0.30547253  0.77949424  0.84300653  1  1.555324  0  0.223012  0.588997  0  4.197672  0
C  C50  1  0.07233250  0.27944735  0.34307707  1  1.561026  0  0.222418  0.588769  0  4.196125  0
C  C51  1  0.69453030  0.22050508  0.15699673  1  1.555313  0  0.222853  0.588683  0  4.197833  0
C  C52  1  0.32052008  0.48075999  0.45568892  1  1.534958  0  0.237454  0.596592  0  4.111727  0
C  C53  1  0.25706598  0.01956515  0.04421208  1  1.519632  0  0.237405  0.595968  0  4.111291  0
C  C54  1  0.67949001  0.51923281  0.54430571  1  1.536096  0  0.237365  0.596417  0  4.111884  0
C  C55  1  0.74291609  0.98042878  0.95579911  1  1.518716  0  0.237182  0.595414  0  4.111627  0
O  O56  1  0.63092527  0.13801107  0.43219053  1  -1.200055  0  -0.299819  -0.57914  0  2.275138  0
O  O57  1  0.20073332  0.36242849  0.06778885  1  -1.193609  0  -0.301177  -0.581262  0  2.274487  0
O  O58  1  0.36907225  0.86197732  0.56779892  1  -1.200318  0  -0.299785  -0.579207  0  2.275223  0
O  O59  1  0.79927840  0.63755452  0.93222433  1  -1.193543  0  -0.301133  -0.581164  0  2.274364  0
O  O60  1  0.81918533  0.03272964  0.34473247  1  -1.135944  0  -0.291383  -0.538323  0  2.142071  0
O  O61  1  0.19749208  0.46757852  0.15518609  1  -1.133453  0  -0.291123  -0.538625  0  2.140651  0
O  O62  1  0.18085895  0.96729670  0.65526197  1  -1.136261  0  -0.291391  -0.538249  0  2.141811  0
O  O63  1  0.80255364  0.53240953  0.84482388  1  -1.133093  0  -0.291146  -0.538745  0  2.140683  0
O  O64  1  0.74077288  0.78842746  0.67961227  1  -1.185152  0  -0.293299  -0.594074  0  2.265313  0
O  O65  1  0.20935807  0.71135118  0.82037868  1  -1.177811  0  -0.293346  -0.593884  0  2.264523  0
O  O66  1  0.25919936  0.21158148  0.32037474  1  -1.185313  0  -0.293271  -0.594028  0  2.265163  0
O  O67  1  0.79063135  0.28865530  0.17962505  1  -1.177913  0  -0.293204  -0.593655  0  2.264584  0
O  O68  1  0.07611194  0.65303315  0.69686196  1  -1.178383  0  -0.291078  -0.573037  0  2.217017  0
O  O69  1  0.42608599  0.84714466  0.80297444  1  -1.18151  0  -0.291785  -0.572837  0  2.216387  0
O  O70  1  0.92386107  0.34703185  0.30312769  1  -1.179006  0  -0.291052  -0.572944  0  2.216781  0
O  O71  1  0.57392734  0.15283788  0.19702922  1  -1.181505  0  -0.291781  -0.572757  0  2.216328  0
O  O72  1  0.40968270  0.34777439  0.50391241  1  -1.171918  0  -0.322623  -0.477321  0  2.303893  0
O  O73  1  0.26094331  0.15271723  0.99601532  1  -1.163407  0  -0.322975  -0.478651  0  2.303113  0
O  O74  1  0.59033696  0.65221970  0.49608097  1  -1.172493  0  -0.322708  -0.477427  0  2.303778  0
O  O75  1  0.73902892  0.84728571  0.00400336  1  -1.163645  0  -0.32284  -0.478242  0  2.30349  0
O  O76  1  0.36204821  0.49616279  0.39187692  1  -1.178251  0  -0.284663  -0.546479  0  2.20231  0
O  O77  1  0.25038060  0.00408536  0.10802234  1  -1.174819  0  -0.284909  -0.546222  0  2.201409  0
O  O78  1  0.63796452  0.50382413  0.60811626  1  -1.178861  0  -0.28458  -0.546311  0  2.202452  0
O  O79  1  0.74962277  0.99589679  0.89198647  1  -1.17432  0  -0.284795  -0.545962  0  2.201315  0
