# generated using pymatgen
data_Zr3H10C32S5O28
_symmetry_space_group_name_H-M   'P 1'
_cell_length_a   16.49211819
_cell_length_b   16.46392478
_cell_length_c   16.43783545
_cell_angle_alpha   61.88109169
_cell_angle_beta   59.97396857
_cell_angle_gamma   59.86905484
_symmetry_Int_Tables_number   1
_chemical_formula_structural   Zr3H10C32S5O28
_chemical_formula_sum   'Zr6 H20 C64 S10 O56'
_cell_volume   3194.50100739
_cell_formula_units_Z   2
loop_
 _symmetry_equiv_pos_site_id
 _symmetry_equiv_pos_as_xyz
  1  'x, y, z'
loop_
 _atom_site_type_symbol
 _atom_site_label
 _atom_site_symmetry_multiplicity
 _atom_site_fract_x
 _atom_site_fract_y
 _atom_site_fract_z
 _atom_site_occupancy
 _atom_site_pbe_bader_charge
 _atom_site_pbe_bader_spin_density
 _atom_site_pbe_cm5_charge
 _atom_site_pbe_ddec_charge
 _atom_site_pbe_ddec_spin_density
 _atom_site_pbe_ddec_sum_bond_order
 _atom_site_pbe_magmom
Zr  Zr0  1  0.88711098  0.90264215  0.60755073  1  2.636162  0  1.638565  2.370095  0  2.783894  0
Zr  Zr1  1  0.10026700  0.11062310  0.40004308  1  2.635143  0  1.639233  2.370021  0  2.783725  0
Zr  Zr2  1  0.10175813  0.89898682  0.61083811  1  2.645349  0  1.635816  2.384811  0  2.698635  0
Zr  Zr3  1  0.88657103  0.11287000  0.39621781  1  2.646411  0  1.637296  2.385289  0  2.699106  0
Zr  Zr4  1  0.10236706  0.89837332  0.39589922  1  2.625557  0  1.628834  2.363179  0  2.767411  0
Zr  Zr5  1  0.88619069  0.11414796  0.61148068  1  2.626225  0  1.630275  2.363731  0  2.768555  0
H  H6  1  0.07941690  0.75562657  0.58084232  1  0.633823  0  0.336704  0.431958  0  0.84442  0
H  H7  1  0.08311684  0.08292271  0.25310328  1  0.607539  0  0.335768  0.429119  0  0.846765  0
H  H8  1  0.07735862  0.09241855  0.58971712  1  0.600473  0  0.334715  0.431727  0  0.84387  0
H  H9  1  0.73853454  0.09248367  0.58942010  1  0.616674  0  0.334105  0.429879  0  0.849796  0
H  H10  1  0.12156901  0.61392799  0.86181896  1  0.136529  0  0.112304  0.124803  0  1.03342  0
H  H11  1  0.87489114  0.63649928  0.81739944  1  0.121085  0  0.116535  0.131424  0  0.986592  0
H  H12  1  0.90322455  0.35980974  0.10664267  1  0.147736  0  0.113606  0.128536  0  1.029478  0
H  H13  1  0.16277416  0.32531195  0.13881090  1  0.13311  0  0.116685  0.131324  0  0.986543  0
H  H14  1  0.83306773  0.31214469  0.65126798  1  0.623399  0  0.301887  0.345591  0  1.003658  0
H  H15  1  0.12453201  0.72946840  0.33115555  1  0.655486  0  0.302224  0.350235  0  0.999509  0
H  H16  1  0.31337364  0.83482508  0.22733560  1  0.641628  0  0.302139  0.349618  0  1.000294  0
H  H17  1  0.70406395  0.15243223  0.81003994  1  0.643012  0  0.301991  0.345532  0  1.004947  0
H  H18  1  0.13017913  0.77498450  0.99918925  1  0.603459  0  0.331842  0.360557  0  0.889303  0
H  H19  1  0.74478071  0.12650336  0.16521645  1  0.619093  0  0.341833  0.372435  0  0.870515  0
H  H20  1  0.45155435  0.66483396  0.63759385  1  0.616484  0  0.343707  0.376439  0  0.866236  0
H  H21  1  0.63532789  0.52383581  0.26632084  1  0.604137  0  0.332131  0.361813  0  0.887684  0
H  H22  1  0.29404453  0.14512378  0.34935791  1  0.62633  0  0.302319  0.34555  0  1.008434  0
H  H23  1  0.71304633  0.84879887  0.63778390  1  0.638417  0  0.303088  0.347186  0  1.004432  0
H  H24  1  0.15314290  0.57630537  0.01121288  1  0.598915  0  0.335404  0.360323  0  0.882304  0
H  H25  1  0.75045664  0.50362548  0.05576738  1  0.614771  0  0.336665  0.36982  0  0.878523  0
C  C26  1  0.99066613  0.74200307  0.48693281  1  1.555526  0  0.229771  0.645475  0  4.131593  0
C  C27  1  0.27902334  0.99040982  0.23962641  1  1.524897  0  0.23012  0.645663  0  4.128614  0
C  C28  1  0.98162204  0.28582438  0.50542352  1  1.526069  0  0.231209  0.647154  0  4.127458  0
C  C29  1  0.72542050  0.00810523  0.78297901  1  1.538856  0  0.231608  0.648596  0  4.12584  0
C  C30  1  0.99094494  0.73601898  0.76491378  1  1.523041  0  0.238182  0.643003  0  4.078303  0
C  C31  1  0.72711713  0.99609472  0.49916545  1  1.535579  0  0.23146  0.64688  0  4.123019  0
C  C32  1  0.00477704  0.26672219  0.23316554  1  1.508979  0  0.237944  0.641712  0  4.080863  0
C  C33  1  0.27495444  0.00264744  0.49335480  1  1.561335  0  0.23267  0.649132  0  4.115771  0
C  C34  1  0.27074133  0.73698178  0.49796874  1  1.545756  0  0.228007  0.648481  0  4.144063  0
C  C35  1  0.99058661  0.00797530  0.77691863  1  1.601737  0  0.231054  0.651262  0  4.138663  0
C  C36  1  0.72469662  0.28112142  0.50360741  1  1.580356  0  0.229625  0.650182  0  4.142807  0
C  C37  1  0.99535260  0.00003942  0.23331410  1  1.574058  0  0.227604  0.64858  0  4.145841  0
C  C38  1  0.90898682  0.43739942  0.56631032  1  -0.034128  0  -0.014895  -0.0873  0  3.968631  0
C  C39  1  0.04645099  0.60627406  0.41088664  1  0.016228  0  -0.020181  -0.094058  0  3.976408  0
C  C40  1  0.97374766  0.38047199  0.50072246  1  -0.094659  0  -0.02225  -0.170414  0  3.936075  0
C  C41  1  0.98607968  0.65861051  0.48080263  1  -0.170133  0  -0.024256  -0.178662  0  3.942259  0
C  C42  1  0.01788947  0.52497884  0.44352852  1  -0.135472  0  -0.011654  -0.023116  0  4.063997  0
C  C43  1  0.93736150  0.51898880  0.53266334  1  -0.144239  0  -0.010273  -0.023507  0  4.064486  0
C  C44  1  0.43469714  0.91448999  0.10373200  1  0.007314  0  -0.020578  -0.094326  0  3.979085  0
C  C45  1  0.58711984  0.06848238  0.93541377  1  0.072432  0  -0.015127  -0.087745  0  3.967572  0
C  C46  1  0.37328667  0.98416504  0.15634201  1  -0.190527  0  -0.024071  -0.178376  0  3.940938  0
C  C47  1  0.64379857  0.00341107  0.87797572  1  -0.161536  0  -0.022661  -0.171232  0  3.934509  0
C  C48  1  0.51047304  0.03528321  0.01701713  1  -0.184782  0  -0.010631  -0.024528  0  4.062802  0
C  C49  1  0.51215780  0.94679708  0.02255107  1  -0.088133  0  -0.012594  -0.024008  0  4.067822  0
C  C50  1  0.06538957  0.94340374  0.90972683  1  0.018568  0  -0.018328  -0.102761  0  4.014523  0
C  C51  1  0.92875635  0.07311914  0.09341292  1  -0.005908  0  -0.012433  -0.092378  0  3.994478  0
C  C52  1  0.99489216  0.00923584  0.86347722  1  -0.123077  0  -0.012897  -0.140466  0  3.921333  0
C  C53  1  0.99581224  0.00316886  0.14257955  1  -0.127691  0  -0.018691  -0.148292  0  3.946857  0
C  C54  1  0.95170049  0.04900450  0.01029810  1  -0.144555  0  -0.015157  -0.037682  0  4.049982  0
C  C55  1  0.03827276  0.96483298  0.99582599  1  -0.189996  0  -0.020551  -0.054537  0  4.092019  0
C  C56  1  0.40290765  0.59513808  0.57164899  1  0.05748  0  -0.01278  -0.092542  0  3.997665  0
C  C57  1  0.59121675  0.42357745  0.43002628  1  0.078896  0  -0.017452  -0.102096  0  4.014739  0
C  C58  1  0.36040407  0.64849908  0.49845689  1  -0.14973  0  -0.018285  -0.150178  0  3.94801  0
C  C59  1  0.63550375  0.37050374  0.50198840  1  -0.200073  0  -0.014372  -0.14489  0  3.929165  0
C  C60  1  0.50817490  0.50706021  0.45461565  1  -0.164704  0  -0.020812  -0.056276  0  4.09175  0
C  C61  1  0.48933010  0.51434230  0.54528379  1  -0.155928  0  -0.015541  -0.03805  0  4.054127  0
C  C62  1  0.06259530  0.58657612  0.88620078  1  -0.053605  0  -0.073344  -0.131745  0  3.908932  0
C  C63  1  0.92280830  0.59874187  0.86130803  1  0.038639  0  -0.078712  -0.117747  0  3.949775  0
C  C64  1  0.91740575  0.51197977  0.93487244  1  -0.036765  0  -0.008707  -0.094405  0  3.976206  0
C  C65  1  0.97855416  0.46431202  0.99424423  1  -0.041029  0  0.003521  0.063015  0  3.954225  0
C  C66  1  0.96339340  0.38592333  0.08142470  1  -0.038674  0  -0.070296  -0.126443  0  3.89415  0
C  C67  1  0.11031988  0.36701112  0.09936782  1  0.039316  0  -0.076594  -0.112377  0  3.952833  0
C  C68  1  0.12748298  0.44251279  0.01440025  1  -0.068364  0  -0.010575  -0.100362  0  3.993261  0
C  C69  1  0.05726533  0.49880647  0.96384999  1  0.023997  0  0.002989  0.06275  0  3.962212  0
C  C70  1  0.99238127  0.63888151  0.84010093  1  -0.038155  0  -0.016734  -0.033915  0  3.980856  0
C  C71  1  0.02482408  0.34212212  0.13615903  1  -0.023805  0  -0.017293  -0.037653  0  3.983762  0
C  C72  1  0.42621222  0.06053341  0.41700441  1  -0.017186  0  -0.019089  -0.095439  0  3.97154  0
C  C73  1  0.59679313  0.91795077  0.55393235  1  0.031666  0  -0.018153  -0.092113  0  3.97008  0
C  C74  1  0.37081882  0.99759450  0.48334201  1  -0.155068  0  -0.021858  -0.170645  0  3.921933  0
C  C75  1  0.64658414  0.98627623  0.49348768  1  -0.157033  0  -0.023341  -0.173922  0  3.930091  0
C  C76  1  0.51711692  0.94556259  0.52423079  1  -0.122025  0  -0.013195  -0.028847  0  4.07214  0
C  C77  1  0.50916472  0.02975839  0.44327405  1  -0.131856  0  -0.013384  -0.02707  0  4.073776  0
C  C78  1  0.81855537  0.43181656  0.65777086  1  1.579826  0  0.225904  0.568414  0  4.158146  0
C  C79  1  0.12529235  0.62315819  0.31159312  1  1.564631  0  0.220253  0.572929  0  4.159917  0
C  C80  1  0.43767893  0.81565317  0.11999964  1  1.574907  0  0.219432  0.570596  0  4.168476  0
C  C81  1  0.59309767  0.15895500  0.93030854  1  1.587835  0  0.225167  0.568045  0  4.158209  0
C  C82  1  0.16347765  0.86860047  0.87048866  1  1.580123  0  0.236783  0.595279  0  4.11099  0
C  C83  1  0.85568027  0.16972469  0.11416902  1  1.603869  0  0.243016  0.599033  0  4.124687  0
C  C84  1  0.35400050  0.61044153  0.67160901  1  1.601197  0  0.241739  0.599371  0  4.124526  0
C  C85  1  0.61960637  0.39697780  0.34107107  1  1.549852  0  0.239746  0.598851  0  4.093536  0
C  C86  1  0.41764924  0.14762072  0.32758316  1  1.570685  0  0.224206  0.57295  0  4.159271  0
C  C87  1  0.61130352  0.82534248  0.63736083  1  1.578873  0  0.224642  0.573837  0  4.15424  0
C  C88  1  0.22521080  0.45800851  0.97271570  1  1.556877  0  0.238278  0.583622  0  4.107899  0
C  C89  1  0.85712358  0.46219378  0.94190331  1  1.553778  0  0.239273  0.586119  0  4.110846  0
S  S90  1  0.06256572  0.42950015  0.39899351  1  0.389119  0  0.129454  0.205415  0  2.832634  0
S  S91  1  0.89443597  0.61184244  0.57987625  1  0.422237  0  0.148903  0.235707  0  2.873907  0
S  S92  1  0.41351960  0.08252293  0.11002616  1  0.413318  0  0.148734  0.234925  0  2.863733  0
S  S93  1  0.60671741  0.90243727  0.92670414  1  0.362045  0  0.128925  0.20515  0  2.837115  0
S  S94  1  0.90047588  0.09894675  0.92064179  1  0.337077  0  0.13953  0.214837  0  2.727594  0
S  S95  1  0.08913677  0.91265078  0.08617110  1  0.322213  0  0.115839  0.174158  0  2.792936  0
S  S96  1  0.42160043  0.60011659  0.40048902  1  0.334204  0  0.118619  0.182749  0  2.786677  0
S  S97  1  0.57589651  0.42023881  0.59889743  1  0.330339  0  0.136535  0.211538  0  2.726479  0
S  S98  1  0.42263051  0.90192004  0.57157526  1  0.401317  0  0.141362  0.223157  0  2.884446  0
S  S99  1  0.59873409  0.07825274  0.40099392  1  0.378763  0  0.137974  0.214908  0  2.871342  0
O  O100  1  0.92407678  0.77699125  0.55804809  1  -1.182427  0  -0.342676  -0.59783  0  2.301631  0
O  O101  1  0.23895641  0.06182193  0.27433287  1  -1.171548  0  -0.34331  -0.598384  0  2.295354  0
O  O102  1  0.05390930  0.24596073  0.43937344  1  -1.176909  0  -0.343271  -0.595322  0  2.28199  0
O  O103  1  0.75824593  0.94245771  0.74295064  1  -1.173073  0  -0.341344  -0.59419  0  2.282155  0
O  O104  1  0.05732177  0.77081993  0.73798621  1  -1.167078  0  -0.338807  -0.599037  0  2.233853  0
O  O105  1  0.75955296  0.06539431  0.43476067  1  -1.176022  0  -0.332471  -0.585142  0  2.263742  0
O  O106  1  0.93123308  0.23883608  0.26769177  1  -1.166447  0  -0.339487  -0.597542  0  2.242203  0
O  O107  1  0.23871844  0.93717804  0.56155061  1  -1.170136  0  -0.330668  -0.583449  0  2.268456  0
O  O108  1  0.23618719  0.76919086  0.42965560  1  -1.173928  0  -0.354927  -0.613163  0  2.257194  0
O  O109  1  0.92162413  0.07839693  0.74342191  1  -1.182745  0  -0.352862  -0.612794  0  2.256563  0
O  O110  1  0.75476857  0.24614681  0.57576721  1  -1.172727  0  -0.353553  -0.613468  0  2.25693  0
O  O111  1  0.06654047  0.93219836  0.26498998  1  -1.181315  0  -0.355589  -0.614402  0  2.257526  0
O  O112  1  0.05619954  0.93615825  0.74181729  1  -1.171895  0  -0.3573  -0.60575  0  2.307543  0
O  O113  1  0.76487000  0.24476065  0.43295169  1  -1.167477  0  -0.355075  -0.604163  0  2.310571  0
O  O114  1  0.92332531  0.06643839  0.27354444  1  -1.165315  0  -0.354338  -0.606317  0  2.316264  0
O  O115  1  0.23363379  0.77471290  0.56700528  1  -1.163017  0  -0.353821  -0.606234  0  2.312158  0
O  O116  1  0.91970797  0.77952101  0.73025352  1  -1.178177  0  -0.375477  -0.629427  0  2.318909  0
O  O117  1  0.23135493  0.07598636  0.43246723  1  -1.202157  0  -0.357938  -0.619799  0  2.362259  0
O  O118  1  0.06647580  0.23318365  0.27712248  1  -1.174067  0  -0.375037  -0.629316  0  2.319927  0
O  O119  1  0.75894922  0.93438228  0.57190504  1  -1.188732  0  -0.35698  -0.619085  0  2.357813  0
O  O120  1  0.75859665  0.07950012  0.74398370  1  -1.193291  0  -0.353568  -0.616705  0  2.356691  0
O  O121  1  0.06344821  0.77390585  0.42192365  1  -1.194592  0  -0.351475  -0.614265  0  2.344862  0
O  O122  1  0.23978174  0.92504390  0.27176416  1  -1.181449  0  -0.3516  -0.613524  0  2.352392  0
O  O123  1  0.91606390  0.24688495  0.57698494  1  -1.1899  0  -0.351713  -0.615815  0  2.354181  0
O  O124  1  0.81101360  0.06848930  0.56435780  1  -1.246155  0  -0.691282  -1.069944  0  2.337516  0
O  O125  1  0.05378780  0.06720050  0.56601479  1  -1.222604  0  -0.691162  -1.07139  0  2.333612  0
O  O126  1  0.05731021  0.06116655  0.32439965  1  -1.230726  0  -0.695283  -1.06953  0  2.363512  0
O  O127  1  0.05540175  0.82689647  0.55886989  1  -1.257518  0  -0.695497  -1.071998  0  2.362518  0
O  O128  1  0.12801058  0.96034871  0.46030455  1  -1.200222  0  -0.790652  -1.149743  0  2.131596  0
O  O129  1  0.95008701  0.96248635  0.45753161  1  -1.200684  0  -0.790819  -1.14961  0  2.129954  0
O  O130  1  0.94866104  0.13776548  0.46195345  1  -1.196248  0  -0.794474  -1.150439  0  2.149952  0
O  O131  1  0.94930205  0.96455605  0.63524823  1  -1.195487  0  -0.794215  -1.150804  0  2.149385  0
O  O132  1  0.78682621  0.35742403  0.69327963  1  -1.126151  0  -0.335613  -0.45927  0  2.284764  0
O  O133  1  0.77491286  0.49784059  0.69604868  1  -1.090209  0  -0.265206  -0.424469  0  2.0885  0
O  O134  1  0.15802743  0.69620550  0.27887325  1  -1.162156  0  -0.340379  -0.470585  0  2.292383  0
O  O135  1  0.15638573  0.57037022  0.26123742  1  -1.104598  0  -0.288968  -0.459067  0  2.069003  0
O  O136  1  0.36489123  0.78279422  0.19353574  1  -1.150658  0  -0.339524  -0.469769  0  2.299656  0
O  O137  1  0.50897739  0.76587376  0.06631583  1  -1.105473  0  -0.287767  -0.456833  0  2.073259  0
O  O138  1  0.66403950  0.19395784  0.85574267  1  -1.148236  0  -0.335872  -0.459711  0  2.285146  0
O  O139  1  0.53340705  0.19682771  0.99677030  1  -1.091881  0  -0.26503  -0.424457  0  2.086259  0
O  O140  1  0.18494228  0.77751763  0.93588179  1  -1.076936  0  -0.31906  -0.441365  0  2.200158  0
O  O141  1  0.22362836  0.88726125  0.78873731  1  -1.095464  0  -0.258672  -0.425457  0  2.103949  0
O  O142  1  0.75725165  0.18480824  0.15087690  1  -1.093522  0  -0.305493  -0.433009  0  2.230245  0
O  O143  1  0.88546966  0.23334680  0.09377671  1  -1.08643  0  -0.248162  -0.41703  0  2.121775  0
O  O144  1  0.39530843  0.64702002  0.69345633  1  -1.088951  0  -0.305781  -0.433244  0  2.219929  0
O  O145  1  0.28195161  0.58637783  0.73175393  1  -1.096156  0  -0.252094  -0.421464  0  2.104313  0
O  O146  1  0.64196362  0.46800302  0.25367360  1  -1.087126  0  -0.325708  -0.462239  0  2.187793  0
O  O147  1  0.61884995  0.32292030  0.34346455  1  -1.066711  0  -0.246442  -0.40316  0  2.073739  0
O  O148  1  0.33901168  0.18435784  0.30079604  1  -1.128503  0  -0.336086  -0.462304  0  2.278969  0
O  O149  1  0.48472245  0.18214718  0.28102909  1  -1.093345  0  -0.275019  -0.439172  0  2.079311  0
O  O150  1  0.67979760  0.79841558  0.67441185  1  -1.142804  0  -0.335864  -0.463003  0  2.278745  0
O  O151  1  0.55928334  0.77649498  0.66882953  1  -1.098015  0  -0.277218  -0.443208  0  2.078025  0
O  O152  1  0.22166858  0.54062293  0.97636388  1  -1.080166  0  -0.321942  -0.447044  0  2.223951  0
O  O153  1  0.30406666  0.39920098  0.93784901  1  -1.096027  0  -0.265551  -0.42192  0  2.032053  0
O  O154  1  0.76730294  0.46617201  0.01438595  1  -1.091957  0  -0.316424  -0.443232  0  2.229549  0
O  O155  1  0.88925946  0.41968599  0.88252380  1  -1.086385  0  -0.273465  -0.434777  0  2.02595  0
