# generated using pymatgen
data_PrH8C8NO9
_symmetry_space_group_name_H-M   'P 1'
_cell_length_a   7.26512196
_cell_length_b   12.12586474
_cell_length_c   13.67200000
_cell_angle_alpha   96.39059908
_cell_angle_beta   90.00000000
_cell_angle_gamma   90.00000000
_symmetry_Int_Tables_number   1
_chemical_formula_structural   PrH8C8NO9
_chemical_formula_sum   'Pr4 H32 C32 N4 O36'
_cell_volume   1196.96275835
_cell_formula_units_Z   4
loop_
 _symmetry_equiv_pos_site_id
 _symmetry_equiv_pos_as_xyz
  1  'x, y, z'
loop_
 _atom_site_type_symbol
 _atom_site_label
 _atom_site_symmetry_multiplicity
 _atom_site_fract_x
 _atom_site_fract_y
 _atom_site_fract_z
 _atom_site_occupancy
 _atom_site_hle17_bader_spin_density
 _atom_site_hle17_ddec_charge
 _atom_site_hle17_ddec_spin_density
 _atom_site_hle17_ddec_sum_bond_order
 _atom_site_hle17_magmom
 _atom_site_hse06_10hf_bader_spin_density
 _atom_site_hse06_10hf_ddec_charge
 _atom_site_hse06_10hf_ddec_spin_density
 _atom_site_hse06_10hf_ddec_sum_bond_order
 _atom_site_hse06_10hf_magmom
 _atom_site_hse06_bader_spin_density
 _atom_site_hse06_ddec_charge
 _atom_site_hse06_ddec_spin_density
 _atom_site_hse06_ddec_sum_bond_order
 _atom_site_hse06_magmom
 _atom_site_pbe_bader_charge
 _atom_site_pbe_bader_spin_density
 _atom_site_pbe_cm5_charge
 _atom_site_pbe_ddec_charge
 _atom_site_pbe_ddec_spin_density
 _atom_site_pbe_ddec_sum_bond_order
 _atom_site_pbe_magmom
Pr  Pr0  1  0.76354121  0.77956406  0.70327107  1  0  2.27164  0  1.602598  0  0  2.09411  0  2.073096  0  0  2.187455  0  1.927421  0  2.257325  0  1.483006  2.06428  0  2.10622  0
Pr  Pr1  1  0.26354272  0.22043453  0.79672806  1  0  2.271587  0  1.602718  0  0  2.093994  0  2.073334  0  0  2.187404  0  1.927553  0  2.257316  0  1.482996  2.064177  0  2.106437  0
Pr  Pr2  1  0.23645852  0.22043370  0.29672798  1  0  2.271604  0  1.602665  0  0  2.094038  0  2.073224  0  0  2.187415  0  1.927492  0  2.25734  0  1.483003  2.064227  0  2.106321  0
Pr  Pr3  1  0.73646252  0.77956406  0.20327253  1  0  2.271543  0  1.602715  0  0  2.093889  0  2.073424  0  0  2.187355  0  1.927549  0  2.257341  0  1.48301  2.064096  0  2.10648  0
H  H4  1  0.27744613  0.97463536  0.97364584  1  0  0.13257  0  0.935855  0  0  0.138918  0  1.000793  0  0  0.143531  0  0.997164  0  0.137325  0  0.123164  0.135644  0  1.003221  0
H  H5  1  0.77743912  0.02536323  0.52635329  1  0  0.132594  0  0.935883  0  0  0.138956  0  1.000779  0  0  0.143568  0  0.99715  0  0.138143  0  0.123191  0.135687  0  1.0032  0
H  H6  1  0.72255497  0.02536323  0.02635476  1  0  0.132598  0  0.935893  0  0  0.138948  0  1.000817  0  0  0.14356  0  0.997189  0  0.138095  0  0.123178  0.135686  0  1.003228  0
H  H7  1  0.22255235  0.97463785  0.47364316  1  0  0.132615  0  0.935807  0  0  0.138928  0  1.000786  0  0  0.143542  0  0.997156  0  0.137386  0  0.123175  0.135667  0  1.003197  0
H  H8  1  0.19866425  0.62439313  0.99680668  1  0  0.12527  0  0.940572  0  0  0.13195  0  1.004694  0  0  0.136579  0  1.001092  0  0.154533  0  0.120163  0.128662  0  1.007157  0
H  H9  1  0.69866136  0.37560712  0.50319481  1  0  0.125228  0  0.940496  0  0  0.131917  0  1.004605  0  0  0.136546  0  1.001004  0  0.154567  0  0.120133  0.128631  0  1.007068  0
H  H10  1  0.80133823  0.37560795  0.00319343  1  0  0.125216  0  0.940557  0  0  0.1319  0  1.004661  0  0  0.136529  0  1.00106  0  0.15455  0  0.120129  0.128611  0  1.007125  0
H  H11  1  0.30134250  0.62439396  0.49680603  1  0  0.125262  0  0.94046  0  0  0.131936  0  1.004582  0  0  0.136564  0  1.000982  0  0.15455  0  0.120149  0.128651  0  1.007044  0
H  H12  1  0.44005180  0.61753616  0.68886382  1  0  0.432233  0  0.86845  0  0  0.40192  0  0.930118  0  0  0.413581  0  0.913101  0  0.669723  0  0.294636  0.393663  0  0.942249  0
H  H13  1  0.94005304  0.38246492  0.81113994  1  0  0.432208  0  0.868478  0  0  0.4019  0  0.930137  0  0  0.41356  0  0.913121  0  0.669726  0  0.294613  0.393643  0  0.942267  0
H  H14  1  0.55994793  0.38246160  0.31113815  1  0  0.432287  0  0.868374  0  0  0.401976  0  0.930038  0  0  0.413636  0  0.913022  0  0.66973  0  0.294642  0.393719  0  0.942168  0
H  H15  1  0.05995219  0.61753616  0.18886090  1  0  0.432211  0  0.868476  0  0  0.401898  0  0.930143  0  0  0.413559  0  0.913127  0  0.669716  0  0.294612  0.393641  0  0.942274  0
H  H16  1  0.32979488  0.72909486  0.69124815  1  0  0.441562  0  0.850266  0  0  0.413493  0  0.908212  0  0  0.424289  0  0.89263  0  0.63458  0  0.297554  0.406046  0  0.919013  0
H  H17  1  0.82979474  0.27090705  0.80875277  1  0  0.441584  0  0.850269  0  0  0.413525  0  0.908191  0  0  0.424319  0  0.892611  0  0.634569  0  0.297594  0.406078  0  0.918991  0
H  H18  1  0.67020485  0.27090373  0.30875390  1  0  0.44159  0  0.850262  0  0  0.413533  0  0.908182  0  0  0.424327  0  0.892604  0  0.634561  0  0.297568  0.406086  0  0.918982  0
H  H19  1  0.17020912  0.72909486  0.19124523  1  0  0.441541  0  0.850355  0  0  0.413497  0  0.908244  0  0  0.424289  0  0.892669  0  0.63456  0  0.297575  0.40605  0  0.919044  0
H  H20  1  0.65971639  0.55745492  0.57776520  1  0  0.444202  0  0.854952  0  0  0.409359  0  0.925189  0  0  0.420463  0  0.909089  0  0.654686  0  0.300432  0.401522  0  0.936656  0
H  H21  1  0.15971239  0.44254533  0.92223556  1  0  0.44419  0  0.854957  0  0  0.409324  0  0.925224  0  0  0.420428  0  0.909124  0  0.654701  0  0.300411  0.401487  0  0.93669  0
H  H22  1  0.34028472  0.44254284  0.42223458  1  0  0.444227  0  0.854905  0  0  0.40936  0  0.925174  0  0  0.420465  0  0.909073  0  0.654703  0  0.300424  0.401522  0  0.936643  0
H  H23  1  0.84027770  0.55745575  0.07776674  1  0  0.444153  0  0.854992  0  0  0.409317  0  0.925219  0  0  0.420421  0  0.909118  0  0.654713  0  0.300407  0.40148  0  0.936687  0
H  H24  1  0.78776104  0.61034062  0.50091388  1  0  0.442397  0  0.816365  0  0  0.424871  0  0.864181  0  0  0.432613  0  0.85312  0  0.643993  0  0.329144  0.419579  0  0.87186  0
H  H25  1  0.28776392  0.38965880  0.99908533  1  0  0.442386  0  0.816381  0  0  0.42486  0  0.864198  0  0  0.432601  0  0.853138  0  0.643994  0  0.32915  0.419568  0  0.871877  0
H  H26  1  0.21223457  0.38965963  0.49908542  1  0  0.442359  0  0.816392  0  0  0.424831  0  0.864233  0  0  0.432573  0  0.853171  0  0.643785  0  0.329134  0.419539  0  0.871911  0
H  H27  1  0.71223581  0.61034062  0.00091315  1  0  0.442327  0  0.816444  0  0  0.424797  0  0.864286  0  0  0.43254  0  0.853223  0  0.643974  0  0.329102  0.419503  0  0.871968  0
H  H28  1  0.59393635  0.86677194  0.92080857  1  0  0.437394  0  0.860709  0  0  0.407378  0  0.923021  0  0  0.418363  0  0.907134  0  0.660033  0  0.294791  0.399819  0  0.933984  0
H  H29  1  0.09393511  0.13322831  0.57919219  1  0  0.437388  0  0.860721  0  0  0.407368  0  0.923038  0  0  0.418355  0  0.907147  0  0.660035  0  0.294787  0.39981  0  0.934  0
H  H30  1  0.40606201  0.13322831  0.07919146  1  0  0.437399  0  0.860713  0  0  0.40739  0  0.923007  0  0  0.418375  0  0.90712  0  0.660032  0  0.294782  0.399833  0  0.93397  0
H  H31  1  0.90606325  0.86677111  0.42080995  1  0  0.4374  0  0.860722  0  0  0.407381  0  0.923036  0  0  0.418367  0  0.907146  0  0.660012  0  0.294786  0.399823  0  0.933999  0
H  H32  1  0.52676886  0.93925016  0.83419962  1  0  0.432067  0  0.864428  0  0  0.402546  0  0.926513  0  0  0.413296  0  0.910922  0  0.645434  0  0.300747  0.394948  0  0.937652  0
H  H33  1  0.02676762  0.06074843  0.66579805  1  0  0.432067  0  0.864423  0  0  0.402548  0  0.926505  0  0  0.413298  0  0.910915  0  0.645404  0  0.300738  0.39495  0  0.937644  0
H  H34  1  0.47323362  0.06074760  0.16579577  1  0  0.432051  0  0.864445  0  0  0.402526  0  0.926537  0  0  0.413278  0  0.910944  0  0.645392  0  0.30069  0.394929  0  0.937674  0
H  H35  1  0.97323211  0.93925016  0.33420400  1  0  0.43198  0  0.864552  0  0  0.402497  0  0.926562  0  0  0.413243  0  0.91098  0  0.645407  0  0.300726  0.394899  0  0.937699  0
C  C36  1  0.07409373  0.88744740  0.88004681  1  0  0.130287  0  3.710156  0  0  0.135656  0  3.953264  0  0  0.136307  0  3.971004  0  0.523141  0  0.135051  0.134946  0  3.942519  0
C  C37  1  0.57408947  0.11255202  0.61995094  1  0  0.130271  0  3.710278  0  0  0.135767  0  3.953231  0  0  0.13642  0  3.970967  0  0.523568  0  0.1351  0.135056  0  3.942489  0
C  C38  1  0.92590600  0.11255285  0.11995248  1  0  0.130292  0  3.710187  0  0  0.135696  0  3.953261  0  0  0.136345  0  3.971009  0  0.523478  0  0.135076  0.134985  0  3.942519  0
C  C39  1  0.42590889  0.88744740  0.38004754  1  0  0.130122  0  3.710416  0  0  0.13562  0  3.953424  0  0  0.13627  0  3.971169  0  0.523401  0  0.135062  0.134909  0  3.94268  0
C  C40  1  0.21083060  0.89514998  0.95210694  1  0  -0.082023  0  3.597742  0  0  -0.116837  0  3.844459  0  0  -0.117064  0  3.85853  0  -0.001931  0  -0.049859  -0.116336  0  3.834287  0
C  C41  1  0.71082771  0.10484861  0.54789293  1  0  -0.082192  0  3.597857  0  0  -0.117003  0  3.844502  0  0  -0.117225  0  3.858564  0  -0.002772  0  -0.049909  -0.116511  0  3.83434  0
C  C42  1  0.78916776  0.10484778  0.04789504  1  0  -0.082152  0  3.597801  0  0  -0.116949  0  3.844554  0  0  -0.117176  0  3.858625  0  -0.002749  0  -0.049892  -0.116467  0  3.834398  0
C  C43  1  0.28917202  0.89515164  0.45210417  1  0  -0.082056  0  3.597734  0  0  -0.116854  0  3.844414  0  0  -0.11708  0  3.858481  0  -0.001999  0  -0.04986  -0.116373  0  3.834258  0
C  C44  1  0.25874858  0.79902132  0.99394332  1  0  0.009999  0  3.690049  0  0  0.031708  0  3.925659  0  0  0.029728  0  3.941698  0  -0.015781  0  0.019531  0.033093  0  3.914252  0
C  C45  1  0.75874432  0.20097810  0.50605662  1  0  0.010079  0  3.689934  0  0  0.031752  0  3.925583  0  0  0.029766  0  3.941618  0  -0.015496  0  0.019515  0.033135  0  3.914177  0
C  C46  1  0.74124977  0.20097893  0.00605817  1  0  0.010069  0  3.689878  0  0  0.031687  0  3.92562  0  0  0.029701  0  3.941658  0  -0.015621  0  0.019539  0.03307  0  3.914213  0
C  C47  1  0.24125541  0.79902132  0.49394186  1  0  0.009941  0  3.689746  0  0  0.031633  0  3.925358  0  0  0.029649  0  3.941394  0  -0.015443  0  0.019472  0.033017  0  3.913953  0
C  C48  1  0.16623258  0.70000814  0.96439709  1  0  -0.090139  0  3.63153  0  0  -0.126303  0  3.880209  0  0  -0.126811  0  3.894933  0  -0.016383  0  -0.050345  -0.125915  0  3.870423  0
C  C49  1  0.66623245  0.29999128  0.53560578  1  0  -0.09016  0  3.631429  0  0  -0.126261  0  3.880137  0  0  -0.12677  0  3.894863  0  -0.016424  0  -0.050332  -0.125877  0  3.870346  0
C  C50  1  0.83376439  0.29999045  0.03560424  1  0  -0.090116  0  3.631538  0  0  -0.126195  0  3.880216  0  0  -0.126704  0  3.894943  0  -0.016487  0  -0.050341  -0.125806  0  3.870421  0
C  C51  1  0.33376866  0.70000731  0.46439335  1  0  -0.090115  0  3.631323  0  0  -0.126213  0  3.879994  0  0  -0.126722  0  3.894716  0  -0.016436  0  -0.050297  -0.125825  0  3.870209  0
C  C52  1  0.03355759  0.69941813  0.89081339  1  0  0.115695  0  3.752043  0  0  0.11896  0  4.002979  0  0  0.119505  0  4.022038  0  0.499805  0  0.128696  0.118108  0  3.992025  0
C  C53  1  0.53355746  0.30058047  0.60919013  1  0  0.115825  0  3.751919  0  0  0.118961  0  4.003057  0  0  0.119507  0  4.022119  0  0.500094  0  0.128743  0.118113  0  3.992081  0
C  C54  1  0.96643939  0.30058212  0.10918883  1  0  0.115679  0  3.75207  0  0  0.118884  0  4.003073  0  0  0.119429  0  4.022135  0  0.49985  0  0.128739  0.118038  0  3.992103  0
C  C55  1  0.46644090  0.69941896  0.39080981  1  0  0.115754  0  3.751986  0  0  0.118928  0  4.003054  0  0  0.119475  0  4.022118  0  0.500068  0  0.128726  0.118064  0  3.992107  0
C  C56  1  0.02193631  0.98407064  0.82509512  1  0  0.679733  0  3.870622  0  0  0.62851  0  4.165532  0  0  0.663357  0  4.158006  0  1.604722  0  0.238941  0.604855  0  4.172621  0
C  C57  1  0.52193893  0.01593376  0.67490385  1  0  0.679922  0  3.870303  0  0  0.628574  0  4.165359  0  0  0.663419  0  4.157835  0  1.604516  0  0.238981  0.604922  0  4.172448  0
C  C58  1  0.97806342  0.01593127  0.17490361  1  0  0.679772  0  3.870431  0  0  0.628495  0  4.165427  0  0  0.663338  0  4.15791  0  1.604496  0  0.238942  0.604841  0  4.172515  0
C  C59  1  0.47807181  0.98406732  0.32509552  1  0  0.679932  0  3.870441  0  0  0.628517  0  4.1656  0  0  0.663362  0  4.158084  0  1.603772  0  0.238904  0.604863  0  4.172688  0
C  C60  1  0.41524148  0.79674922  0.06492441  1  0  0.656212  0  3.906529  0  0  0.606145  0  4.198718  0  0  0.639129  0  4.194799  0  1.577798  0  0.215705  0.583362  0  4.203886  0
C  C61  1  0.91523859  0.20325186  0.43507716  1  0  0.656278  0  3.906246  0  0  0.606169  0  4.198538  0  0  0.639168  0  4.194589  0  1.577281  0  0.215758  0.583388  0  4.2037  0
C  C62  1  0.58475550  0.20324937  0.93507765  1  0  0.656346  0  3.906335  0  0  0.606246  0  4.198636  0  0  0.639247  0  4.194686  0  1.578316  0  0.215783  0.583466  0  4.203799  0
C  C63  1  0.08476251  0.79674922  0.56492294  1  0  0.656302  0  3.906239  0  0  0.606208  0  4.198485  0  0  0.639206  0  4.194535  0  1.577294  0  0.215786  0.583427  0  4.203649  0
C  C64  1  0.93029409  0.59633209  0.84934154  1  0  0.638234  0  3.927637  0  0  0.584819  0  4.230502  0  0  0.618613  0  4.222617  0  1.620157  0  0.226499  0.561973  0  4.236452  0
C  C65  1  0.43029973  0.40366567  0.65066263  1  0  0.638147  0  3.927338  0  0  0.584721  0  4.230287  0  0  0.618506  0  4.222418  0  1.620039  0  0.226408  0.561891  0  4.23621  0
C  C66  1  0.06970564  0.40366899  0.15066223  1  0  0.638178  0  3.927502  0  0  0.58476  0  4.230404  0  0  0.618553  0  4.222521  0  1.620128  0  0.226379  0.561914  0  4.236353  0
C  C67  1  0.56969863  0.59633375  0.34933512  1  0  0.638092  0  3.927375  0  0  0.584649  0  4.230314  0  0  0.618433  0  4.222448  0  1.620053  0  0.226354  0.561823  0  4.236238  0
N  N68  1  0.99012378  0.79131543  0.84991973  1  0  -0.409038  0  3.303454  0  0  -0.36199  0  3.549682  0  0  -0.377218  0  3.569133  0  -1.242749  0  -0.384743  -0.355123  0  3.537667  0
N  N69  1  0.49012254  0.20868150  0.65008143  1  0  -0.409068  0  3.303559  0  0  -0.362015  0  3.54981  0  0  -0.377251  0  3.569259  0  -1.24315  0  -0.384788  -0.355153  0  3.537791  0
N  N70  1  0.00987595  0.20868316  0.15008013  1  0  -0.409063  0  3.303546  0  0  -0.361997  0  3.549784  0  0  -0.377233  0  3.569239  0  -1.243001  0  -0.384801  -0.355133  0  3.537766  0
N  N71  1  0.50987719  0.79131460  0.34991673  1  0  -0.408969  0  3.303512  0  0  -0.361915  0  3.549737  0  0  -0.377157  0  3.569192  0  -1.242845  0  -0.38479  -0.355047  0  3.53772  0
O  O72  1  0.93311028  0.96224917  0.74488213  1  0  -0.694505  0  2.040165  0  0  -0.638298  0  2.278209  0  0  -0.668939  0  2.26732  0  -1.186206  0  -0.353722  -0.620756  0  2.28417  0
O  O73  1  0.43311317  0.03775108  0.75511643  1  0  -0.69457  0  2.040121  0  0  -0.638324  0  2.278216  0  0  -0.668974  0  2.267329  0  -1.186168  0  -0.353691  -0.620774  0  2.284155  0
O  O74  1  0.06689220  0.03775108  0.25511790  1  0  -0.694554  0  2.040089  0  0  -0.638345  0  2.27816  0  0  -0.66899  0  2.267273  0  -1.186231  0  -0.353742  -0.620806  0  2.284128  0
O  O75  1  0.56690170  0.96224834  0.24488424  1  0  -0.694557  0  2.040007  0  0  -0.63828  0  2.278143  0  0  -0.668937  0  2.267254  0  -1.185649  0  -0.353699  -0.620748  0  2.28412  0
O  O76  1  0.07479709  0.07975342  0.86027586  1  0  -0.708263  0  2.022211  0  0  -0.654987  0  2.274807  0  0  -0.686931  0  2.262969  0  -1.193012  0  -0.398647  -0.637674  0  2.280987  0
O  O77  1  0.57479971  0.92025180  0.63972319  1  0  -0.708385  0  2.022077  0  0  -0.655076  0  2.274694  0  0  -0.687009  0  2.26286  0  -1.192987  0  -0.398746  -0.637762  0  2.280876  0
O  O78  1  0.92520814  0.92025180  0.13972392  1  0  -0.708205  0  2.022215  0  0  -0.654888  0  2.274813  0  0  -0.686837  0  2.262975  0  -1.192934  0  -0.39863  -0.63758  0  2.280994  0
O  O79  1  0.42520553  0.07974928  0.36027253  1  0  -0.708364  0  2.022278  0  0  -0.655016  0  2.274937  0  0  -0.686958  0  2.263104  0  -1.192932  0  -0.398663  -0.637702  0  2.281119  0
O  O80  1  0.57100487  0.83431192  0.04043623  1  0  -0.67671  0  1.968013  0  0  -0.6176  0  2.193807  0  0  -0.64752  0  2.183661  0  -1.182973  0  -0.332843  -0.599953  0  2.200133  0
O  O81  1  0.07100638  0.16569580  0.45956673  1  0  -0.676704  0  1.967959  0  0  -0.617577  0  2.193773  0  0  -0.647491  0  2.183614  0  -1.182921  0  -0.332848  -0.599931  0  2.200108  0
O  O82  1  0.42898936  0.16569580  0.95956600  1  0  -0.676735  0  1.968048  0  0  -0.617613  0  2.193871  0  0  -0.647533  0  2.183712  0  -1.183036  0  -0.332887  -0.599966  0  2.200199  0
O  O83  1  0.92899473  0.83430694  0.54043354  1  0  -0.676715  0  1.967904  0  0  -0.617612  0  2.193712  0  0  -0.647521  0  2.183553  0  -1.182915  0  -0.332875  -0.599963  0  2.200042  0
O  O84  1  0.39199342  0.75337847  0.14436950  1  0  -0.664348  0  1.991842  0  0  -0.609421  0  2.2158  0  0  -0.639579  0  2.206913  0  -1.176156  0  -0.331444  -0.59167  0  2.220994  0
O  O85  1  0.89199191  0.24662012  0.35563036  1  0  -0.664415  0  1.991726  0  0  -0.609477  0  2.215721  0  0  -0.639633  0  2.206825  0  -1.176133  0  -0.331482  -0.591722  0  2.220915  0
O  O86  1  0.60800631  0.24661681  0.85563003  1  0  -0.664456  0  1.99173  0  0  -0.609502  0  2.215706  0  0  -0.639663  0  2.206809  0  -1.176639  0  -0.331483  -0.591748  0  2.220898  0
O  O87  1  0.10800645  0.75337764  0.64436869  1  0  -0.664422  0  1.99177  0  0  -0.609475  0  2.215748  0  0  -0.63963  0  2.206851  0  -1.176131  0  -0.331468  -0.591722  0  2.220943  0
O  O88  1  0.97109863  0.50498082  0.88100735  1  0  -0.624687  0  2.032263  0  0  -0.561313  0  2.252979  0  0  -0.586695  0  2.24076  0  -1.186708  0  -0.294598  -0.543225  0  2.260461  0
O  O89  1  0.47111116  0.49501860  0.61899990  1  0  -0.624673  0  2.032063  0  0  -0.561273  0  2.252767  0  0  -0.586651  0  2.240554  0  -1.186562  0  -0.294579  -0.543191  0  2.260242  0
O  O90  1  0.02889284  0.49502026  0.11899787  1  0  -0.624681  0  2.032154  0  0  -0.561307  0  2.252875  0  0  -0.586688  0  2.240657  0  -1.186636  0  -0.294596  -0.54322  0  2.260358  0
O  O91  1  0.52889270  0.50497833  0.38099833  1  0  -0.624683  0  2.031975  0  0  -0.56126  0  2.252679  0  0  -0.586638  0  2.240465  0  -1.186564  0  -0.294563  -0.543177  0  2.260153  0
O  O92  1  0.80593004  0.60956223  0.78651068  1  0  -0.675609  0  1.959914  0  0  -0.624161  0  2.195555  0  0  -0.653439  0  2.181591  0  -1.171623  0  -0.382667  -0.608244  0  2.203204  0
O  O93  1  0.30593843  0.39043470  0.71349707  1  0  -0.675528  0  1.959796  0  0  -0.624054  0  2.19545  0  0  -0.653337  0  2.181486  0  -1.171611  0  -0.382586  -0.608142  0  2.203091  0
O  O94  1  0.19406694  0.39043636  0.21349357  1  0  -0.675537  0  1.959957  0  0  -0.624085  0  2.195608  0  0  -0.653368  0  2.181644  0  -1.171634  0  -0.382559  -0.608168  0  2.203259  0
O  O95  1  0.69406543  0.60956389  0.28650426  1  0  -0.675477  0  1.959906  0  0  -0.623994  0  2.195559  0  0  -0.653285  0  2.181595  0  -1.171613  0  -0.38255  -0.608087  0  2.203195  0
O  O96  1  0.44738272  0.69820739  0.71323995  1  0  -0.928202  0  1.809348  0  0  -0.878877  0  1.992131  0  0  -0.903603  0  1.954289  0  -1.307828  0  -0.655365  -0.866229  0  2.015519  0
O  O97  1  0.94738258  0.30179369  0.78676162  1  0  -0.928196  0  1.809381  0  0  -0.878868  0  1.992165  0  0  -0.903602  0  1.954318  0  -1.307814  0  -0.655374  -0.866225  0  2.015559  0
O  O98  1  0.55261564  0.30179120  0.28676211  1  0  -0.928265  0  1.809308  0  0  -0.878947  0  1.992103  0  0  -0.903679  0  1.954258  0  -1.307828  0  -0.655372  -0.866304  0  2.015502  0
O  O99  1  0.05262265  0.69820739  0.21323629  1  0  -0.928183  0  1.809488  0  0  -0.878847  0  1.992287  0  0  -0.903588  0  1.95444  0  -1.30782  0  -0.65537  -0.866205  0  2.015671  0
O  O100  1  0.75820338  0.61359608  0.57040143  1  0  -0.913597  0  1.819919  0  0  -0.867092  0  2.002143  0  0  -0.890479  0  1.967694  0  -1.288711  0  -0.62972  -0.855331  0  2.023047  0
O  O101  1  0.25820213  0.38640417  0.92959859  1  0  -0.913576  0  1.819933  0  0  -0.86702  0  2.00217  0  0  -0.890414  0  1.967719  0  -1.288713  0  -0.629711  -0.855267  0  2.023084  0
O  O102  1  0.24179773  0.38640168  0.42959835  1  0  -0.913583  0  1.819891  0  0  -0.86704  0  2.002145  0  0  -0.890431  0  1.967694  0  -1.288523  0  -0.629712  -0.85529  0  2.023069  0
O  O103  1  0.74179071  0.61359608  0.07040070  1  0  -0.913456  0  1.819999  0  0  -0.866938  0  2.002244  0  0  -0.890342  0  1.967786  0  -1.288739  0  -0.629653  -0.855175  0  2.023131  0
O  O104  1  0.62075489  0.88682336  0.85363720  1  0  -0.922323  0  1.865592  0  0  -0.873417  0  2.053857  0  0  -0.898512  0  2.01925  0  -1.313205  0  -0.644092  -0.860004  0  2.075174  0
O  O105  1  0.12075503  0.11317606  0.64636275  1  0  -0.922309  0  1.86559  0  0  -0.873399  0  2.053876  0  0  -0.898503  0  2.019264  0  -1.313185  0  -0.644076  -0.859985  0  2.075194  0
O  O106  1  0.37924346  0.11317357  0.14636177  1  0  -0.922299  0  1.865609  0  0  -0.8734  0  2.053913  0  0  -0.898471  0  2.019244  0  -1.313149  0  -0.644008  -0.859987  0  2.075224  0
O  O107  1  0.87924608  0.88682253  0.35363858  1  0  -0.92223  0  1.86573  0  0  -0.873329  0  2.054013  0  0  -0.89844  0  2.019399  0  -1.313149  0  -0.644061  -0.859914  0  2.075327  0
