# generated using pymatgen
data_HgH6(C3N2)2
_symmetry_space_group_name_H-M   'P 1'
_cell_length_a   9.74351358
_cell_length_b   10.93679429
_cell_length_c   14.58990000
_cell_angle_alpha   90.00000000
_cell_angle_beta   90.00000000
_cell_angle_gamma   90.00000000
_symmetry_Int_Tables_number   1
_chemical_formula_structural   HgH6(C3N2)2
_chemical_formula_sum   'Hg8 H48 C48 N32'
_cell_volume   1554.74064902
_cell_formula_units_Z   8
loop_
 _symmetry_equiv_pos_site_id
 _symmetry_equiv_pos_as_xyz
  1  'x, y, z'
loop_
 _atom_site_type_symbol
 _atom_site_label
 _atom_site_symmetry_multiplicity
 _atom_site_fract_x
 _atom_site_fract_y
 _atom_site_fract_z
 _atom_site_occupancy
 _atom_site_pbe_bader_charge
 _atom_site_pbe_bader_spin_density
 _atom_site_pbe_cm5_charge
 _atom_site_pbe_ddec_charge
 _atom_site_pbe_ddec_spin_density
 _atom_site_pbe_ddec_sum_bond_order
 _atom_site_pbe_magmom
Hg  Hg0  1  0.67662347  0.47093690  0.89831390  1  0.894404  0  0.655809  0.543655  0  2.498192  0
Hg  Hg1  1  0.17662314  0.52906362  0.60168610  1  0.894552  0  0.655813  0.543674  0  2.498159  0
Hg  Hg2  1  0.32337719  0.02906428  0.39831459  1  0.894605  0  0.65583  0.543687  0  2.498134  0
Hg  Hg3  1  0.82337752  0.97093716  0.10168610  1  0.894407  0  0.655822  0.543656  0  2.498161  0
Hg  Hg4  1  0.32337719  0.52906454  0.10168541  1  0.894607  0  0.655825  0.543699  0  2.498109  0
Hg  Hg5  1  0.82337546  0.47093690  0.39831390  1  0.894409  0  0.655843  0.543711  0  2.498131  0
Hg  Hg6  1  0.67662347  0.97093625  0.60168610  1  0.894555  0  0.655808  0.543655  0  2.498166  0
Hg  Hg7  1  0.17662314  0.02906428  0.89831459  1  0.894452  0  0.655823  0.54368  0  2.498139  0
H  H8  1  0.66565823  0.76282316  0.96924448  1  0.099558  0  0.118263  0.077691  0  1.033565  0
H  H9  1  0.16565893  0.23717736  0.53075552  1  0.099491  0  0.118275  0.077711  0  1.033567  0
H  H10  1  0.33434140  0.73717671  0.46924516  1  0.09949  0  0.118256  0.077705  0  1.033566  0
H  H11  1  0.83434173  0.26282382  0.03075552  1  0.099483  0  0.118257  0.077699  0  1.033532  0
H  H12  1  0.33434243  0.23717736  0.03075552  1  0.099556  0  0.118261  0.077694  0  1.033576  0
H  H13  1  0.83434173  0.76282225  0.46924516  1  0.099571  0  0.118254  0.077706  0  1.033567  0
H  H14  1  0.66565823  0.26282382  0.53075484  1  0.099562  0  0.118255  0.077689  0  1.033556  0
H  H15  1  0.16565893  0.73717762  0.96924448  1  0.099498  0  0.118269  0.077722  0  1.033577  0
H  H16  1  0.94422612  0.60253762  0.76228487  1  0.08394  0  0.116204  0.076393  0  1.032337  0
H  H17  1  0.44422579  0.39746290  0.73771513  1  0.083939  0  0.116201  0.076379  0  1.032348  0
H  H18  1  0.05577454  0.89746316  0.26228487  1  0.083945  0  0.116201  0.076385  0  1.032348  0
H  H19  1  0.55577487  0.10253736  0.23771513  1  0.08394  0  0.116206  0.076381  0  1.032365  0
H  H20  1  0.05577454  0.39746290  0.23771445  1  0.083942  0  0.116206  0.076399  0  1.032326  0
H  H21  1  0.55577487  0.60253396  0.26228487  1  0.083997  0  0.116196  0.076379  0  1.032362  0
H  H22  1  0.94422612  0.10253644  0.73771445  1  0.083945  0  0.116211  0.076385  0  1.032341  0
H  H23  1  0.44422579  0.89746225  0.76228555  1  0.083933  0  0.116197  0.07638  0  1.032344  0
H  H24  1  0.98526265  0.69568923  0.15754118  1  0.119447  0  0.105292  0.1026  0  1.060544  0
H  H25  1  0.48526129  0.30431129  0.34245882  1  0.119454  0  0.105285  0.102553  0  1.060606  0
H  H26  1  0.01473904  0.80431155  0.65754118  1  0.119455  0  0.105292  0.102594  0  1.060546  0
H  H27  1  0.51473834  0.19568897  0.84245882  1  0.119451  0  0.105292  0.102595  0  1.060551  0
H  H28  1  0.01473801  0.30431129  0.84245951  1  0.119456  0  0.105297  0.102563  0  1.060587  0
H  H29  1  0.51473731  0.69568923  0.65754118  1  0.119441  0  0.1053  0.102609  0  1.060585  0
H  H30  1  0.98526162  0.19568988  0.34245882  1  0.119455  0  0.10529  0.102568  0  1.060569  0
H  H31  1  0.48526232  0.80431155  0.15754186  1  0.119442  0  0.105279  0.10258  0  1.060545  0
H  H32  1  0.95347022  0.28236885  0.60172105  1  0.065784  0  0.104126  0.100107  0  1.045635  0
H  H33  1  0.45347194  0.71763076  0.89827895  1  0.065782  0  0.104121  0.10009  0  1.045648  0
H  H34  1  0.04652942  0.21763141  0.10172174  1  0.065784  0  0.104102  0.100092  0  1.045673  0
H  H35  1  0.54652975  0.78237002  0.39827895  1  0.065785  0  0.104129  0.100126  0  1.045637  0
H  H36  1  0.04652942  0.71763076  0.39827895  1  0.065779  0  0.104127  0.100086  0  1.045653  0
H  H37  1  0.54652667  0.28236702  0.10171900  1  0.065712  0  0.104119  0.100066  0  1.045629  0
H  H38  1  0.95347022  0.78236911  0.89827963  1  0.065776  0  0.10413  0.100111  0  1.045623  0
H  H39  1  0.45347091  0.21763141  0.60172105  1  0.065773  0  0.10412  0.100102  0  1.045654  0
H  H40  1  0.91331324  0.47830926  0.07253374  1  0.088146  0  0.106129  0.098439  0  1.037806  0
H  H41  1  0.41331292  0.52169126  0.42746626  1  0.088206  0  0.106141  0.098465  0  1.037808  0
H  H42  1  0.08668741  0.02169100  0.57253305  1  0.088219  0  0.106152  0.098481  0  1.037803  0
H  H43  1  0.58668774  0.97830952  0.92746626  1  0.088228  0  0.106128  0.098446  0  1.037791  0
H  H44  1  0.08668741  0.52169126  0.92746695  1  0.088217  0  0.106154  0.098479  0  1.037797  0
H  H45  1  0.58668569  0.47831018  0.57253237  1  0.088154  0  0.10616  0.098506  0  1.037757  0
H  H46  1  0.91331324  0.97830952  0.42746695  1  0.08815  0  0.106134  0.098427  0  1.037824  0
H  H47  1  0.41331292  0.02169100  0.07253305  1  0.088132  0  0.106154  0.098486  0  1.03785  0
H  H48  1  0.74677476  0.26202651  0.73251976  1  0.086349  0  0.104951  0.09994  0  1.036508  0
H  H49  1  0.24677546  0.73797402  0.76748093  1  0.086359  0  0.104954  0.099917  0  1.036548  0
H  H50  1  0.25322487  0.23797375  0.23251976  1  0.086347  0  0.104943  0.099938  0  1.036506  0
H  H51  1  0.75322520  0.76202677  0.26748093  1  0.086356  0  0.104955  0.099947  0  1.036516  0
H  H52  1  0.25322487  0.73797402  0.26748093  1  0.086349  0  0.104951  0.099931  0  1.036531  0
H  H53  1  0.75322110  0.26202102  0.23251839  1  0.086295  0  0.10495  0.099869  0  1.03668  0
H  H54  1  0.74677476  0.76202585  0.76748093  1  0.08635  0  0.10495  0.09994  0  1.036528  0
H  H55  1  0.24677546  0.23797467  0.73251907  1  0.086349  0  0.104941  0.099894  0  1.036579  0
C  C56  1  0.74232462  0.71462805  0.00911384  1  0.948557  0  0.106612  0.108649  0  4.046525  0
C  C57  1  0.24232532  0.28537247  0.49088685  1  0.948634  0  0.10659  0.108594  0  4.046532  0
C  C58  1  0.25767501  0.78537182  0.50911315  1  0.948621  0  0.10661  0.108628  0  4.046525  0
C  C59  1  0.75767534  0.21462871  0.99088616  1  0.94862  0  0.106599  0.108637  0  4.046511  0
C  C60  1  0.25767604  0.28537247  0.99088685  1  0.94855  0  0.106585  0.108592  0  4.046548  0
C  C61  1  0.75767534  0.71462805  0.50911384  1  0.948553  0  0.106624  0.108643  0  4.046517  0
C  C62  1  0.74232462  0.21462871  0.49088616  1  0.948546  0  0.10662  0.108668  0  4.046483  0
C  C63  1  0.24232532  0.78537273  0.00911384  1  0.948646  0  0.106598  0.108594  0  4.046597  0
C  C64  1  0.91839971  0.51220311  0.73672952  1  0.987047  0  0.10772  0.125331  0  4.016849  0
C  C65  1  0.41840040  0.48779650  0.76327048  1  0.987037  0  0.107722  0.12537  0  4.016817  0
C  C66  1  0.08159993  0.98779768  0.23673020  1  0.987095  0  0.107727  0.12534  0  4.016894  0
C  C67  1  0.58159923  0.01220284  0.26327048  1  0.987095  0  0.107737  0.125397  0  4.016844  0
C  C68  1  0.08159993  0.48779742  0.26327048  1  0.987106  0  0.107739  0.125342  0  4.01683  0
C  C69  1  0.58159923  0.51219853  0.23672952  1  0.987113  0  0.107737  0.125365  0  4.016916  0
C  C70  1  0.91839971  0.01220284  0.76327048  1  0.987098  0  0.10774  0.125395  0  4.016791  0
C  C71  1  0.41839938  0.98779676  0.73673020  1  0.987097  0  0.10774  0.125364  0  4.016848  0
C  C72  1  0.90814160  0.67776259  0.10566008  1  0.380884  0  -0.025666  -0.067841  0  4.020644  0
C  C73  1  0.40814127  0.32223793  0.39433992  1  0.380896  0  -0.025666  -0.067793  0  4.02059  0
C  C74  1  0.09185803  0.82223820  0.60566008  1  0.380892  0  -0.025664  -0.067826  0  4.020506  0
C  C75  1  0.59185836  0.17776233  0.89433992  1  0.380819  0  -0.025642  -0.067791  0  4.020554  0
C  C76  1  0.09185803  0.32223885  0.89433992  1  0.380886  0  -0.025664  -0.067796  0  4.020554  0
C  C77  1  0.59185734  0.67776259  0.60566008  1  0.380838  0  -0.025677  -0.067853  0  4.020648  0
C  C78  1  0.90814160  0.17776233  0.39434061  1  0.380817  0  -0.025667  -0.067808  0  4.020649  0
C  C79  1  0.40814230  0.82223820  0.10566008  1  0.380785  0  -0.025647  -0.067773  0  4.020505  0
C  C80  1  0.92237568  0.34525108  0.65524507  1  0.375516  0  -0.031735  -0.087307  0  4.069813  0
C  C81  1  0.42237638  0.65474853  0.84475493  1  0.375496  0  -0.031716  -0.087226  0  4.069796  0
C  C82  1  0.07762395  0.15474918  0.15524507  1  0.375521  0  -0.031735  -0.08733  0  4.069865  0
C  C83  1  0.57762428  0.84525134  0.34475562  1  0.375503  0  -0.031778  -0.08738  0  4.069884  0
C  C84  1  0.07762395  0.65474853  0.34475562  1  0.375509  0  -0.03172  -0.087199  0  4.069804  0
C  C85  1  0.57762120  0.34524833  0.15524370  1  0.375463  0  -0.031713  -0.08716  0  4.069595  0
C  C86  1  0.92237568  0.84525134  0.84475562  1  0.37551  0  -0.031759  -0.087306  0  4.069876  0
C  C87  1  0.42237638  0.15474918  0.65524438  1  0.375514  0  -0.031753  -0.087341  0  4.069879  0
C  C88  1  0.87251277  0.56955995  0.06347747  1  0.307457  0  -0.024293  -0.062303  0  4.038264  0
C  C89  1  0.37251244  0.43044149  0.43652253  1  0.307311  0  -0.024267  -0.062302  0  4.038267  0
C  C90  1  0.12748789  0.93044083  0.56347679  1  0.307382  0  -0.024268  -0.062302  0  4.038257  0
C  C91  1  0.62748822  0.06955969  0.93652321  1  0.307387  0  -0.024291  -0.062316  0  4.038243  0
C  C92  1  0.12748789  0.43044057  0.93652321  1  0.307315  0  -0.024256  -0.062276  0  4.038285  0
C  C93  1  0.62748822  0.56955995  0.56347816  1  0.307378  0  -0.024296  -0.062348  0  4.038305  0
C  C94  1  0.87251277  0.06955969  0.43652321  1  0.307389  0  -0.024259  -0.062241  0  4.03833  0
C  C95  1  0.37251346  0.93044175  0.06347679  1  0.307379  0  -0.024274  -0.062334  0  4.038283  0
C  C96  1  0.81822742  0.33608477  0.71916463  1  0.317298  0  -0.029325  -0.074768  0  4.055082  0
C  C97  1  0.31822812  0.66391484  0.78083606  1  0.317295  0  -0.029348  -0.074805  0  4.05514  0
C  C98  1  0.18177324  0.16391549  0.21916463  1  0.317274  0  -0.029345  -0.07481  0  4.055051  0
C  C99  1  0.68177254  0.83608503  0.28083606  1  0.317282  0  -0.029343  -0.074808  0  4.055088  0
C  C100  1  0.18177221  0.66391575  0.28083606  1  0.317306  0  -0.029348  -0.074847  0  4.055124  0
C  C101  1  0.68177049  0.33608111  0.21916326  1  0.317401  0  -0.029405  -0.074826  0  4.055317  0
C  C102  1  0.81822742  0.83608503  0.78083606  1  0.317305  0  -0.029334  -0.074826  0  4.055132  0
C  C103  1  0.31822812  0.16391549  0.71916463  1  0.317316  0  -0.029334  -0.074756  0  4.055111  0
N  N104  1  0.76788213  0.59390895  0.00224196  1  -1.183061  0  -0.352187  -0.248323  0  3.618771  0
N  N105  1  0.26788283  0.40609157  0.49775804  1  -1.183216  0  -0.352213  -0.248341  0  3.618834  0
N  N106  1  0.23211750  0.90609092  0.50224128  1  -1.183276  0  -0.352223  -0.248365  0  3.618844  0
N  N107  1  0.73211783  0.09390960  0.99775804  1  -1.183066  0  -0.352175  -0.248315  0  3.618762  0
N  N108  1  0.23211750  0.40609157  0.99775804  1  -1.183285  0  -0.352223  -0.248361  0  3.618846  0
N  N109  1  0.73211680  0.59390895  0.50224128  1  -1.183068  0  -0.352215  -0.248354  0  3.618831  0
N  N110  1  0.76788316  0.09390869  0.49775804  1  -1.183196  0  -0.35221  -0.248376  0  3.61887  0
N  N111  1  0.26788386  0.90609092  0.00224128  1  -1.183119  0  -0.352221  -0.24834  0  3.618885  0
N  N112  1  0.81680289  0.44221733  0.77022187  1  -1.193269  0  -0.35391  -0.276461  0  3.558221  0
N  N113  1  0.31680358  0.55778319  0.72977813  1  -1.193224  0  -0.353893  -0.276464  0  3.558164  0
N  N114  1  0.18319675  0.05778201  0.27022187  1  -1.19325  0  -0.353895  -0.276444  0  3.558147  0
N  N115  1  0.68319708  0.94221759  0.22977813  1  -1.193228  0  -0.353884  -0.276441  0  3.558107  0
N  N116  1  0.18319777  0.55778227  0.22977813  1  -1.193248  0  -0.353921  -0.276447  0  3.558154  0
N  N117  1  0.68319708  0.44221276  0.27022187  1  -1.193293  0  -0.35386  -0.276433  0  3.55836  0
N  N118  1  0.81680289  0.94221759  0.72977882  1  -1.193266  0  -0.353909  -0.27645  0  3.558116  0
N  N119  1  0.31680256  0.05778201  0.77022187  1  -1.193274  0  -0.353901  -0.27646  0  3.558158  0
N  N120  1  0.82516537  0.76882583  0.07044942  1  -1.187102  0  -0.352784  -0.256256  0  3.596904  0
N  N121  1  0.32516504  0.23117469  0.42955058  1  -1.187093  0  -0.352771  -0.25623  0  3.596918  0
N  N122  1  0.17483529  0.73117403  0.57044942  1  -1.187086  0  -0.35278  -0.25626  0  3.596859  0
N  N123  1  0.67483562  0.26882649  0.92955058  1  -1.187033  0  -0.352795  -0.256299  0  3.59689  0
N  N124  1  0.17483529  0.23117469  0.92955058  1  -1.187063  0  -0.352776  -0.256243  0  3.59687  0
N  N125  1  0.67483459  0.76882583  0.57044942  1  -1.186983  0  -0.352788  -0.256257  0  3.596862  0
N  N126  1  0.82516537  0.26882649  0.42955058  1  -1.187036  0  -0.352793  -0.256285  0  3.596853  0
N  N127  1  0.32516607  0.73117495  0.07044942  1  -1.186976  0  -0.352778  -0.256274  0  3.596981  0
N  N128  1  0.98501325  0.45722539  0.66692918  1  -1.190933  0  -0.355218  -0.25955  0  3.622175  0
N  N129  1  0.48501395  0.54277422  0.83307082  1  -1.190951  0  -0.355225  -0.259579  0  3.622176  0
N  N130  1  0.01498638  0.04277396  0.16692986  1  -1.190984  0  -0.355191  -0.259485  0  3.622161  0
N  N131  1  0.51498671  0.95722656  0.33307082  1  -1.190999  0  -0.355226  -0.259561  0  3.622149  0
N  N132  1  0.01498535  0.54277422  0.33307082  1  -1.190999  0  -0.355242  -0.259627  0  3.622183  0
N  N133  1  0.51498671  0.45722356  0.16692849  1  -1.190967  0  -0.355218  -0.259601  0  3.622038  0
N  N134  1  0.98501325  0.95722565  0.83307082  1  -1.190988  0  -0.355226  -0.259586  0  3.622197  0
N  N135  1  0.48501395  0.04277396  0.66692986  1  -1.190968  0  -0.355195  -0.259504  0  3.62215  0
