# generated using pymatgen
data_ZnH9(CN)7
_symmetry_space_group_name_H-M   'P 1'
_cell_length_a   6.09247460
_cell_length_b   8.52093769
_cell_length_c   20.38659362
_cell_angle_alpha   90.00029322
_cell_angle_beta   90.00012130
_cell_angle_gamma   89.30713863
_symmetry_Int_Tables_number   1
_chemical_formula_structural   ZnH9(CN)7
_chemical_formula_sum   'Zn4 H36 C28 N28'
_cell_volume   1058.26401245
_cell_formula_units_Z   4
loop_
 _symmetry_equiv_pos_site_id
 _symmetry_equiv_pos_as_xyz
  1  'x, y, z'
loop_
 _atom_site_type_symbol
 _atom_site_label
 _atom_site_symmetry_multiplicity
 _atom_site_fract_x
 _atom_site_fract_y
 _atom_site_fract_z
 _atom_site_occupancy
 _atom_site_hle17_bader_spin_density
 _atom_site_hle17_ddec_charge
 _atom_site_hle17_ddec_spin_density
 _atom_site_hle17_ddec_sum_bond_order
 _atom_site_hle17_magmom
 _atom_site_hse06_10hf_bader_spin_density
 _atom_site_hse06_10hf_ddec_charge
 _atom_site_hse06_10hf_ddec_spin_density
 _atom_site_hse06_10hf_ddec_sum_bond_order
 _atom_site_hse06_10hf_magmom
 _atom_site_hse06_bader_spin_density
 _atom_site_hse06_ddec_charge
 _atom_site_hse06_ddec_spin_density
 _atom_site_hse06_ddec_sum_bond_order
 _atom_site_hse06_magmom
 _atom_site_pbe_bader_spin_density
 _atom_site_pbe_cm5_charge
 _atom_site_pbe_ddec_charge
 _atom_site_pbe_ddec_spin_density
 _atom_site_pbe_ddec_sum_bond_order
 _atom_site_pbe_magmom
Zn  Zn0  1  0.74346790  0.94391601  0.98154187  1  0  0.932668  0  2.049221  0  0  0.764267  0  2.525777  0  0  0.799577  0  2.486768  0  0  0.720894  0.740302  0  2.55201  0
Zn  Zn1  1  0.25653100  0.55608619  0.48154213  1  0  0.93274  0  2.049203  0  0  0.76436  0  2.52576  0  0  0.799663  0  2.486755  0  0  0.720907  0.740415  0  2.551979  0
Zn  Zn2  1  0.25653997  0.05609136  0.01845785  1  0  0.932634  0  2.04931  0  0  0.764241  0  2.525854  0  0  0.799546  0  2.48685  0  0  0.72087  0.740278  0  2.552089  0
Zn  Zn3  1  0.74346045  0.44390490  0.51845759  1  0  0.932788  0  2.049232  0  0  0.764368  0  2.525839  0  0  0.799673  0  2.486834  0  0  0.720902  0.740421  0  2.552064  0
H  H4  1  0.02974624  0.67046991  0.95774828  1  0  0.082674  0  0.949817  0  0  0.090084  0  1.019224  0  0  0.092209  0  1.017583  0  0  0.115479  0.088611  0  1.020348  0
H  H5  1  0.97026069  0.82952958  0.45774759  1  0  0.082697  0  0.949834  0  0  0.090121  0  1.019221  0  0  0.092247  0  1.017585  0  0  0.115486  0.088648  0  1.020346  0
H  H6  1  0.97026163  0.32953981  0.04225095  1  0  0.082678  0  0.949838  0  0  0.090123  0  1.019221  0  0  0.092248  0  1.017581  0  0  0.115503  0.08865  0  1.020343  0
H  H7  1  0.02974390  0.17045670  0.54225164  1  0  0.082661  0  0.949986  0  0  0.090075  0  1.019387  0  0  0.092195  0  1.01775  0  0  0.115497  0.088603  0  1.020512  0
H  H8  1  0.93241837  0.53800287  0.75626942  1  0  0.10327  0  0.969655  0  0  0.112957  0  1.035286  0  0  0.115376  0  1.03423  0  0  0.10326  0.111169  0  1.036095  0
H  H9  1  0.06758050  0.96199189  0.25626751  1  0  0.103119  0  0.969626  0  0  0.112804  0  1.035293  0  0  0.115227  0  1.034232  0  0  0.103184  0.111021  0  1.036097  0
H  H10  1  0.06758293  0.46199517  0.24373667  1  0  0.1033  0  0.969607  0  0  0.112994  0  1.035219  0  0  0.115413  0  1.034166  0  0  0.103249  0.111205  0  1.036026  0
H  H11  1  0.93241916  0.03801203  0.74373418  1  0  0.103045  0  0.969686  0  0  0.112768  0  1.035309  0  0  0.115187  0  1.034252  0  0  0.103196  0.110983  0  1.036112  0
H  H12  1  0.55580860  0.90830669  0.84832040  1  0  0.080534  0  0.967951  0  0  0.085932  0  1.041767  0  0  0.088376  0  1.040082  0  0  0.110563  0.084145  0  1.043043  0
H  H13  1  0.44418767  0.59168687  0.34832085  1  0  0.080525  0  0.967932  0  0  0.08591  0  1.041773  0  0  0.088356  0  1.040088  0  0  0.110544  0.08412  0  1.043049  0
H  H14  1  0.44419435  0.09170425  0.15167638  1  0  0.080596  0  0.96786  0  0  0.085981  0  1.041686  0  0  0.088429  0  1.039995  0  0  0.110607  0.084195  0  1.042962  0
H  H15  1  0.55580049  0.40829955  0.65167396  1  0  0.080584  0  0.967915  0  0  0.08598  0  1.041721  0  0  0.088424  0  1.040035  0  0  0.110613  0.084192  0  1.042999  0
H  H16  1  0.16137500  0.40139051  0.91271843  1  0  0.116154  0  0.951926  0  0  0.13358  0  1.019803  0  0  0.134388  0  1.02053  0  0  0.092021  0.132961  0  1.019286  0
H  H17  1  0.83862177  0.09861528  0.41271717  1  0  0.11612  0  0.951995  0  0  0.133534  0  1.019871  0  0  0.13435  0  1.02059  0  0  0.091986  0.132916  0  1.019353  0
H  H18  1  0.83862467  0.59861929  0.08728570  1  0  0.116088  0  0.951881  0  0  0.133505  0  1.019776  0  0  0.134316  0  1.020495  0  0  0.091971  0.132888  0  1.019257  0
H  H19  1  0.16137296  0.90137930  0.58728697  1  0  0.116045  0  0.951962  0  0  0.133497  0  1.019815  0  0  0.134293  0  1.020552  0  0  0.091995  0.132882  0  1.019298  0
H  H20  1  0.34234234  0.51190258  0.86385561  1  0  0.114363  0  0.94505  0  0  0.13561  0  1.006142  0  0  0.135845  0  1.007604  0  0  0.093537  0.135433  0  1.00508  0
H  H21  1  0.65767046  0.98809689  0.36385508  1  0  0.114419  0  0.945054  0  0  0.135656  0  1.006143  0  0  0.13589  0  1.007607  0  0  0.093542  0.135478  0  1.005084  0
H  H22  1  0.65767374  0.48810003  0.13615000  1  0  0.114406  0  0.94512  0  0  0.135644  0  1.0062  0  0  0.13588  0  1.007664  0  0  0.093564  0.135471  0  1.005139  0
H  H23  1  0.34231935  0.01190242  0.63615053  1  0  0.11439  0  0.94513  0  0  0.135631  0  1.006219  0  0  0.135867  0  1.00768  0  0  0.093547  0.135453  0  1.005158  0
H  H24  1  0.16620775  0.37365337  0.82612326  1  0  0.114364  0  0.948683  0  0  0.13614  0  1.006871  0  0  0.137162  0  1.007249  0  0  0.094373  0.135317  0  1.006685  0
H  H25  1  0.83379659  0.12634777  0.32612352  1  0  0.114355  0  0.948661  0  0  0.13613  0  1.006858  0  0  0.137154  0  1.007234  0  0  0.094374  0.13531  0  1.006673  0
H  H26  1  0.83380505  0.62634574  0.17387940  1  0  0.114511  0  0.948612  0  0  0.136254  0  1.006828  0  0  0.137276  0  1.007207  0  0  0.094437  0.135435  0  1.006642  0
H  H27  1  0.16618502  0.87365162  0.67388061  1  0  0.114437  0  0.948637  0  0  0.136206  0  1.006826  0  0  0.137229  0  1.007204  0  0  0.094419  0.135388  0  1.006642  0
H  H28  1  0.47268100  0.66466076  0.72509354  1  0  0.117224  0  0.96671  0  0  0.135625  0  1.034191  0  0  0.13645  0  1.034233  0  0  0.092588  0.134993  0  1.034175  0
H  H29  1  0.52731436  0.83533952  0.22509359  1  0  0.117294  0  0.966612  0  0  0.135668  0  1.034124  0  0  0.136495  0  1.034164  0  0  0.092615  0.135041  0  1.034107  0
H  H30  1  0.52730881  0.33533973  0.27490471  1  0  0.11727  0  0.96666  0  0  0.135669  0  1.034143  0  0  0.136495  0  1.034182  0  0  0.09262  0.135037  0  1.034125  0
H  H31  1  0.47268859  0.16466203  0.77490319  1  0  0.11726  0  0.966656  0  0  0.135639  0  1.034167  0  0  0.136465  0  1.034205  0  0  0.092597  0.135009  0  1.034147  0
H  H32  1  0.70862030  0.74538905  0.68797372  1  0  0.118272  0  0.935808  0  0  0.140604  0  0.992141  0  0  0.141451  0  0.99296  0  0  0.094251  0.139971  0  0.991584  0
H  H33  1  0.29137643  0.75460725  0.18797296  1  0  0.118261  0  0.935818  0  0  0.140615  0  0.992115  0  0  0.14146  0  0.992935  0  0  0.094258  0.139983  0  0.991555  0
H  H34  1  0.29138264  0.25460663  0.31202502  1  0  0.118248  0  0.935892  0  0  0.140609  0  0.992175  0  0  0.141456  0  0.992994  0  0  0.094251  0.139974  0  0.991614  0
H  H35  1  0.70861338  0.24540028  0.81202774  1  0  0.118293  0  0.935813  0  0  0.140617  0  0.992147  0  0  0.141461  0  0.99297  0  0  0.094292  0.139984  0  0.991584  0
H  H36  1  0.51991568  0.86834062  0.73117866  1  0  0.110069  0  0.962061  0  0  0.132672  0  1.02196  0  0  0.133563  0  1.022672  0  0  0.093826  0.131989  0  1.021499  0
H  H37  1  0.48008137  0.63165386  0.23117480  1  0  0.110066  0  0.962051  0  0  0.132666  0  1.021947  0  0  0.133558  0  1.022658  0  0  0.09382  0.131983  0  1.021485  0
H  H38  1  0.48009055  0.13165738  0.26882057  1  0  0.110089  0  0.961954  0  0  0.132699  0  1.021852  0  0  0.13359  0  1.022565  0  0  0.093814  0.132017  0  1.021392  0
H  H39  1  0.51990188  0.36834786  0.76882149  1  0  0.110091  0  0.961928  0  0  0.132682  0  1.021841  0  0  0.133573  0  1.022553  0  0  0.093783  0.131996  0  1.02138  0
C  C40  1  0.94862971  0.68373145  0.91031739  1  0  0.073154  0  3.654058  0  0  0.030413  0  3.90552  0  0  0.035942  0  3.923046  0  0  0.044454  0.026484  0  3.894255  0
C  C41  1  0.05136866  0.81626989  0.41031760  1  0  0.073086  0  3.653969  0  0  0.030319  0  3.905452  0  0  0.035851  0  3.922966  0  0  0.04441  0.026398  0  3.89419  0
C  C42  1  0.05137652  0.31628063  0.08968233  1  0  0.073145  0  3.654043  0  0  0.03034  0  3.905547  0  0  0.03588  0  3.923049  0  0  0.044378  0.026419  0  3.894275  0
C  C43  1  0.94863264  0.18371759  0.58968261  1  0  0.073161  0  3.654083  0  0  0.030381  0  3.905555  0  0  0.035931  0  3.923044  0  0  0.044391  0.026454  0  3.894291  0
C  C44  1  0.00386896  0.58614146  0.85763287  1  0  0.118163  0  3.758783  0  0  0.148442  0  3.997503  0  0  0.145314  0  4.022653  0  0  0.004111  0.150281  0  3.980529  0
C  C45  1  0.99614215  0.91386147  0.35763385  1  0  0.118097  0  3.758974  0  0  0.148406  0  3.997647  0  0  0.145274  0  4.022811  0  0  0.004165  0.150246  0  3.980677  0
C  C46  1  0.99614219  0.41386002  0.14236685  1  0  0.118149  0  3.759196  0  0  0.148473  0  3.997832  0  0  0.145341  0  4.022992  0  0  0.00417  0.150313  0  3.980862  0
C  C47  1  0.00386079  0.08613773  0.64236832  1  0  0.117951  0  3.759394  0  0  0.14828  0  3.998049  0  0  0.145145  0  4.02321  0  0  0.004114  0.150119  0  3.981075  0
C  C48  1  0.89073309  0.61003528  0.79885434  1  0  -0.124598  0  3.639955  0  0  -0.158844  0  3.878137  0  0  -0.158735  0  3.898174  0  0  -0.067979  -0.158497  0  3.864442  0
C  C49  1  0.10926610  0.88996235  0.29885474  1  0  -0.124349  0  3.640092  0  0  -0.158597  0  3.878282  0  0  -0.158488  0  3.898319  0  0  -0.067881  -0.158243  0  3.864574  0
C  C50  1  0.10927149  0.38996977  0.20114538  1  0  -0.124647  0  3.640077  0  0  -0.15889  0  3.878239  0  0  -0.15878  0  3.898278  0  0  -0.067957  -0.158541  0  3.864549  0
C  C51  1  0.89072700  0.11004281  0.70114596  1  0  -0.124123  0  3.64017  0  0  -0.158416  0  3.878315  0  0  -0.15831  0  3.89837  0  0  -0.067833  -0.158073  0  3.864628  0
C  C52  1  0.72727098  0.72637106  0.79347441  1  0  0.113218  0  3.769124  0  0  0.143415  0  4.008565  0  0  0.140307  0  4.034525  0  0  -0.001287  0.145167  0  3.991114  0
C  C53  1  0.27272324  0.77363007  0.29347270  1  0  0.113231  0  3.769093  0  0  0.143362  0  4.0086  0  0  0.140254  0  4.03456  0  0  -0.001325  0.145117  0  3.991153  0
C  C54  1  0.27272868  0.27363169  0.20652531  1  0  0.113283  0  3.769051  0  0  0.143437  0  4.008521  0  0  0.140329  0  4.03448  0  0  -0.001282  0.145189  0  3.991076  0
C  C55  1  0.72727806  0.22637150  0.70652555  1  0  0.113131  0  3.769199  0  0  0.143329  0  4.008639  0  0  0.140216  0  4.0346  0  0  -0.00134  0.145086  0  3.991185  0
C  C56  1  0.68250808  0.81660934  0.84906004  1  0  0.04751  0  3.66808  0  0  0.004438  0  3.92092  0  0  0.009163  0  3.939089  0  0  0.034297  0.001412  0  3.908587  0
C  C57  1  0.31748327  0.68338544  0.34906012  1  0  0.047529  0  3.668015  0  0  0.004508  0  3.920826  0  0  0.009232  0  3.938994  0  0  0.034383  0.001488  0  3.908495  0
C  C58  1  0.31749323  0.18339457  0.15093919  1  0  0.047461  0  3.66798  0  0  0.004428  0  3.920764  0  0  0.009153  0  3.938931  0  0  0.034269  0.001401  0  3.908437  0
C  C59  1  0.68251146  0.31661031  0.65093616  1  0  0.047473  0  3.668126  0  0  0.004408  0  3.92091  0  0  0.009137  0  3.939079  0  0  0.034299  0.001381  0  3.908582  0
C  C60  1  0.17715633  0.46127310  0.86530352  1  0  -0.337223  0  3.71904  0  0  -0.417842  0  3.947383  0  0  -0.41981  0  3.958852  0  0  -0.240095  -0.416112  0  3.939416  0
C  C61  1  0.82284829  0.03872617  0.36530408  1  0  -0.337225  0  3.719069  0  0  -0.41782  0  3.947395  0  0  -0.4198  0  3.958858  0  0  -0.240089  -0.416091  0  3.939429  0
C  C62  1  0.82285154  0.53873076  0.13470013  1  0  -0.33734  0  3.718983  0  0  -0.417944  0  3.947352  0  0  -0.419919  0  3.958816  0  0  -0.240157  -0.416219  0  3.939389  0
C  C63  1  0.17714480  0.96127194  0.63470104  1  0  -0.33719  0  3.719089  0  0  -0.417844  0  3.947475  0  0  -0.419802  0  3.958953  0  0  -0.240137  -0.41612  0  3.93951  0
C  C64  1  0.60141994  0.75303604  0.73119033  1  0  -0.343677  0  3.728589  0  0  -0.424521  0  3.958605  0  0  -0.426751  0  3.970151  0  0  -0.239941  -0.422686  0  3.950687  0
C  C65  1  0.39857054  0.74695849  0.23119011  1  0  -0.343772  0  3.728546  0  0  -0.42459  0  3.958587  0  0  -0.426818  0  3.97013  0  0  -0.239972  -0.422756  0  3.950668  0
C  C66  1  0.39857479  0.24696323  0.26880743  1  0  -0.343735  0  3.728579  0  0  -0.424616  0  3.95864  0  0  -0.426847  0  3.970185  0  0  -0.239987  -0.42278  0  3.950722  0
C  C67  1  0.60141928  0.25304552  0.76880765  1  0  -0.343724  0  3.728505  0  0  -0.424545  0  3.958575  0  0  -0.426771  0  3.970117  0  0  -0.239942  -0.42271  0  3.95065  0
N  N68  1  0.94563059  0.91360057  0.05854905  1  0  -0.612576  0  2.79802  0  0  -0.571572  0  3.123478  0  0  -0.595769  0  3.128312  0  0  -0.325535  -0.555162  0  3.120003  0
N  N69  1  0.05437339  0.58639644  0.55855006  1  0  -0.612604  0  2.797779  0  0  -0.571594  0  3.123233  0  0  -0.595796  0  3.128072  0  0  -0.325478  -0.555189  0  3.119762  0
N  N70  1  0.05437892  0.08640092  0.94144822  1  0  -0.612661  0  2.797962  0  0  -0.571622  0  3.123387  0  0  -0.595828  0  3.128226  0  0  -0.32546  -0.555223  0  3.119931  0
N  N71  1  0.94562134  0.41359814  0.44144818  1  0  -0.612712  0  2.798029  0  0  -0.57167  0  3.123449  0  0  -0.595873  0  3.128285  0  0  -0.325489  -0.555272  0  3.119997  0
N  N72  1  0.87689650  0.94300575  0.11293333  1  0  0.404047  0  4.220843  0  0  0.436358  0  4.504677  0  0  0.451465  0  4.534143  0  0  0.088958  0.426291  0  4.484746  0
N  N73  1  0.12311281  0.55698601  0.61293727  1  0  0.404002  0  4.22093  0  0  0.43631  0  4.50476  0  0  0.451415  0  4.534226  0  0  0.088757  0.426243  0  4.484832  0
N  N74  1  0.12311301  0.05699223  0.88706099  1  0  0.403977  0  4.221226  0  0  0.436274  0  4.505057  0  0  0.451384  0  4.534518  0  0  0.088741  0.426205  0  4.485122  0
N  N75  1  0.87689013  0.44300850  0.38706196  1  0  0.403988  0  4.221155  0  0  0.436286  0  4.504981  0  0  0.451395  0  4.534442  0  0  0.088779  0.426218  0  4.485052  0
N  N76  1  0.81673562  0.97132395  0.16583134  1  0  -0.368792  0  2.421076  0  0  -0.367912  0  2.646171  0  0  -0.373769  0  2.656436  0  0  -0.171883  -0.363873  0  2.639428  0
N  N77  1  0.18326752  0.52866733  0.66583133  1  0  -0.368714  0  2.421404  0  0  -0.367858  0  2.646519  0  0  -0.373696  0  2.656767  0  0  -0.171722  -0.363812  0  2.639774  0
N  N78  1  0.18326733  0.02867525  0.83416740  1  0  -0.368629  0  2.42155  0  0  -0.367779  0  2.646676  0  0  -0.373626  0  2.656936  0  0  -0.17171  -0.363736  0  2.63993  0
N  N79  1  0.81673379  0.47132602  0.33416888  1  0  -0.368647  0  2.421403  0  0  -0.36779  0  2.646528  0  0  -0.373641  0  2.656792  0  0  -0.171733  -0.363746  0  2.639784  0
N  N80  1  0.55510996  0.13962706  0.97534864  1  0  -0.637422  0  2.89416  0  0  -0.58605  0  3.231141  0  0  -0.611869  0  3.23263  0  0  -0.347484  -0.568694  0  3.230093  0
N  N81  1  0.44489055  0.36037476  0.47534771  1  0  -0.637761  0  2.893753  0  0  -0.586389  0  3.230763  0  0  -0.612217  0  3.232248  0  0  -0.347599  -0.569026  0  3.229714  0
N  N82  1  0.44490120  0.86038615  0.02465206  1  0  -0.637489  0  2.894096  0  0  -0.58617  0  3.231053  0  0  -0.61199  0  3.232535  0  0  -0.347508  -0.568814  0  3.230012  0
N  N83  1  0.55510254  0.63961162  0.52465299  1  0  -0.637654  0  2.894065  0  0  -0.586339  0  3.231026  0  0  -0.612162  0  3.23251  0  0  -0.347641  -0.568981  0  3.22998  0
N  N84  1  0.61670106  0.27222954  0.96485661  1  0  0.420266  0  4.193343  0  0  0.45445  0  4.470421  0  0  0.469769  0  4.497751  0  0  0.101006  0.444134  0  4.452054  0
N  N85  1  0.38329445  0.22776164  0.46485585  1  0  0.420636  0  4.193132  0  0  0.454811  0  4.47019  0  0  0.470132  0  4.497507  0  0  0.101214  0.444499  0  4.451831  0
N  N86  1  0.38330846  0.72778134  0.03514409  1  0  0.420343  0  4.192942  0  0  0.454633  0  4.469891  0  0  0.469953  0  4.497211  0  0  0.101102  0.444319  0  4.451532  0
N  N87  1  0.61669700  0.77222241  0.53514534  1  0  0.42034  0  4.193291  0  0  0.454631  0  4.470241  0  0  0.469952  0  4.497559  0  0  0.101158  0.444319  0  4.451885  0
N  N88  1  0.67397179  0.39906664  0.95483302  1  0  -0.320494  0  2.391419  0  0  -0.324799  0  2.610688  0  0  -0.328549  0  2.621433  0  0  -0.14788  -0.322236  0  2.603639  0
N  N89  1  0.32603186  0.10094195  0.45483342  1  0  -0.320573  0  2.391787  0  0  -0.324872  0  2.611066  0  0  -0.328611  0  2.621794  0  0  -0.14793  -0.322317  0  2.604027  0
N  N90  1  0.32603937  0.60094657  0.04516768  1  0  -0.320509  0  2.391108  0  0  -0.324864  0  2.61032  0  0  -0.328612  0  2.621057  0  0  -0.147939  -0.322306  0  2.603278  0
N  N91  1  0.67396123  0.89904913  0.54516826  1  0  -0.320381  0  2.391502  0  0  -0.324744  0  2.610719  0  0  -0.328497  0  2.621468  0  0  -0.14787  -0.322185  0  2.60368  0
N  N92  1  0.79181604  0.79555859  0.90603180  1  0  -0.321196  0  3.410997  0  0  -0.233458  0  3.691137  0  0  -0.251119  0  3.708294  0  0  -0.341567  -0.221427  0  3.679162  0
N  N93  1  0.20818558  0.70443680  0.40603285  1  0  -0.321171  0  3.410885  0  0  -0.233452  0  3.691053  0  0  -0.251109  0  3.70821  0  0  -0.341619  -0.221435  0  3.679092  0
N  N94  1  0.20819675  0.20444991  0.09396546  1  0  -0.321147  0  3.41074  0  0  -0.233414  0  3.690907  0  0  -0.251078  0  3.708069  0  0  -0.341534  -0.221379  0  3.67893  0
N  N95  1  0.79180588  0.29555781  0.59396540  1  0  -0.32121  0  3.410816  0  0  -0.233435  0  3.690923  0  0  -0.251097  0  3.708082  0  0  -0.341606  -0.221409  0  3.678956  0
