# generated using pymatgen
data_NiH12C16N2O5
_symmetry_space_group_name_H-M   'P 1'
_cell_length_a   7.86380618
_cell_length_b   9.68338443
_cell_length_c   11.24812430
_cell_angle_alpha   69.31653183
_cell_angle_beta   70.20150426
_cell_angle_gamma   91.11498355
_symmetry_Int_Tables_number   1
_chemical_formula_structural   NiH12C16N2O5
_chemical_formula_sum   'Ni2 H24 C32 N4 O10'
_cell_volume   744.47997227
_cell_formula_units_Z   2
loop_
 _symmetry_equiv_pos_site_id
 _symmetry_equiv_pos_as_xyz
  1  'x, y, z'
loop_
 _atom_site_type_symbol
 _atom_site_label
 _atom_site_symmetry_multiplicity
 _atom_site_fract_x
 _atom_site_fract_y
 _atom_site_fract_z
 _atom_site_occupancy
 _atom_site_hle17_ddec_charge
 _atom_site_hle17_ddec_spin_density
 _atom_site_hle17_ddec_sum_bond_order
 _atom_site_hle17_magmom
 _atom_site_hse06_10hf_ddec_charge
 _atom_site_hse06_10hf_ddec_spin_density
 _atom_site_hse06_10hf_ddec_sum_bond_order
 _atom_site_hse06_10hf_magmom
 _atom_site_hse06_ddec_charge
 _atom_site_hse06_ddec_spin_density
 _atom_site_hse06_ddec_sum_bond_order
 _atom_site_hse06_magmom
 _atom_site_pbe_cm5_charge
 _atom_site_pbe_ddec_charge
 _atom_site_pbe_ddec_spin_density
 _atom_site_pbe_ddec_sum_bond_order
 _atom_site_pbe_magmom
Ni  Ni0  1  0.83762652  0.24993608  0.20719484  1  0.823162  1.858946  2.048087  1.499  0.821345  1.869642  2.45017  1.616  0.915501  1.926288  2.368613  1.704  0.648818  0.754504  1.82023  2.509896  1.54
Ni  Ni1  1  0.16236945  0.75006101  0.79280514  1  0.823237  -1.858951  2.048022  -1.499  0.821396  -1.869647  2.450117  -1.616  0.915597  -1.926289  2.368551  -1.704  0.648843  0.754539  -1.820228  2.509887  -1.54
H  H2  1  0.97854371  0.42945327  0.26490643  1  0.400351  -0.000194  0.918197  -0.002  0.369739  0.000287  0.986638  0.0  0.382193  9.5e-05  0.969002  0.0  0.279802  0.360988  0.00047  0.998896  0.0
H  H3  1  0.02145030  0.57054047  0.73509771  1  0.400375  0.000194  0.918076  0.002  0.369747  -0.000287  0.986599  0.0  0.382203  -9.5e-05  0.96896  0.0  0.279815  0.360995  -0.00047  0.998857  0.0
H  H4  1  0.11379022  0.44618911  0.11211351  1  0.407034  -0.000601  0.899894  -0.001  0.3804  -3.9e-05  0.963841  0.0  0.391547  -6.9e-05  0.948256  0.0  0.286265  0.37266  -2.4e-05  0.974508  0.0
H  H5  1  0.88620073  0.55381017  0.88788787  1  0.407027  0.000601  0.899805  0.001  0.380386  3.9e-05  0.963833  0.0  0.391535  6.9e-05  0.948247  0.0  0.286272  0.372649  2.4e-05  0.974494  0.0
H  H6  1  0.65592587  0.04885793  0.51859000  1  0.092129  0.00122  0.923073  0.002  0.101639  0.000833  0.980623  0.001  0.104048  0.000593  0.978378  0.001  0.123883  0.099572  0.001075  0.982754  0.002
H  H7  1  0.34407105  0.95113695  0.48141222  1  0.092068  -0.001219  0.923168  -0.002  0.101621  -0.000833  0.980667  -0.001  0.104026  -0.000593  0.978432  -0.001  0.123875  0.099557  -0.001075  0.982791  -0.002
H  H8  1  0.70609823  0.80266035  0.66640948  1  0.123647  0.000307  0.948484  0.0  0.131563  0.00032  1.008254  0.0  0.135942  0.000254  1.005806  0.0  0.110031  0.128117  0.00039  1.010385  0.001
H  H9  1  0.29390857  0.19733688  0.33359323  1  0.123693  -0.000308  0.948456  0.0  0.131616  -0.00032  1.008204  0.0  0.135995  -0.000254  1.005754  0.0  0.110055  0.128166  -0.00039  1.010337  -0.001
H  H10  1  0.94413709  0.66867480  0.55806172  1  0.113769  0.000235  0.945128  0.001  0.126472  -0.000152  1.001322  0.0  0.129998  -0.000103  0.998214  0.0  0.114248  0.123439  -0.000196  1.004367  0.0
H  H11  1  0.05587031  0.33132576  0.44193715  1  0.113765  -0.000235  0.945092  -0.001  0.126459  0.000152  1.001292  0.0  0.12999  0.000103  0.998184  0.0  0.114236  0.123426  0.000196  1.004337  0.0
H  H12  1  0.18551180  0.66615129  0.34200666  1  0.111015  0.000232  0.929089  0.0  0.124826  0.00021  0.981683  0.0  0.127702  0.000135  0.980941  0.0  0.111693  0.122469  0.000276  0.982679  0.0
H  H13  1  0.81449174  0.33385035  0.65799279  1  0.111042  -0.000231  0.929102  0.0  0.124865  -0.00021  0.981681  0.0  0.127734  -0.000134  0.980947  0.0  0.111703  0.122507  -0.000276  0.982675  0.0
H  H14  1  0.35710744  0.79251698  0.09148440  1  0.09765  0.000179  0.96389  0.0  0.109966  0.000162  1.023432  0.0  0.112228  0.000113  1.023682  0.0  0.103182  0.108163  0.000213  1.023603  0.0
H  H15  1  0.64289590  0.20748354  0.90851544  1  0.09764  -0.00018  0.963879  0.0  0.109946  -0.000162  1.023445  0.0  0.112207  -0.000113  1.023697  0.0  0.103168  0.108142  -0.000213  1.02361  0.0
H  H16  1  0.40567395  0.00880883  0.86805496  1  0.115433  0.00036  0.949887  0.001  0.126734  4.1e-05  1.008667  0.0  0.130213  5.4e-05  1.005855  0.0  0.111235  0.123909  2e-05  1.011126  0.0
H  H17  1  0.59433114  0.99119395  0.13194466  1  0.115407  -0.00036  0.949898  -0.001  0.126736  -4.1e-05  1.00865  0.0  0.130213  -5.4e-05  1.005842  0.0  0.111242  0.123909  -2e-05  1.011105  0.0
H  H18  1  0.31701287  0.25465717  0.74963556  1  0.107361  0.000412  0.961471  0.0  0.118153  0.000417  1.019688  0.0  0.120391  0.0003  1.020828  0.0  0.10688  0.116483  0.000548  1.018982  0.001
H  H19  1  0.68299222  0.74534560  0.25036405  1  0.107371  -0.000412  0.961477  0.0  0.118142  -0.000417  1.019715  0.0  0.120379  -0.0003  1.020856  0.0  0.106877  0.116472  -0.000548  1.019006  -0.001
H  H20  1  0.07147075  0.35537515  0.88637874  1  0.090773  0.001109  0.952986  0.002  0.095722  0.000792  1.021194  0.001  0.098603  0.000576  1.017766  0.001  0.120183  0.093127  0.001015  1.024359  0.002
H  H21  1  0.92852833  0.64462421  0.11362158  1  0.090761  -0.001108  0.953006  -0.002  0.095709  -0.000792  1.021202  -0.001  0.098584  -0.000576  1.017793  -0.001  0.120185  0.093117  -0.001015  1.024383  -0.002
H  H22  1  0.38283145  0.35107190  0.03419980  1  0.126174  5.2e-05  0.942585  0.0  0.134547  0.000225  1.001339  0.0  0.137936  0.000134  1.000075  0.0  0.112238  0.132471  0.000314  1.002137  0.001
H  H23  1  0.61715213  0.64892400  0.96580969  1  0.126132  -5.3e-05  0.942577  0.0  0.134543  -0.000225  1.001292  0.0  0.13793  -0.000134  1.00003  0.0  0.112231  0.132473  -0.000315  1.002085  -0.001
H  H24  1  0.37572155  0.37426917  0.50073539  1  0.111817  -0.000218  0.971491  -0.001  0.117283  6.9e-05  1.038487  0.0  0.120842  4.2e-05  1.036902  0.0  0.100748  0.114749  0.000119  1.039955  0.0
H  H25  1  0.62428108  0.62574246  0.49925497  1  0.111762  0.000218  0.971482  0.001  0.117208  -6.9e-05  1.038499  0.0  0.120774  -4.2e-05  1.036909  0.0  0.100706  0.114674  -0.000119  1.039964  0.0
C  C26  1  0.75709581  0.98704867  0.47546081  1  0.150276  -0.01114  3.652818  -0.014  0.119632  -0.002726  3.917525  -0.004  0.131199  -0.002735  3.932896  -0.004  0.062731  0.111261  -0.003247  3.907815  -0.005
C  C27  1  0.24290577  0.01294960  0.52454015  1  0.150349  0.011133  3.652875  0.014  0.119657  0.002724  3.917586  0.004  0.131225  0.002735  3.932962  0.004  0.062751  0.111287  0.003247  3.907881  0.005
C  C28  1  0.78712301  0.84921152  0.55730393  1  -0.093286  0.010064  3.688993  0.012  -0.108746  0.003424  3.946603  0.005  -0.114663  0.003042  3.963042  0.004  -0.074277  -0.1054  0.003851  3.936472  0.005
C  C29  1  0.21288284  0.15078792  0.44269655  1  -0.09336  -0.010057  3.688956  -0.012  -0.108827  -0.003424  3.946584  -0.005  -0.114739  -0.003042  3.963016  -0.004  -0.074331  -0.105479  -0.003851  3.936451  -0.005
C  C30  1  0.91733309  0.77538767  0.49734483  1  -0.036734  -0.01194  3.650174  -0.013  -0.062356  -0.00404  3.898276  -0.004  -0.057486  -0.003352  3.911665  -0.004  -0.057422  -0.066262  -0.005395  3.890591  -0.006
C  C31  1  0.08267160  0.22461288  0.50265646  1  -0.036667  0.011932  3.650024  0.013  -0.062282  0.00404  3.898099  0.004  -0.057419  0.003351  3.911489  0.004  -0.057354  -0.066183  0.005394  3.890412  0.006
C  C32  1  0.15723546  0.77359063  0.28342864  1  -0.083249  0.000795  3.713094  0.001  -0.104144  0.000599  3.962242  0.001  -0.106606  0.000467  3.983691  0.0  -0.07602  -0.101939  0.000737  3.948217  0.001
C  C33  1  0.84276768  0.22640878  0.71657160  1  -0.083379  -0.000807  3.71321  -0.001  -0.1043  -0.000599  3.962364  -0.001  -0.106758  -0.000468  3.983814  0.0  -0.076072  -0.102095  -0.000737  3.948341  -0.001
C  C34  1  0.25107541  0.84292067  0.14550069  1  -0.101163  0.001644  3.740867  0.001  -0.123958  0.00069  3.994052  0.001  -0.127273  0.000582  4.017301  0.001  -0.083517  -0.122512  0.000806  3.979281  0.001
C  C35  1  0.74892813  0.15708096  0.85449788  1  -0.100994  -0.001634  3.740824  -0.001  -0.123784  -0.00069  3.993981  -0.001  -0.127098  -0.000582  4.017231  -0.001  -0.083426  -0.122334  -0.000806  3.979205  -0.001
C  C36  1  0.30207687  0.05890483  0.92470985  1  -0.040451  -0.010079  3.666736  -0.011  -0.069364  -0.003401  3.920251  -0.004  -0.06428  -0.002913  3.934591  -0.003  -0.062187  -0.073597  -0.00462  3.911532  -0.005
C  C37  1  0.69792938  0.94109684  0.07528895  1  -0.040361  0.010087  3.666754  0.011  -0.069313  0.003398  3.920269  0.004  -0.064228  0.002912  3.934606  0.003  -0.062168  -0.073541  0.004619  3.911541  0.005
C  C38  1  0.25214758  0.19285220  0.85958948  1  -0.120893  0.008462  3.720221  0.01  -0.133956  0.003114  3.974983  0.004  -0.141705  0.002769  3.994655  0.004  -0.084672  -0.129258  0.003541  3.962504  0.005
C  C39  1  0.74785732  0.80714946  0.14040965  1  -0.120985  -0.00847  3.720251  -0.01  -0.134043  -0.003112  3.975043  -0.004  -0.141792  -0.002768  3.994712  -0.004  -0.084723  -0.129343  -0.003541  3.96256  -0.005
C  C40  1  0.11274010  0.25061429  0.93597143  1  0.153164  -0.009507  3.664334  -0.012  0.121458  -0.002314  3.932025  -0.004  0.134076  -0.00241  3.945722  -0.004  0.057523  0.112156  -0.002668  3.924403  -0.004
C  C41  1  0.88726284  0.74938399  0.06402919  1  0.15319  0.009513  3.664312  0.012  0.121499  0.002313  3.931972  0.004  0.134116  0.00241  3.945667  0.004  0.057531  0.112194  0.002667  3.924357  0.004
C  C42  1  0.01839894  0.84003909  0.35516027  1  0.02857  0.005276  3.798816  0.007  0.043492  0.00184  4.03185  0.003  0.040878  0.001558  4.0554  0.002  0.002359  0.044738  0.002203  4.015816  0.003
C  C43  1  0.98160710  0.15996146  0.64483892  1  0.028613  -0.005269  3.798771  -0.007  0.043566  -0.001841  4.031762  -0.003  0.040954  -0.001557  4.05531  -0.002  0.002345  0.044806  -0.002203  4.015738  -0.003
C  C44  1  0.97867987  0.97896038  0.28088242  1  0.122884  -0.00434  3.769601  -0.006  0.119572  -0.000792  4.0089  -0.002  0.124293  -0.000989  4.032709  -0.002  0.115654  0.116183  -0.000833  3.991882  -0.002
C  C45  1  0.02132347  0.02104015  0.71911831  1  0.12276  0.004333  3.769577  0.006  0.11942  0.000791  4.008889  0.002  0.124144  0.000989  4.032705  0.002  0.115607  0.116035  0.000833  3.991875  0.002
C  C46  1  0.21264776  0.98315603  0.06763593  1  0.028447  0.004274  3.783198  0.005  0.04564  0.001693  4.013782  0.002  0.042888  0.001446  4.036933  0.002  -0.00098  0.047731  0.001976  3.998449  0.003
C  C47  1  0.78735422  0.01684448  0.93236513  1  0.028325  -0.004281  3.783336  -0.005  0.045538  -0.001692  4.013895  -0.002  0.042785  -0.001446  4.037047  -0.002  -0.001003  0.047627  -0.001976  3.998569  -0.003
C  C48  1  0.07483177  0.05024146  0.13618629  1  0.124607  -0.003286  3.763492  -0.004  0.120666  -0.000615  4.001217  -0.001  0.126035  -0.000816  4.0237  -0.002  0.115126  0.117022  -0.000587  3.986065  -0.001
C  C49  1  0.92517022  0.94975907  0.86381565  1  0.124672  0.003293  3.76351  0.004  0.120729  0.000614  4.001218  0.001  0.126101  0.000815  4.023702  0.002  0.115134  0.117083  0.000587  3.986072  0.001
C  C50  1  0.63050663  0.35360332  0.08255691  1  0.645899  -0.006579  3.899044  -0.011  0.605019  -0.001694  4.195373  -0.005  0.641286  -0.001444  4.190465  -0.004  0.19582  0.579473  -0.001972  4.197795  -0.006
C  C51  1  0.36948237  0.64639261  0.91744863  1  0.645821  0.006578  3.899338  0.011  0.604969  0.001693  4.195649  0.005  0.641236  0.001444  4.190743  0.004  0.195797  0.579438  0.001971  4.198052  0.006
C  C52  1  0.49549583  0.42538778  0.02642205  1  -0.151297  0.008212  3.644308  0.008  -0.166637  0.002107  3.888661  0.002  -0.169937  0.001742  3.898939  0.002  -0.077816  -0.165371  0.002749  3.883  0.002
C  C53  1  0.50448735  0.57460587  0.97358645  1  -0.15105  -0.008211  3.644199  -0.008  -0.166402  -0.002107  3.888505  -0.002  -0.169702  -0.001742  3.898787  -0.002  -0.077697  -0.165146  -0.002749  3.882839  -0.002
C  C54  1  0.67494130  0.40963485  0.39317049  1  0.664801  -0.0031  3.900957  -0.006  0.628274  0.000104  4.19141  -0.001  0.664829  -9e-06  4.183309  -0.001  0.202031  0.60298  0.000135  4.195696  -0.002
C  C55  1  0.32506886  0.59037353  0.60682265  1  0.664593  0.003099  3.901134  0.006  0.628096  -0.000104  4.191539  0.001  0.664652  9e-06  4.183443  0.001  0.201984  0.602807  -0.000135  4.195805  0.002
C  C56  1  0.50234818  0.44396305  0.47780911  1  -0.17193  0.012611  3.673947  0.014  -0.189843  0.004066  3.925204  0.005  -0.194246  0.003262  3.937092  0.004  -0.089424  -0.187117  0.00506  3.917633  0.006
C  C57  1  0.49765445  0.55604856  0.52217947  1  -0.171744  -0.012611  3.674003  -0.014  -0.189646  -0.004065  3.925266  -0.005  -0.194058  -0.003262  3.937152  -0.004  -0.089341  -0.186903  -0.00506  3.91768  -0.006
N  N58  1  0.85018454  0.05036003  0.34089232  1  -0.312133  0.063728  3.321545  0.092  -0.279349  0.040281  3.618694  0.059  -0.308542  0.032616  3.637532  0.049  -0.326909  -0.259463  0.046824  3.606457  0.067
N  N59  1  0.14981724  0.94963935  0.65910736  1  -0.312124  -0.063724  3.32149  -0.092  -0.279306  -0.04028  3.618614  -0.059  -0.308525  -0.032618  3.637481  -0.049  -0.326898  -0.259422  -0.046823  3.606395  -0.067
N  N60  1  0.02562965  0.18107705  0.07068918  1  -0.320015  0.058241  3.307776  0.085  -0.284474  0.038262  3.601517  0.057  -0.31261  0.031307  3.619388  0.048  -0.32601  -0.266002  0.04397  3.590971  0.064
N  N61  1  0.97437098  0.81892344  0.92931042  1  -0.319988  -0.058252  3.307743  -0.085  -0.284435  -0.038264  3.601466  -0.057  -0.312584  -0.031309  3.619348  -0.048  -0.325986  -0.265955  -0.043973  3.590925  -0.064
O  O62  1  0.05356056  0.37364009  0.20838150  1  -0.797895  0.054066  1.964499  0.08  -0.774548  0.03673  2.177042  0.056  -0.809817  0.028031  2.145324  0.044  -0.577833  -0.747016  0.044753  2.19784  0.066
O  O63  1  0.94643751  0.62635365  0.79161724  1  -0.797907  -0.054064  1.964263  -0.08  -0.774552  -0.036728  2.177  -0.056  -0.809809  -0.02803  2.145241  -0.044  -0.577876  -0.74702  -0.044751  2.1978  -0.066
O  O64  1  0.78312637  0.43151913  0.05594654  1  -0.610361  0.046776  2.031296  0.07  -0.566554  0.031065  2.275929  0.049  -0.605169  0.023527  2.269734  0.038  -0.305541  -0.537586  0.038457  2.278987  0.059
O  O65  1  0.21685801  0.56848125  0.94406316  1  -0.610396  -0.046778  2.031346  -0.07  -0.566591  -0.031063  2.275937  -0.049  -0.605221  -0.023528  2.269772  -0.038  -0.30551  -0.537622  -0.038456  2.278996  -0.059
O  O66  1  0.59337840  0.21559915  0.15998922  1  -0.569587  0.049849  1.930527  0.075  -0.545042  0.033515  2.179841  0.052  -0.58169  0.024092  2.171966  0.039  -0.296265  -0.516013  0.043381  2.183421  0.066
O  O67  1  0.40661792  0.78439235  0.84001151  1  -0.56962  -0.049849  1.93076  -0.075  -0.5451  -0.033517  2.180087  -0.052  -0.581755  -0.024093  2.172219  -0.039  -0.296319  -0.516072  -0.043382  2.18366  -0.066
O  O68  1  0.65138678  0.30212391  0.35584743  1  -0.602504  0.056604  2.063924  0.087  -0.573849  0.035217  2.328699  0.056  -0.613922  0.026615  2.320543  0.044  -0.317124  -0.54343  0.043559  2.332765  0.068
O  O69  1  0.34860763  0.69787203  0.64415149  1  -0.602433  -0.056587  2.064192  -0.087  -0.573774  -0.03521  2.328946  -0.056  -0.613854  -0.02661  2.320803  -0.044  -0.317105  -0.543369  -0.043553  2.333024  -0.068
O  O70  1  0.82773041  0.48602796  0.36302097  1  -0.627542  -0.001058  1.941139  -0.001  -0.579415  -0.000646  2.160044  -0.001  -0.604764  -0.000705  2.150837  -0.001  -0.324502  -0.56133  -0.000474  2.166028  0.0
O  O71  1  0.17226806  0.51396802  0.63697786  1  -0.627518  0.001056  1.940889  0.001  -0.579401  0.000646  2.159795  0.001  -0.604757  0.000705  2.150586  0.001  -0.324501  -0.56132  0.000473  2.165771  0.0
