# generated using pymatgen
data_LiH16C13NO5
_symmetry_space_group_name_H-M   'P 1'
_cell_length_a   5.36137881
_cell_length_b   10.38777711
_cell_length_c   11.60784561
_cell_angle_alpha   90.00105712
_cell_angle_beta   99.88087101
_cell_angle_gamma   89.99965878
_symmetry_Int_Tables_number   1
_chemical_formula_structural   LiH16C13NO5
_chemical_formula_sum   'Li2 H32 C26 N2 O10'
_cell_volume   636.88416443
_cell_formula_units_Z   2
loop_
 _symmetry_equiv_pos_site_id
 _symmetry_equiv_pos_as_xyz
  1  'x, y, z'
loop_
 _atom_site_type_symbol
 _atom_site_label
 _atom_site_symmetry_multiplicity
 _atom_site_fract_x
 _atom_site_fract_y
 _atom_site_fract_z
 _atom_site_occupancy
 _atom_site_hle17_bader_spin_density
 _atom_site_hle17_ddec_charge
 _atom_site_hle17_ddec_spin_density
 _atom_site_hle17_ddec_sum_bond_order
 _atom_site_hle17_magmom
 _atom_site_hse06_10hf_bader_spin_density
 _atom_site_hse06_10hf_ddec_charge
 _atom_site_hse06_10hf_ddec_spin_density
 _atom_site_hse06_10hf_ddec_sum_bond_order
 _atom_site_hse06_10hf_magmom
 _atom_site_hse06_bader_spin_density
 _atom_site_hse06_ddec_charge
 _atom_site_hse06_ddec_spin_density
 _atom_site_hse06_ddec_sum_bond_order
 _atom_site_hse06_magmom
 _atom_site_pbe_bader_spin_density
 _atom_site_pbe_cm5_charge
 _atom_site_pbe_ddec_charge
 _atom_site_pbe_ddec_spin_density
 _atom_site_pbe_ddec_sum_bond_order
 _atom_site_pbe_magmom
Li  Li0  1  0.01585097  0.28645670  0.64138008  1  0  0.865395  0  0.403278  0  0  0.831628  0  0.50299  0  0  0.840608  0  0.486239  0  0  0.508965  0.825096  0  0.515077  0
Li  Li1  1  0.98413720  0.78644503  0.35862562  1  0  0.865387  0  0.403217  0  0  0.831623  0  0.502919  0  0  0.840596  0  0.486181  0  0  0.509003  0.825088  0  0.515005  0
H  H2  1  0.41621566  0.88657521  0.97223474  1  0  0.102631  0  0.98002  0  0  0.112575  0  1.044287  0  0  0.115142  0  1.044623  0  0  0.098888  0.110733  0  1.044255  0
H  H3  1  0.58381861  0.38656185  0.02777114  1  0  0.102528  0  0.980193  0  0  0.112557  0  1.044359  0  0  0.115104  0  1.044718  0  0  0.098873  0.110713  0  1.044325  0
H  H4  1  0.80298139  0.92234795  0.11691070  1  0  0.102822  0  0.972983  0  0  0.112242  0  1.034149  0  0  0.115844  0  1.031314  0  0  0.106858  0.109579  0  1.036389  0
H  H5  1  0.19705979  0.42232223  0.88308431  1  0  0.10279  0  0.973184  0  0  0.112218  0  1.034318  0  0  0.115799  0  1.031506  0  0  0.106862  0.109551  0  1.03658  0
H  H6  1  0.09612513  0.10399892  0.09057436  1  0  0.084045  0  0.981677  0  0  0.096736  0  1.042138  0  0  0.099236  0  1.042023  0  0  0.094608  0.094955  0  1.042338  0
H  H7  1  0.90390069  0.60397007  0.90941348  1  0  0.083947  0  0.981781  0  0  0.096644  0  1.042228  0  0  0.099142  0  1.042113  0  0  0.094618  0.094866  0  1.042432  0
H  H8  1  0.97864110  0.25576572  0.92341638  1  0  0.09543  0  0.963867  0  0  0.10416  0  1.029581  0  0  0.107274  0  1.027053  0  0  0.106637  0.101779  0  1.031653  0
H  H9  1  0.02137730  0.75574271  0.07657205  1  0  0.095396  0  0.96379  0  0  0.104157  0  1.029462  0  0  0.107305  0  1.026904  0  0  0.106687  0.101775  0  1.031536  0
H  H10  1  0.20721326  0.83859521  0.78471522  1  0  0.065346  0  0.961393  0  0  0.082782  0  1.031989  0  0  0.082876  0  1.031779  0  0  0.091313  0.082635  0  1.032228  0
H  H11  1  0.79280642  0.33858582  0.21528952  1  0  0.065322  0  0.961265  0  0  0.082771  0  1.031856  0  0  0.082863  0  1.031644  0  0  0.091331  0.082619  0  1.03209  0
H  H12  1  0.95925992  0.93947413  0.70970647  1  0  0.102591  0  0.935578  0  0  0.120301  0  0.997308  0  0  0.12108  0  0.99707  0  0  0.110317  0.119625  0  0.997624  0
H  H13  1  0.04074937  0.43946132  0.29030888  1  0  0.102562  0  0.935458  0  0  0.120279  0  0.997213  0  0  0.121058  0  0.996977  0  0  0.110286  0.119602  0  0.997523  0
H  H14  1  0.01985432  0.93380122  0.86664172  1  0  0.074702  0  0.985679  0  0  0.08977  0  1.058121  0  0  0.088525  0  1.061376  0  0  0.09276  0.090598  0  1.055854  0
H  H15  1  0.98017224  0.43379013  0.13338257  1  0  0.074809  0  0.985616  0  0  0.089864  0  1.058076  0  0  0.08862  0  1.061329  0  0  0.092834  0.090686  0  1.055812  0
H  H16  1  0.49500519  0.09562664  0.56764440  1  0  0.095404  0  0.90895  0  0  0.103262  0  0.968506  0  0  0.10594  0  0.966651  0  0  0.13075  0.101255  0  0.97004  0
H  H17  1  0.50496035  0.59564292  0.43234825  1  0  0.095588  0  0.908957  0  0  0.103302  0  0.968473  0  0  0.105983  0  0.966609  0  0  0.130766  0.101299  0  0.970006  0
H  H18  1  0.67585806  0.98766221  0.43502729  1  0  0.294843  0  0.896643  0  0  0.273124  0  0.965509  0  0  0.282322  0  0.957923  0  0  0.313143  0.266591  0  0.970938  0
H  H19  1  0.32411823  0.48767404  0.56497358  1  0  0.294829  0  0.896732  0  0  0.27313  0  0.965566  0  0  0.282319  0  0.957978  0  0  0.313129  0.2666  0  0.970992  0
H  H20  1  0.38458799  0.93450129  0.37064504  1  0  0.297869  0  0.92117  0  0  0.274111  0  0.990607  0  0  0.284369  0  0.982491  0  0  0.307503  0.266844  0  0.996342  0
H  H21  1  0.61537942  0.43450422  0.62935416  1  0  0.297884  0  0.921173  0  0  0.274117  0  0.990613  0  0  0.284367  0  0.982499  0  0  0.30753  0.26685  0  0.996348  0
H  H22  1  0.45717240  0.03325314  0.21347080  1  0  0.081027  0  0.942258  0  0  0.095522  0  1.004392  0  0  0.095943  0  1.005034  0  0  0.11376  0.095126  0  1.004034  0
H  H23  1  0.54279783  0.53324478  0.78653050  1  0  0.081017  0  0.942164  0  0  0.095503  0  1.004362  0  0  0.095923  0  1.005011  0  0  0.113745  0.095108  0  1.004004  0
H  H24  1  0.71205447  0.12215335  0.29418931  1  0  0.070299  0  0.925273  0  0  0.08601  0  0.988171  0  0  0.086668  0  0.988272  0  0  0.111565  0.085365  0  0.988362  0
H  H25  1  0.28792612  0.62216991  0.70581445  1  0  0.070124  0  0.925247  0  0  0.085883  0  0.988143  0  0  0.086542  0  0.988242  0  0  0.111485  0.085223  0  0.98836  0
H  H26  1  0.14627956  0.18725210  0.26488691  1  0  0.066449  0  0.948776  0  0  0.0858  0  1.009974  0  0  0.086302  0  1.010662  0  0  0.093783  0.085358  0  1.009595  0
H  H27  1  0.85369837  0.68723760  0.73511616  1  0  0.066313  0  0.948846  0  0  0.085668  0  1.010084  0  0  0.086172  0  1.010768  0  0  0.093687  0.085229  0  1.009707  0
H  H28  1  0.39519553  0.29253992  0.24482062  1  0  0.082433  0  0.947669  0  0  0.102617  0  1.003471  0  0  0.103187  0  1.004688  0  0  0.097654  0.102104  0  1.002747  0
H  H29  1  0.60481164  0.79254055  0.75519265  1  0  0.082287  0  0.947779  0  0  0.102529  0  1.00357  0  0  0.103099  0  1.004786  0  0  0.097623  0.10202  0  1.002853  0
H  H30  1  0.24071813  0.30031351  0.45504581  1  0  0.089975  0  0.971426  0  0  0.100745  0  1.042193  0  0  0.103466  0  1.040289  0  0  0.105719  0.098643  0  1.043755  0
H  H31  1  0.75927188  0.80029964  0.54496460  1  0  0.089838  0  0.971701  0  0  0.100581  0  1.042456  0  0  0.103338  0  1.040523  0  0  0.1057  0.09849  0  1.044017  0
H  H32  1  0.57391686  0.28072779  0.45797245  1  0  0.094215  0  0.936064  0  0  0.109215  0  0.997304  0  0  0.111248  0  0.996937  0  0  0.106066  0.1077  0  0.997653  0
H  H33  1  0.42606206  0.78074513  0.54203935  1  0  0.094091  0  0.936185  0  0  0.109128  0  0.997365  0  0  0.111153  0  0.997018  0  0  0.105995  0.107622  0  0.997713  0
C  C34  1  0.55780819  0.26183231  0.76352540  1  0  0.712625  0  3.881617  0  0  0.664609  0  4.178934  0  0  0.6983  0  4.168575  0  0  0.22775  0.641798  0  4.185353  0
C  C35  1  0.44218953  0.76182597  0.23647108  1  0  0.71254  0  3.881367  0  0  0.664489  0  4.178807  0  0  0.698181  0  4.168446  0  0  0.22776  0.641673  0  4.185226  0
C  C36  1  0.62978660  0.16105983  0.85623738  1  0  -0.178535  0  3.718231  0  0  -0.161069  0  3.953896  0  0  -0.171437  0  3.973659  0  0  -0.023907  -0.15442  0  3.940743  0
C  C37  1  0.37021997  0.66103560  0.14376475  1  0  -0.178176  0  3.717882  0  0  -0.16079  0  3.953555  0  0  -0.171166  0  3.973338  0  0  -0.023884  -0.154144  0  3.940396  0
C  C38  1  0.47308861  0.05369058  0.86758318  1  0  0.260267  0  3.797396  0  0  0.245554  0  4.050034  0  0  0.259007  0  4.065855  0  0  0.091082  0.236435  0  4.039239  0
C  C39  1  0.52695313  0.55367556  0.13241438  1  0  0.260085  0  3.797653  0  0  0.245539  0  4.050102  0  0  0.258994  0  4.065919  0  0  0.091188  0.236432  0  4.039295  0
C  C40  1  0.53717576  0.96855601  0.96189327  1  0  -0.224195  0  3.774382  0  0  -0.240864  0  4.02542  0  0  -0.248193  0  4.045654  0  0  -0.117511  -0.236039  0  4.011862  0
C  C41  1  0.46286478  0.46854781  0.03809653  1  0  -0.224053  0  3.774599  0  0  -0.240834  0  4.025549  0  0  -0.248147  0  4.045791  0  0  -0.117496  -0.236004  0  4.011978  0
C  C42  1  0.75841990  0.98850393  0.04321445  1  0  -0.051059  0  3.796226  0  0  -0.06578  0  4.049388  0  0  -0.063256  0  4.067248  0  0  -0.092314  -0.067186  0  4.037225  0
C  C43  1  0.24162037  0.48847752  0.95677399  1  0  -0.051112  0  3.796466  0  0  -0.065822  0  4.049627  0  0  -0.063283  0  4.067493  0  0  -0.092338  -0.067229  0  4.037473  0
C  C44  1  0.91915757  0.09116832  0.02994635  1  0  -0.121604  0  3.815469  0  0  -0.138332  0  4.074027  0  0  -0.14333  0  4.094989  0  0  -0.113521  -0.135108  0  4.059812  0
C  C45  1  0.08086279  0.59113493  0.97004428  1  0  -0.121429  0  3.815509  0  0  -0.138151  0  4.074087  0  0  -0.143144  0  4.09505  0  0  -0.113486  -0.134939  0  4.05989  0
C  C46  1  0.85435413  0.17602701  0.93638824  1  0  -0.051335  0  3.766658  0  0  -0.074415  0  4.015225  0  0  -0.070568  0  4.032657  0  0  -0.083698  -0.076707  0  4.003469  0
C  C47  1  0.14565963  0.67599398  0.06360523  1  0  -0.051548  0  3.766558  0  0  -0.074642  0  4.015192  0  0  -0.07083  0  4.032617  0  0  -0.083834  -0.076927  0  4.003437  0
C  C48  1  0.10585866  0.93045711  0.78731601  1  0  -0.075001  0  3.648782  0  0  -0.173325  0  3.916018  0  0  -0.166161  0  3.920825  0  0  -0.139802  -0.177976  0  3.912508  0
C  C49  1  0.89416955  0.43044465  0.21269541  1  0  -0.074994  0  3.648239  0  0  -0.17339  0  3.915577  0  0  -0.166227  0  3.920379  0  0  -0.139845  -0.178033  0  3.912057  0
C  C50  1  0.10556477  0.06075737  0.49103059  1  0  0.666682  0  3.872377  0  0  0.621596  0  4.176437  0  0  0.652904  0  4.169541  0  0  0.222625  0.600478  0  4.180378  0
C  C51  1  0.89444080  0.56077446  0.50895923  1  0  0.666813  0  3.872099  0  0  0.621479  0  4.176388  0  0  0.652785  0  4.169496  0  0  0.222512  0.60036  0  4.180328  0
C  C52  1  0.37755945  0.10263035  0.48062904  1  0  0.018722  0  3.472016  0  0  -0.001386  0  3.712302  0  0  -0.001225  0  3.721775  0  0  0.017834  -0.001601  0  3.705943  0
C  C53  1  0.62240230  0.60263547  0.51936691  1  0  0.018267  0  3.47215  0  0  -0.001277  0  3.711774  0  0  -0.001121  0  3.72125  0  0  0.017872  -0.0015  0  3.705408  0
C  C54  1  0.51314103  0.09488390  0.28984711  1  0  0.04121  0  3.515748  0  0  -0.018562  0  3.774566  0  0  -0.013831  0  3.783828  0  0  -0.057943  -0.02166  0  3.768365  0
C  C55  1  0.48684551  0.59488775  0.71015485  1  0  0.04145  0  3.515138  0  0  -0.018414  0  3.774166  0  0  -0.013698  0  3.783428  0  0  -0.057884  -0.021496  0  3.767969  0
C  C56  1  0.34577548  0.21163668  0.29731279  1  0  -0.132967  0  3.675364  0  0  -0.1724  0  3.931634  0  0  -0.174102  0  3.945  0  0  -0.16145  -0.171011  0  3.92227  0
C  C57  1  0.65421533  0.71164594  0.70268739  1  0  -0.132747  0  3.675182  0  0  -0.172319  0  3.931604  0  0  -0.174022  0  3.944982  0  0  -0.161348  -0.170932  0  3.922239  0
C  C58  1  0.38612928  0.23821905  0.42874662  1  0  -0.152407  0  3.631936  0  0  -0.197498  0  3.888871  0  0  -0.198901  0  3.899732  0  0  -0.156074  -0.196291  0  3.881452  0
C  C59  1  0.61384052  0.73822509  0.57125767  1  0  -0.152093  0  3.632395  0  0  -0.197145  0  3.88897  0  0  -0.198587  0  3.89982  0  0  -0.156001  -0.195953  0  3.881555  0
N  N60  1  0.49369534  0.01819666  0.39823828  1  0  -0.307643  0  3.255006  0  0  -0.242829  0  3.462014  0  0  -0.257291  0  3.467697  0  0  -0.470373  -0.232966  0  3.458377  0
N  N61  1  0.50627860  0.51819954  0.60175181  1  0  -0.30765  0  3.255052  0  0  -0.242941  0  3.461981  0  0  -0.257359  0  3.467614  0  0  -0.470377  -0.233074  0  3.458342  0
O  O62  1  0.33060818  0.29851094  0.73972706  1  0  -0.709374  0  1.959468  0  0  -0.672156  0  2.207236  0  0  -0.692499  0  2.194098  0  0  -0.403558  -0.657948  0  2.216012  0
O  O63  1  0.66937374  0.79851049  0.26025773  1  0  -0.709305  0  1.959625  0  0  -0.672037  0  2.207362  0  0  -0.692385  0  2.194238  0  0  -0.403437  -0.657832  0  2.216137  0
O  O64  1  0.73577167  0.31049955  0.71676716  1  0  -0.72194  0  1.981076  0  0  -0.673702  0  2.218412  0  0  -0.69671  0  2.206329  0  0  -0.40215  -0.657549  0  2.226191  0
O  O65  1  0.26422006  0.81048466  0.28324099  1  0  -0.722019  0  1.98082  0  0  -0.673802  0  2.218219  0  0  -0.696803  0  2.206126  0  0  -0.402271  -0.657645  0  2.225995  0
O  O66  1  0.26973659  0.03749689  0.78112252  1  0  -0.246619  0  2.396551  0  0  -0.170016  0  2.636724  0  0  -0.188772  0  2.641003  0  0  -0.169774  -0.156761  0  2.633237  0
O  O67  1  0.73029035  0.53748311  0.21888138  1  0  -0.246653  0  2.396319  0  0  -0.170047  0  2.636428  0  0  -0.188799  0  2.640698  0  0  -0.16988  -0.156797  0  2.632939  0
O  O68  1  0.97718498  0.14036517  0.53829572  1  0  -0.692874  0  1.949237  0  0  -0.656183  0  2.195265  0  0  -0.677863  0  2.184983  0  0  -0.389005  -0.641158  0  2.201902  0
O  O69  1  0.02280843  0.64035856  0.46169900  1  0  -0.692684  0  1.949575  0  0  -0.655992  0  2.195753  0  0  -0.677658  0  2.185467  0  0  -0.388928  -0.64097  0  2.202392  0
O  O70  1  0.02567896  0.95099375  0.45225205  1  0  -0.699354  0  1.962315  0  0  -0.653801  0  2.2009  0  0  -0.676055  0  2.189389  0  0  -0.368525  -0.638282  0  2.208329  0
O  O71  1  0.97427680  0.45098032  0.54774142  1  0  -0.699481  0  1.961798  0  0  -0.653896  0  2.200501  0  0  -0.676163  0  2.188996  0  0  -0.368451  -0.638362  0  2.207913  0
