# generated using pymatgen
data_ZnH18C20S2N2O5
_symmetry_space_group_name_H-M   'P 1'
_cell_length_a   7.57942129
_cell_length_b   16.87658931
_cell_length_c   17.26365804
_cell_angle_alpha   89.99951894
_cell_angle_beta   90.00063534
_cell_angle_gamma   93.80750940
_symmetry_Int_Tables_number   1
_chemical_formula_structural   ZnH18C20S2N2O5
_chemical_formula_sum   'Zn4 H72 C80 S8 N8 O20'
_cell_volume   2203.40285766
_cell_formula_units_Z   4
loop_
 _symmetry_equiv_pos_site_id
 _symmetry_equiv_pos_as_xyz
  1  'x, y, z'
loop_
 _atom_site_type_symbol
 _atom_site_label
 _atom_site_symmetry_multiplicity
 _atom_site_fract_x
 _atom_site_fract_y
 _atom_site_fract_z
 _atom_site_occupancy
 _atom_site_pbe_bader_charge
 _atom_site_pbe_bader_spin_density
 _atom_site_pbe_cm5_charge
 _atom_site_pbe_ddec_charge
 _atom_site_pbe_ddec_spin_density
 _atom_site_pbe_ddec_sum_bond_order
 _atom_site_pbe_magmom
Zn  Zn0  1  0.84569383  0.74884864  0.38188791  1  1.278976  0  0.659826  0.767714  0  2.443069  0
Zn  Zn1  1  0.15430647  0.75115253  0.88188396  1  1.278947  0  0.659759  0.767542  0  2.443323  0
Zn  Zn2  1  0.15429543  0.25114748  0.61811399  1  1.278877  0  0.65975  0.767544  0  2.44304  0
Zn  Zn3  1  0.84569045  0.24884948  0.11811564  1  1.278851  0  0.659728  0.767451  0  2.443208  0
H  H4  1  0.15066192  0.72448464  0.46881807  1  0.66426  0  0.28035  0.385694  0  0.957775  0
H  H5  1  0.84935639  0.77551634  0.96881267  1  0.664289  0  0.280361  0.385678  0  0.957753  0
H  H6  1  0.84933182  0.27551442  0.53117979  1  0.664273  0  0.28029  0.385572  0  0.957935  0
H  H7  1  0.15063967  0.22448093  0.03117997  1  0.664332  0  0.28036  0.385702  0  0.957714  0
H  H8  1  0.02827869  0.79811698  0.49069290  1  0.649701  0  0.28373  0.366621  0  0.983511  0
H  H9  1  0.97175298  0.70188910  0.99069334  1  0.650024  0  0.283727  0.366565  0  0.983555  0
H  H10  1  0.97172593  0.20188380  0.50930496  1  0.64978  0  0.28374  0.366686  0  0.983458  0
H  H11  1  0.02824681  0.29810695  0.00930394  1  0.6501  0  0.283732  0.36661  0  0.983486  0
H  H12  1  0.34967048  0.63890235  0.32769992  1  0.088695  0  0.104002  0.113952  0  1.008868  0
H  H13  1  0.65033032  0.86108735  0.82769342  1  0.088517  0  0.104043  0.114058  0  1.008804  0
H  H14  1  0.65031480  0.36110093  0.67230257  1  0.088804  0  0.10406  0.114071  0  1.008791  0
H  H15  1  0.34968212  0.13890564  0.17230386  1  0.088844  0  0.104036  0.114078  0  1.008782  0
H  H16  1  0.23916867  0.52790643  0.24615018  1  0.046075  0  0.096349  0.097062  0  1.029375  0
H  H17  1  0.76083840  0.97208564  0.74615257  1  0.046018  0  0.096357  0.097039  0  1.029382  0
H  H18  1  0.76083350  0.47210268  0.75384188  1  0.045718  0  0.096303  0.096889  0  1.029414  0
H  H19  1  0.23917307  0.02790201  0.25384412  1  0.045836  0  0.096335  0.096975  0  1.029442  0
H  H20  1  0.48757988  0.64065295  0.04600502  1  0.057568  0  0.102431  0.113244  0  1.005882  0
H  H21  1  0.51241520  0.85935203  0.54600655  1  0.057522  0  0.10242  0.11322  0  1.006053  0
H  H22  1  0.51244923  0.35934468  0.95400036  1  0.057307  0  0.10244  0.113222  0  1.005828  0
H  H23  1  0.48757882  0.14066309  0.45400173  1  0.057525  0  0.102404  0.113185  0  1.005706  0
H  H24  1  0.58942905  0.75419563  0.12542250  1  0.117023  0  0.102822  0.116088  0  1.003637  0
H  H25  1  0.41055995  0.74580106  0.62541115  1  0.116836  0  0.102849  0.116029  0  1.003442  0
H  H26  1  0.41058029  0.24580214  0.87458983  1  0.116882  0  0.102912  0.116169  0  1.003662  0
H  H27  1  0.58942299  0.25421116  0.37458960  1  0.116591  0  0.102957  0.11622  0  1.003824  0
H  H28  1  0.43839154  0.84430954  0.39652653  1  0.11187  0  0.100186  0.128954  0  1.033723  0
H  H29  1  0.56162032  0.65568788  0.89652303  1  0.111421  0  0.100162  0.128963  0  1.033788  0
H  H30  1  0.56160110  0.15569072  0.60347422  1  0.111613  0  0.100184  0.12896  0  1.033727  0
H  H31  1  0.43837824  0.34431591  0.10346556  1  0.111754  0  0.100142  0.128878  0  1.03373  0
H  H32  1  0.28294998  0.77273586  0.35688247  1  0.125174  0  0.100952  0.126873  0  1.035594  0
H  H33  1  0.71705281  0.72726074  0.85687567  1  0.125199  0  0.100944  0.126794  0  1.035562  0
H  H34  1  0.71703301  0.22726209  0.64311828  1  0.12536  0  0.100913  0.126808  0  1.035544  0
H  H35  1  0.28294508  0.27274662  0.14311176  1  0.125214  0  0.100943  0.12679  0  1.035542  0
H  H36  1  0.40063587  0.53561175  0.96682167  1  0.091722  0  0.089944  0.104437  0  1.070954  0
H  H37  1  0.59938645  0.96438981  0.46682613  1  0.091228  0  0.089956  0.104423  0  1.070889  0
H  H38  1  0.59939399  0.46439004  0.03316923  1  0.091279  0  0.089978  0.104461  0  1.070936  0
H  H39  1  0.40064404  0.03562267  0.53317578  1  0.091773  0  0.089936  0.1044  0  1.071086  0
H  H40  1  0.20468743  0.47247463  0.95968218  1  0.123972  0  0.112408  0.158557  0  0.99852  0
H  H41  1  0.79534055  0.02753191  0.45968830  1  0.124042  0  0.112439  0.158616  0  0.998343  0
H  H42  1  0.79535516  0.52753183  0.04031741  1  0.124049  0  0.11244  0.158621  0  0.998287  0
H  H43  1  0.20470094  0.97247575  0.54032404  1  0.124011  0  0.112415  0.158602  0  0.998452  0
H  H44  1  0.71099597  0.57117940  0.40897412  1  0.119744  0  0.124038  0.100399  0  0.972084  0
H  H45  1  0.28901881  0.92882503  0.90896182  1  0.120055  0  0.124064  0.100481  0  0.972183  0
H  H46  1  0.28896528  0.42881512  0.59103822  1  0.119805  0  0.124077  0.10049  0  0.97215  0
H  H47  1  0.71101085  0.07117557  0.09104182  1  0.119801  0  0.124123  0.100528  0  0.972228  0
H  H48  1  0.65815837  0.44990516  0.32444779  1  0.090177  0  0.108576  0.111633  0  1.002484  0
H  H49  1  0.34184815  0.05009661  0.82443656  1  0.090098  0  0.108541  0.111612  0  1.002571  0
H  H50  1  0.34180192  0.55008402  0.67555875  1  0.085659  0  0.108557  0.111639  0  1.002613  0
H  H51  1  0.65819657  0.94989972  0.17556129  1  0.085894  0  0.108581  0.111644  0  1.002377  0
H  H52  1  0.76513083  0.45751746  0.18630117  1  0.144704  0  0.103914  0.110141  0  1.036264  0
H  H53  1  0.23486158  0.04249141  0.68629122  1  0.144431  0  0.103909  0.110051  0  1.036249  0
H  H54  1  0.23484710  0.54248171  0.81371232  1  0.144518  0  0.103904  0.110085  0  1.036272  0
H  H55  1  0.76515841  0.95750687  0.31371243  1  0.144282  0  0.103858  0.109954  0  1.036291  0
H  H56  1  0.92603576  0.58213021  0.14009531  1  0.108549  0  0.106599  0.115596  0  1.056266  0
H  H57  1  0.07395311  0.91787825  0.64009480  1  0.108472  0  0.106565  0.115518  0  1.056413  0
H  H58  1  0.07395924  0.41785398  0.85991123  1  0.108298  0  0.106507  0.115457  0  1.056413  0
H  H59  1  0.92604575  0.08213445  0.35990826  1  0.108411  0  0.106537  0.115513  0  1.056366  0
H  H60  1  0.06804658  0.68509745  0.11197766  1  0.159706  0  0.11024  0.123989  0  1.061869  0
H  H61  1  0.93194549  0.81490348  0.61197234  1  0.159487  0  0.110158  0.123938  0  1.06178  0
H  H62  1  0.93191351  0.31488341  0.88803062  1  0.158839  0  0.110128  0.123853  0  1.062002  0
H  H63  1  0.06807414  0.18510730  0.38803014  1  0.158862  0  0.110144  0.123835  0  1.062048  0
H  H64  1  0.20777110  0.81746271  0.07981220  1  0.135267  0  0.11454  0.123094  0  0.988081  0
H  H65  1  0.79221602  0.68253731  0.57980961  1  0.135179  0  0.114516  0.123052  0  0.987946  0
H  H66  1  0.79221088  0.18250790  0.92017812  1  0.135133  0  0.114558  0.12305  0  0.988008  0
H  H67  1  0.20779172  0.31748068  0.42017956  1  0.135148  0  0.11454  0.123015  0  0.988104  0
H  H68  1  0.20445410  0.92666230  0.18006338  1  0.076688  0  0.107848  0.111429  0  1.004014  0
H  H69  1  0.79554101  0.57334581  0.68006866  1  0.076615  0  0.107896  0.111481  0  1.003997  0
H  H70  1  0.79553883  0.07331774  0.81992173  1  0.076261  0  0.1079  0.111533  0  1.003969  0
H  H71  1  0.20445651  0.42667404  0.31991877  1  0.076465  0  0.107915  0.11148  0  1.003903  0
H  H72  1  0.05573343  0.89538294  0.30810901  1  0.094759  0  0.107186  0.069171  0  1.058914  0
H  H73  1  0.94426079  0.60462419  0.80810896  1  0.094626  0  0.107167  0.069162  0  1.059033  0
H  H74  1  0.94425275  0.10461082  0.69188768  1  0.094397  0  0.107128  0.069032  0  1.05918  0
H  H75  1  0.05571722  0.39538271  0.19188484  1  0.094487  0  0.10715  0.069102  0  1.05923  0
C  C76  1  0.47879291  0.70518195  0.23298423  1  -0.131468  0  -0.018836  0.042293  0  4.038201  0
C  C77  1  0.52120185  0.79481684  0.73297938  1  -0.132092  0  -0.018841  0.042323  0  4.038686  0
C  C78  1  0.52121159  0.29481823  0.76702000  1  -0.131867  0  -0.018858  0.042324  0  4.03824  0
C  C79  1  0.47880650  0.20518272  0.26702079  1  -0.131419  0  -0.018827  0.042324  0  4.03826  0
C  C80  1  0.38196302  0.64004755  0.26622113  1  -0.041266  0  -0.098931  -0.125686  0  3.997995  0
C  C81  1  0.61803388  0.85994384  0.76621506  1  -0.040302  0  -0.099025  -0.125957  0  3.998471  0
C  C82  1  0.61804401  0.35995202  0.73378136  1  -0.040695  0  -0.098997  -0.12595  0  3.99793  0
C  C83  1  0.38195965  0.14005404  0.23377989  1  -0.041043  0  -0.099051  -0.125987  0  3.997936  0
C  C84  1  0.32033261  0.57659735  0.22017422  1  -0.017575  0  -0.099946  -0.132547  0  4.026297  0
C  C85  1  0.67967228  0.92340088  0.72017778  1  -0.017679  0  -0.099965  -0.132393  0  4.026029  0
C  C86  1  0.67968605  0.42340809  0.77982363  1  -0.017697  0  -0.099818  -0.132107  0  4.026077  0
C  C87  1  0.32031170  0.07659528  0.27982529  1  -0.017594  0  -0.09992  -0.13239  0  4.026031  0
C  C88  1  0.35627640  0.57517306  0.14044498  1  -0.178191  0  -0.015686  0.046002  0  4.052574  0
C  C89  1  0.64372514  0.92482520  0.64044488  1  -0.178023  0  -0.015678  0.045882  0  4.052379  0
C  C90  1  0.64373227  0.42482828  0.85954824  1  -0.178277  0  -0.0156  0.046068  0  4.052521  0
C  C91  1  0.35627495  0.07517976  0.35954950  1  -0.177869  0  -0.015605  0.046043  0  4.05258  0
C  C92  1  0.45715544  0.63938972  0.10767612  1  0.005275  0  -0.095475  -0.117001  0  3.964064  0
C  C93  1  0.54284158  0.86061001  0.60767316  1  0.005118  0  -0.095463  -0.116932  0  3.964027  0
C  C94  1  0.54285476  0.36061279  0.89232405  1  0.005859  0  -0.095516  -0.116935  0  3.963816  0
C  C95  1  0.45715414  0.13939261  0.39232238  1  0.005504  0  -0.095472  -0.116801  0  3.963666  0
C  C96  1  0.51641857  0.70396552  0.15322892  1  -0.070439  0  -0.092711  -0.121334  0  3.977118  0
C  C97  1  0.48357405  0.79603271  0.65322562  1  -0.069979  0  -0.092693  -0.121187  0  3.976671  0
C  C98  1  0.48357826  0.29602877  0.84677704  1  -0.070086  0  -0.092826  -0.121501  0  3.976835  0
C  C99  1  0.51644415  0.20397748  0.34677629  1  -0.069783  0  -0.092769  -0.121459  0  3.977008  0
C  C100  1  0.42239725  0.78374569  0.37266737  1  -0.208688  0  -0.161541  -0.361716  0  3.920348  0
C  C101  1  0.57759680  0.71625144  0.87265997  1  -0.208908  0  -0.161527  -0.361718  0  3.920378  0
C  C102  1  0.57758178  0.21625228  0.62733628  1  -0.208882  0  -0.161543  -0.361724  0  3.92043  0
C  C103  1  0.42240055  0.28375295  0.12733209  1  -0.2087  0  -0.16151  -0.361521  0  3.920102  0
C  C104  1  0.47119603  0.72578153  0.43702720  1  1.604681  0  0.201324  0.625702  0  4.190816  0
C  C105  1  0.52880573  0.77421267  0.93702025  1  1.604851  0  0.201187  0.625754  0  4.190984  0
C  C106  1  0.52877674  0.27421827  0.56298339  1  1.604111  0  0.201374  0.625653  0  4.190635  0
C  C107  1  0.47119582  0.22578574  0.06297181  1  1.604954  0  0.201264  0.625615  0  4.191273  0
C  C108  1  0.26637262  0.52445924  0.99004996  1  -0.189734  0  -0.160426  -0.348989  0  3.910052  0
C  C109  1  0.73365717  0.97554388  0.49005382  1  -0.172079  0  -0.160532  -0.349089  0  3.909859  0
C  C110  1  0.73366526  0.47554309  0.00994963  1  -0.172295  0  -0.160487  -0.349077  0  3.909801  0
C  C111  1  0.26638103  0.02446023  0.50995099  1  -0.189553  0  -0.1604  -0.348911  0  3.90995  0
C  C112  1  0.15690829  0.59513526  0.97173984  1  1.618666  0  0.211526  0.639659  0  4.149359  0
C  C113  1  0.84313182  0.90486911  0.47174366  1  1.601851  0  0.211502  0.639675  0  4.149734  0
C  C114  1  0.84312356  0.40486294  0.02825975  1  1.602046  0  0.211486  0.6397  0  4.150022  0
C  C115  1  0.15690079  0.09513325  0.52826115  1  1.618947  0  0.211545  0.639626  0  4.149692  0
C  C116  1  0.75719120  0.57011762  0.34919200  1  0.506622  0  0.053137  0.106865  0  3.938664  0
C  C117  1  0.24280436  0.92988384  0.84918700  1  0.506331  0  0.052938  0.106459  0  3.939054  0
C  C118  1  0.24277215  0.42987392  0.65081917  1  0.506292  0  0.05305  0.106645  0  3.938885  0
C  C119  1  0.75720947  0.07011687  0.15081954  1  0.50588  0  0.052895  0.106389  0  3.939162  0
C  C120  1  0.72756381  0.50369376  0.30196351  1  -0.059478  0  -0.0811  -0.128073  0  3.972556  0
C  C121  1  0.27243973  0.99630741  0.80195695  1  -0.059377  0  -0.080949  -0.127801  0  3.9724  0
C  C122  1  0.27239569  0.49629840  0.69804361  1  -0.055102  0  -0.081103  -0.128059  0  3.972901  0
C  C123  1  0.72759223  0.00369139  0.19804438  1  -0.055204  0  -0.081036  -0.127877  0  3.972367  0
C  C124  1  0.78713286  0.50801176  0.22545958  1  -0.025936  0  -0.06813  -0.024857  0  3.941624  0
C  C125  1  0.21286544  0.99199301  0.72545276  1  -0.025787  0  -0.068149  -0.024892  0  3.9414  0
C  C126  1  0.21283090  0.49198929  0.77454697  1  -0.025317  0  -0.06805  -0.024763  0  3.941621  0
C  C127  1  0.78717105  0.00800160  0.27454973  1  -0.02549  0  -0.068083  -0.024775  0  3.941214  0
C  C128  1  0.87585930  0.57782224  0.19917713  1  -0.043183  0  -0.077734  -0.15064  0  3.912804  0
C  C129  1  0.12414221  0.92218211  0.69917451  1  -0.043625  0  -0.077612  -0.150413  0  3.913091  0
C  C130  1  0.12411524  0.42217279  0.80082478  1  -0.043103  0  -0.077659  -0.150396  0  3.913067  0
C  C131  1  0.87586789  0.07781981  0.30082508  1  -0.043415  0  -0.07768  -0.150439  0  3.91287  0
C  C132  1  0.90007623  0.64241280  0.24983015  1  0.502739  0  0.1217  0.168993  0  3.986147  0
C  C133  1  0.09993098  0.85759410  0.74982099  1  0.502966  0  0.121568  0.16904  0  3.986204  0
C  C134  1  0.09990524  0.35757683  0.75018508  1  0.503626  0  0.121643  0.168634  0  3.986416  0
C  C135  1  0.90007821  0.14241735  0.25018439  1  0.502746  0  0.121744  0.16888  0  3.986158  0
C  C136  1  0.98700630  0.71997858  0.22631011  1  0.417656  0  0.117427  0.161613  0  3.979932  0
C  C137  1  0.01298136  0.78002566  0.72630349  1  0.417805  0  0.117286  0.161117  0  3.97999  0
C  C138  1  0.01296641  0.28000636  0.77369643  1  0.417517  0  0.117409  0.161564  0  3.98038  0
C  C139  1  0.98701333  0.21998588  0.27369900  1  0.417521  0  0.117243  0.161422  0  3.979856  0
C  C140  1  0.06583506  0.73295210  0.15398189  1  0.059857  0  -0.073218  -0.135902  0  3.89135  0
C  C141  1  0.93414483  0.76704859  0.65398103  1  0.059839  0  -0.073001  -0.135698  0  3.891345  0
C  C142  1  0.93414030  0.26702569  0.84601539  1  0.06135  0  -0.073042  -0.135808  0  3.891693  0
C  C143  1  0.06584787  0.23296654  0.34601683  1  0.060849  0  -0.072982  -0.135741  0  3.891619  0
C  C144  1  0.14527508  0.80754367  0.13621497  1  -0.025182  0  -0.055549  0.001051  0  3.913849  0
C  C145  1  0.85472360  0.69246118  0.63621376  1  -0.024892  0  -0.055599  0.001103  0  3.913777  0
C  C146  1  0.85469039  0.19243775  0.86377767  1  -0.024778  0  -0.055357  0.001497  0  3.912958  0
C  C147  1  0.14529261  0.30755259  0.36378352  1  -0.025036  0  -0.055427  0.001412  0  3.913293  0
C  C148  1  0.14326399  0.86762256  0.19154135  1  -0.07741  0  -0.08181  -0.133641  0  3.978833  0
C  C149  1  0.85675796  0.63238646  0.69154006  1  -0.077264  0  -0.081841  -0.13372  0  3.979326  0
C  C150  1  0.85672565  0.13235394  0.80845072  1  -0.078781  0  -0.082077  -0.134236  0  3.978356  0
C  C151  1  0.14324427  0.36763751  0.30845548  1  -0.078013  0  -0.082002  -0.133901  0  3.978184  0
C  C152  1  0.06167075  0.85088915  0.26252270  1  0.506547  0  0.045893  0.09743  0  3.965123  0
C  C153  1  0.93832459  0.64911595  0.76252051  1  0.506874  0  0.045886  0.097489  0  3.965325  0
C  C154  1  0.93830384  0.14909161  0.73746299  1  0.507465  0  0.04592  0.097713  0  3.964348  0
C  C155  1  0.06167821  0.35090386  0.23746460  1  0.507251  0  0.045842  0.097369  0  3.964897  0
S  S156  1  0.55539146  0.78971046  0.28606841  1  0.071972  0  0.026107  0.040639  0  2.873594  0
S  S157  1  0.44460777  0.71028373  0.78605984  1  0.072166  0  0.026135  0.040611  0  2.873708  0
S  S158  1  0.44460105  0.21029634  0.71393871  1  0.072078  0  0.026123  0.040641  0  2.873923  0
S  S159  1  0.55538248  0.28971060  0.21393049  1  0.071357  0  0.026077  0.040549  0  2.873802  0
S  S160  1  0.26678842  0.49175364  0.08912574  1  0.070977  0  0.017153  0.02779  0  2.807293  0
S  S161  1  0.73321585  0.00824699  0.58912951  1  0.070885  0  0.017148  0.027819  0  2.807312  0
S  S162  1  0.73322716  0.50824944  0.91087327  1  0.070882  0  0.017041  0.027603  0  2.807231  0
S  S163  1  0.26679358  0.99175851  0.41087182  1  0.070373  0  0.017084  0.027677  0  2.807112  0
N  N164  1  0.84049728  0.63772806  0.32350560  1  -1.253081  0  -0.324051  -0.276193  0  3.540953  0
N  N165  1  0.15950689  0.86227353  0.82349496  1  -1.252792  0  -0.323939  -0.276015  0  3.540967  0
N  N166  1  0.15947750  0.36226102  0.67651137  1  -1.253503  0  -0.324009  -0.275889  0  3.540991  0
N  N167  1  0.84049299  0.13773024  0.17651274  1  -1.252096  0  -0.32395  -0.275873  0  3.540984  0
N  N168  1  0.98594517  0.77895290  0.27941391  1  -1.266775  0  -0.32777  -0.286232  0  3.585127  0
N  N169  1  0.01404958  0.72105386  0.77941588  1  -1.267046  0  -0.327725  -0.286086  0  3.584954  0
N  N170  1  0.01404124  0.22104205  0.72058684  1  -1.266555  0  -0.327723  -0.286105  0  3.584632  0
N  N171  1  0.98595095  0.27895348  0.22058776  1  -1.266438  0  -0.3277  -0.285966  0  3.58458  0
O  O172  1  0.63166614  0.70985006  0.44688478  1  -1.181586  0  -0.325027  -0.549266  0  2.337119  0
O  O173  1  0.36833605  0.79015239  0.94688097  1  -1.181327  0  -0.324966  -0.549259  0  2.337055  0
O  O174  1  0.36830319  0.29015987  0.55311539  1  -1.180837  0  -0.325034  -0.549245  0  2.337055  0
O  O175  1  0.63165310  0.20984314  0.05311225  1  -1.181255  0  -0.324916  -0.549135  0  2.337042  0
O  O176  1  0.34563042  0.69867909  0.47950236  1  -1.1805  0  -0.329449  -0.549509  0  2.122487  0
O  O177  1  0.65437292  0.80131062  0.97949928  1  -1.180756  0  -0.3294  -0.549527  0  2.122554  0
O  O178  1  0.65435467  0.30131588  0.52050186  1  -1.180707  0  -0.329453  -0.549424  0  2.122276  0
O  O179  1  0.34562903  0.19869730  0.02049742  1  -1.181046  0  -0.3295  -0.549542  0  2.123047  0
O  O180  1  0.03382223  0.61282311  0.01650507  1  -1.197675  0  -0.310381  -0.55315  0  2.2461  0
O  O181  1  0.96622681  0.88719242  0.51650337  1  -1.198077  0  -0.310375  -0.55318  0  2.246712  0
O  O182  1  0.96619874  0.38718052  0.98349626  1  -1.197839  0  -0.310363  -0.553196  0  2.246666  0
O  O183  1  0.03381501  0.11281701  0.48349506  1  -1.197761  0  -0.31048  -0.553278  0  2.246287  0
O  O184  1  0.20088097  0.63059627  0.90851739  1  -1.195183  0  -0.324192  -0.561496  0  2.324419  0
O  O185  1  0.79914030  0.86940039  0.40852940  1  -1.195056  0  -0.324123  -0.56141  0  2.324373  0
O  O186  1  0.79913147  0.36939672  0.09147525  1  -1.19537  0  -0.324132  -0.561448  0  2.324694  0
O  O187  1  0.20087969  0.13059790  0.59147425  1  -1.195412  0  -0.32414  -0.561419  0  2.324817  0
O  O188  1  0.02568942  0.74309612  0.46858193  1  -1.306198  0  -0.588183  -0.746412  0  2.173378  0
O  O189  1  0.97432679  0.75690785  0.96857556  1  -1.306569  0  -0.588123  -0.746214  0  2.173539  0
O  O190  1  0.97430223  0.25690593  0.53141419  1  -1.306314  0  -0.588115  -0.746321  0  2.173348  0
O  O191  1  0.02566642  0.24308825  0.03142056  1  -1.30664  0  -0.588147  -0.746293  0  2.173431  0
