# generated using pymatgen
data_CuH18C20(I2O3)4
_symmetry_space_group_name_H-M   'P 1'
_cell_length_a   9.58888306
_cell_length_b   10.49275025
_cell_length_c   10.49642479
_cell_angle_alpha   103.85491738
_cell_angle_beta   96.87817216
_cell_angle_gamma   113.43932974
_symmetry_Int_Tables_number   1
_chemical_formula_structural   CuH18C20(I2O3)4
_chemical_formula_sum   'Cu1 H18 C20 I8 O12'
_cell_volume   912.93179739
_cell_formula_units_Z   1
loop_
 _symmetry_equiv_pos_site_id
 _symmetry_equiv_pos_as_xyz
  1  'x, y, z'
loop_
 _atom_site_type_symbol
 _atom_site_label
 _atom_site_symmetry_multiplicity
 _atom_site_fract_x
 _atom_site_fract_y
 _atom_site_fract_z
 _atom_site_occupancy
 _atom_site_hle17_bader_spin_density
 _atom_site_hle17_ddec_charge
 _atom_site_hle17_ddec_spin_density
 _atom_site_hle17_ddec_sum_bond_order
 _atom_site_hle17_magmom
 _atom_site_hse06_10hf_bader_spin_density
 _atom_site_hse06_10hf_ddec_charge
 _atom_site_hse06_10hf_ddec_spin_density
 _atom_site_hse06_10hf_ddec_sum_bond_order
 _atom_site_hse06_10hf_magmom
 _atom_site_hse06_bader_spin_density
 _atom_site_hse06_ddec_charge
 _atom_site_hse06_ddec_spin_density
 _atom_site_hse06_ddec_sum_bond_order
 _atom_site_hse06_magmom
 _atom_site_pbe_bader_spin_density
 _atom_site_pbe_cm5_charge
 _atom_site_pbe_ddec_charge
 _atom_site_pbe_ddec_spin_density
 _atom_site_pbe_ddec_sum_bond_order
 _atom_site_pbe_magmom
Cu  Cu0  1  0.49999623  0.99999317  0.99999798  1  0  0.944915  0  1.626736  0  0  0.917491  0  1.999413  0  0  0.96123  0  1.942726  0  0  0.685885  0.886823  0  2.039707  0
H  H1  1  0.48674678  0.98445610  0.34320007  1  0  0.046093  0  1.003699  0  0  0.055859  0  1.08656  0  0  0.057339  0  1.085619  0  0  0.067409  0.054639  0  1.087331  0
H  H2  1  0.51325058  0.01551809  0.65680204  1  0  0.046119  0  1.003669  0  0  0.055856  0  1.08654  0  0  0.057328  0  1.085605  0  0  0.067398  0.054637  0  1.087314  0
H  H3  1  0.68904825  0.07313392  0.43406640  1  0  0.061589  0  0.951565  0  0  0.078754  0  1.016223  0  0  0.079032  0  1.016492  0  0  0.079491  0.078131  0  1.016683  0
H  H4  1  0.31095678  0.92686512  0.56593620  1  0  0.061643  0  0.951581  0  0  0.078785  0  1.016242  0  0  0.079062  0  1.01651  0  0  0.079533  0.078162  0  1.016702  0
H  H5  1  0.61268258  0.90076539  0.30364799  1  0  0.074745  0  0.971654  0  0  0.089208  0  1.0439  0  0  0.089456  0  1.044929  0  0  0.080924  0.089061  0  1.042981  0
H  H6  1  0.38733938  0.09923633  0.69635227  1  0  0.074852  0  0.971521  0  0  0.089286  0  1.043781  0  0  0.089533  0  1.04481  0  0  0.08099  0.08914  0  1.042862  0
H  H7  1  0.17542697  0.00144930  0.94082439  1  0  0.084168  0  0.960922  0  0  0.096801  0  1.035526  0  0  0.09718  0  1.035766  0  0  0.087106  0.096242  0  1.035663  0
H  H8  1  0.82456156  0.99854321  0.05919405  1  0  0.084105  0  0.960983  0  0  0.096768  0  1.035572  0  0  0.097143  0  1.035822  0  0  0.087125  0.096212  0  1.03571  0
H  H9  1  0.28823550  0.17573113  0.92104292  1  0  0.093013  0  0.965355  0  0  0.10897  0  1.030838  0  0  0.110162  0  1.030287  0  0  0.089244  0.108126  0  1.031317  0
H  H10  1  0.71173165  0.82425578  0.07895672  1  0  0.093077  0  0.96536  0  0  0.108953  0  1.030938  0  0  0.110149  0  1.030385  0  0  0.08921  0.108111  0  1.031416  0
H  H11  1  0.19738985  0.16581386  0.06109478  1  0  0.059129  0  0.989129  0  0  0.070676  0  1.07085  0  0  0.070827  0  1.071049  0  0  0.074459  0.070141  0  1.071116  0
H  H12  1  0.80260159  0.83417328  0.93891901  1  0  0.059194  0  0.98906  0  0  0.070735  0  1.070769  0  0  0.070887  0  1.070966  0  0  0.074505  0.070206  0  1.071031  0
H  H13  1  0.66277198  0.17413269  0.26335308  1  0  0.356166  0  0.88255  0  0  0.341533  0  0.941832  0  0  0.349907  0  0.93217  0  0  0.300663  0.335619  0  0.948693  0
H  H14  1  0.33720103  0.82585558  0.73664940  1  0  0.356216  0  0.882467  0  0  0.341568  0  0.941785  0  0  0.349942  0  0.932119  0  0  0.300624  0.33565  0  0.948649  0
H  H15  1  0.47443915  0.22127375  0.11650774  1  0  0.368906  0  0.890176  0  0  0.349478  0  0.953703  0  0  0.359517  0  0.943088  0  0  0.302775  0.34233  0  0.961275  0
H  H16  1  0.52555374  0.77872882  0.88348477  1  0  0.368857  0  0.890228  0  0  0.349452  0  0.953734  0  0  0.359494  0  0.943111  0  0  0.302757  0.342302  0  0.961303  0
H  H17  1  0.21548008  0.49812222  0.72183058  1  0  0.404802  0  0.874983  0  0  0.374164  0  0.952283  0  0  0.386632  0  0.939144  0  0  0.296412  0.36559  0  0.961133  0
H  H18  1  0.78452425  0.50188490  0.27815749  1  0  0.404687  0  0.875118  0  0  0.374017  0  0.952447  0  0  0.386487  0  0.939313  0  0  0.296365  0.365445  0  0.961296  0
C  C19  1  0.73477359  0.30396737  0.07475827  1  0  0.649491  0  3.907564  0  0  0.599295  0  4.210005  0  0  0.634185  0  4.201587  0  0  0.208331  0.575148  0  4.215946  0
C  C20  1  0.26522630  0.69604639  0.92524314  1  0  0.649497  0  3.907819  0  0  0.599452  0  4.210073  0  0  0.634331  0  4.201641  0  0  0.208411  0.575301  0  4.216009  0
C  C21  1  0.87320243  0.41206065  0.04160952  1  0  -0.079839  0  3.735836  0  0  -0.080021  0  3.989697  0  0  -0.083896  0  4.009169  0  0  -0.0298  -0.076303  0  3.976075  0
C  C22  1  0.12677693  0.58794463  0.95838305  1  0  -0.080032  0  3.735855  0  0  -0.080286  0  3.98977  0  0  -0.08412  0  4.009185  0  0  -0.029753  -0.076559  0  3.976132  0
C  C23  1  0.02554275  0.43743724  0.09955028  1  0  -0.023547  0  3.668452  0  0  -0.009434  0  3.937433  0  0  -0.006987  0  3.958993  0  0  -0.060553  -0.011055  0  3.923206  0
C  C24  1  0.97443083  0.56256923  0.90045335  1  0  -0.023332  0  3.668771  0  0  -0.009159  0  3.937619  0  0  -0.006718  0  3.959153  0  0  -0.060514  -0.010781  0  3.923387  0
C  C25  1  0.15330283  0.52479900  0.05751825  1  0  -0.03372  0  3.663462  0  0  -0.025953  0  3.936814  0  0  -0.024161  0  3.95872  0  0  -0.066724  -0.02863  0  3.923342  0
C  C26  1  0.84670252  0.47520567  0.94245797  1  0  -0.033898  0  3.66385  0  0  -0.026106  0  3.937084  0  0  -0.024307  0  3.959013  0  0  -0.066788  -0.028781  0  3.923614  0
C  C27  1  0.60677847  0.00553781  0.33491774  1  0  -0.021372  0  3.681828  0  0  -0.106162  0  3.944388  0  0  -0.100892  0  3.948858  0  0  -0.167472  -0.109416  0  3.941304  0
C  C28  1  0.39322565  0.99445676  0.66507902  1  0  -0.021499  0  3.681556  0  0  -0.106222  0  3.944136  0  0  -0.100942  0  3.948611  0  0  -0.167545  -0.10948  0  3.941059  0
C  C29  1  0.25488910  0.11674876  0.99412524  1  0  -0.036325  0  3.618041  0  0  -0.128447  0  3.880634  0  0  -0.121966  0  3.885333  0  0  -0.167177  -0.132612  0  3.87799  0
C  C30  1  0.74510279  0.88323939  0.00588595  1  0  -0.036341  0  3.617876  0  0  -0.128441  0  3.8805  0  0  -0.121955  0  3.885179  0  0  -0.167186  -0.132611  0  3.877854  0
C  C31  1  0.17886487  0.29690662  0.68472381  1  0  0.643653  0  3.884303  0  0  0.592047  0  4.192557  0  0  0.624295  0  4.183636  0  0  0.213279  0.569956  0  4.19837  0
C  C32  1  0.82117187  0.70311208  0.31529128  1  0  0.642975  0  3.884423  0  0  0.591458  0  4.192549  0  0  0.623725  0  4.183613  0  0  0.213057  0.569365  0  4.198366  0
C  C33  1  0.08320169  0.14429158  0.58683506  1  0  -0.077377  0  3.73793  0  0  -0.068334  0  3.978342  0  0  -0.072002  0  3.998226  0  0  -0.022562  -0.06654  0  3.965774  0
C  C34  1  0.91682640  0.85570968  0.41317816  1  0  -0.076972  0  3.737924  0  0  -0.067945  0  3.978308  0  0  -0.071624  0  3.998198  0  0  -0.022513  -0.066153  0  3.965745  0
C  C35  1  0.13838646  0.09529043  0.47632142  1  0  -0.011882  0  3.643058  0  0  0.00021  0  3.905608  0  0  0.002618  0  3.927603  0  0  -0.051571  -0.001196  0  3.890849  0
C  C36  1  0.86163236  0.90472095  0.52368441  1  0  -0.011921  0  3.643178  0  0  0.000172  0  3.905682  0  0  0.00258  0  3.927682  0  0  -0.051475  -0.001233  0  3.890926  0
C  C37  1  0.05523257  0.95083814  0.38869534  1  0  -0.033981  0  3.663511  0  0  -0.021393  0  3.925563  0  0  -0.019078  0  3.946961  0  0  -0.057864  -0.023515  0  3.911764  0
C  C38  1  0.94479728  0.04916234  0.61132553  1  0  -0.034026  0  3.66378  0  0  -0.021371  0  3.925707  0  0  -0.019056  0  3.947102  0  0  -0.057952  -0.023493  0  3.911907  0
I  I39  1  0.05832965  0.34509262  0.25097684  1  0  0.051883  0  1.438791  0  0  0.030216  0  1.741864  0  0  0.029976  0  1.729664  0  0  0.114385  0.031905  0  1.749381  0
I  I40  1  0.94165486  0.65490280  0.74900081  1  0  0.05175  0  1.43866  0  0  0.030075  0  1.741654  0  0  0.029837  0  1.729456  0  0  0.114305  0.031763  0  1.749159  0
I  I41  1  0.38430489  0.56585222  0.13545738  1  0  0.097958  0  1.570127  0  0  0.061026  0  1.918451  0  0  0.060251  0  1.906794  0  0  0.132974  0.062283  0  1.927884  0
I  I42  1  0.61568073  0.43413369  0.86452215  1  0  0.097917  0  1.569935  0  0  0.060984  0  1.918194  0  0  0.060205  0  1.906534  0  0  0.132959  0.06224  0  1.927622  0
I  I43  1  0.35121974  0.24209164  0.44941707  1  0  0.050767  0  1.395903  0  0  0.036792  0  1.690402  0  0  0.036311  0  1.678601  0  0  0.121354  0.036829  0  1.698213  0
I  I44  1  0.64879896  0.75791223  0.55058807  1  0  0.050747  0  1.395955  0  0  0.036768  0  1.690465  0  0  0.03628  0  1.678665  0  0  0.121325  0.036813  0  1.698278  0
I  I45  1  0.13462609  0.87405133  0.22259645  1  0  0.113008  0  1.524884  0  0  0.093316  0  1.848137  0  0  0.09158  0  1.840166  0  0  0.154174  0.095779  0  1.854637  0
I  I46  1  0.86539700  0.12595055  0.77740779  1  0  0.11305  0  1.524832  0  0  0.093317  0  1.848112  0  0  0.09158  0  1.84013  0  0  0.154173  0.095782  0  1.854612  0
O  O47  1  0.67976440  0.17473125  0.99224932  1  0  -0.557434  0  2.110217  0  0  -0.507308  0  2.383804  0  0  -0.535888  0  2.372224  0  0  -0.296426  -0.488593  0  2.392398  0
O  O48  1  0.32023842  0.82527720  0.00774936  1  0  -0.557437  0  2.110734  0  0  -0.507305  0  2.384185  0  0  -0.535914  0  2.372683  0  0  -0.29644  -0.488607  0  2.392814  0
O  O49  1  0.68222141  0.34235281  0.17538508  1  0  -0.613349  0  2.034595  0  0  -0.553202  0  2.247018  0  0  -0.577534  0  2.235623  0  0  -0.294482  -0.536392  0  2.254367  0
O  O50  1  0.31775973  0.65764932  0.82460700  1  0  -0.613293  0  2.034773  0  0  -0.553251  0  2.247169  0  0  -0.577583  0  2.235779  0  0  -0.294534  -0.53643  0  2.254512  0
O  O51  1  0.64957841  0.07365076  0.23301626  1  0  -0.536974  0  2.170287  0  0  -0.485805  0  2.410971  0  0  -0.5015  0  2.398742  0  0  -0.422646  -0.474684  0  2.419278  0
O  O52  1  0.35041167  0.92634775  0.76698650  1  0  -0.537085  0  2.170037  0  0  -0.485887  0  2.410643  0  0  -0.501578  0  2.398415  0  0  -0.422629  -0.474766  0  2.418965  0
O  O53  1  0.38961787  0.12022899  0.07655925  1  0  -0.522168  0  2.289141  0  0  -0.460526  0  2.553922  0  0  -0.48188  0  2.54105  0  0  -0.408344  -0.445937  0  2.562665  0
O  O54  1  0.61038263  0.87977411  0.92344182  1  0  -0.522119  0  2.289033  0  0  -0.460499  0  2.553817  0  0  -0.48185  0  2.540939  0  0  -0.40832  -0.445928  0  2.562609  0
O  O55  1  0.14588125  0.39739872  0.65099388  1  0  -0.546685  0  2.102674  0  0  -0.503511  0  2.322603  0  0  -0.525722  0  2.308834  0  0  -0.336821  -0.488133  0  2.331395  0
O  O56  1  0.85412978  0.60260445  0.34899693  1  0  -0.546318  0  2.102975  0  0  -0.503167  0  2.322969  0  0  -0.525352  0  2.309133  0  0  -0.336682  -0.487784  0  2.331757  0
O  O57  1  0.27778641  0.32027882  0.78455728  1  0  -0.533124  0  2.023237  0  0  -0.486959  0  2.263083  0  0  -0.508356  0  2.256103  0  0  -0.283458  -0.47215  0  2.267627  0
O  O58  1  0.72220472  0.67973898  0.21544691  1  0  -0.532922  0  2.022481  0  0  -0.486785  0  2.262269  0  0  -0.508199  0  2.255288  0  0  -0.283369  -0.471968  0  2.266812  0
