# generated using pymatgen
data_FeH10C14(SN2)2
_symmetry_space_group_name_H-M   'P 1'
_cell_length_a   9.10037067
_cell_length_b   9.43472178
_cell_length_c   10.10643948
_cell_angle_alpha   115.11763612
_cell_angle_beta   109.49860415
_cell_angle_gamma   93.44670454
_symmetry_Int_Tables_number   1
_chemical_formula_structural   FeH10C14(SN2)2
_chemical_formula_sum   'Fe2 H20 C28 S4 N8'
_cell_volume   719.62059353
_cell_formula_units_Z   2
loop_
 _symmetry_equiv_pos_site_id
 _symmetry_equiv_pos_as_xyz
  1  'x, y, z'
loop_
 _atom_site_type_symbol
 _atom_site_label
 _atom_site_symmetry_multiplicity
 _atom_site_fract_x
 _atom_site_fract_y
 _atom_site_fract_z
 _atom_site_occupancy
 _atom_site_hle17_bader_spin_density
 _atom_site_hle17_ddec_charge
 _atom_site_hle17_ddec_spin_density
 _atom_site_hle17_ddec_sum_bond_order
 _atom_site_hle17_magmom
 _atom_site_hse06_10hf_bader_spin_density
 _atom_site_hse06_10hf_ddec_charge
 _atom_site_hse06_10hf_ddec_spin_density
 _atom_site_hse06_10hf_ddec_sum_bond_order
 _atom_site_hse06_10hf_magmom
 _atom_site_hse06_bader_spin_density
 _atom_site_hse06_ddec_charge
 _atom_site_hse06_ddec_spin_density
 _atom_site_hse06_ddec_sum_bond_order
 _atom_site_hse06_magmom
 _atom_site_pbe_bader_spin_density
 _atom_site_pbe_cm5_charge
 _atom_site_pbe_ddec_charge
 _atom_site_pbe_ddec_spin_density
 _atom_site_pbe_ddec_sum_bond_order
 _atom_site_pbe_magmom
Fe  Fe0  1  0.99064884  0.49213169  0.00323559  1  0  0.452314  0  3.20033  0  0  0.445829  0  3.685054  0  0  0.507066  0  3.616354  0  0  0.648842  0.417732  0  3.718092  0
Fe  Fe1  1  0.49200069  0.99237449  0.50214296  1  0  0.457124  0  3.190242  0  0  0.448189  0  3.673589  0  0  0.508477  0  3.606044  0  0  0.656151  0.422919  0  3.704327  0
H  H2  1  0.34197040  0.51171713  0.15459793  1  0  0.090218  0  0.951035  0  0  0.098254  0  1.012237  0  0  0.09999  0  1.010603  0  0  0.118618  0.096771  0  1.013745  0
H  H3  1  0.64637250  0.48673805  0.84594121  1  0  0.089365  0  0.950185  0  0  0.09822  0  1.010144  0  0  0.100243  0  1.007833  0  0  0.118401  0.096627  0  1.011998  0
H  H4  1  0.52273246  0.32692767  0.14518931  1  0  0.107721  0  0.957915  0  0  0.11662  0  1.020815  0  0  0.120195  0  1.020096  0  0  0.104552  0.11417  0  1.021418  0
H  H5  1  0.47532828  0.67942590  0.85099428  1  0  0.104612  0  0.96912  0  0  0.113413  0  1.032094  0  0  0.116987  0  1.031396  0  0  0.101444  0.111003  0  1.032532  0
H  H6  1  0.11023876  0.93593288  0.78568575  1  0  0.105183  0  0.969046  0  0  0.112211  0  1.036138  0  0  0.115081  0  1.036266  0  0  0.101286  0.110356  0  1.035876  0
H  H7  1  0.89593424  0.06041024  0.21112326  1  0  0.105611  0  0.970502  0  0  0.112477  0  1.037535  0  0  0.115424  0  1.037461  0  0  0.101035  0.110679  0  1.037254  0
H  H8  1  0.94529607  0.13784875  0.80976796  1  0  0.088577  0  0.955093  0  0  0.096172  0  1.017598  0  0  0.097959  0  1.015582  0  0  0.117102  0.09476  0  1.019267  0
H  H9  1  0.05111146  0.85098556  0.19037377  1  0  0.088463  0  0.958065  0  0  0.096296  0  1.020412  0  0  0.097786  0  1.019047  0  0  0.117693  0.09503  0  1.021681  0
H  H10  1  0.35768901  0.86793353  0.85965166  1  0  0.084358  0  0.985098  0  0  0.094549  0  1.051857  0  0  0.097824  0  1.051019  0  0  0.09216  0.092231  0  1.052481  0
H  H11  1  0.64968110  0.13687704  0.13672191  1  0  0.088458  0  0.972756  0  0  0.099401  0  1.038585  0  0  0.102684  0  1.037659  0  0  0.09395  0.097349  0  1.038655  0
H  H12  1  0.64846226  0.87266287  0.72926586  1  0  0.079597  0  0.968903  0  0  0.087782  0  1.03413  0  0  0.089789  0  1.031478  0  0  0.112264  0.086079  0  1.03693  0
H  H13  1  0.35034355  0.12084394  0.27573409  1  0  0.083684  0  0.963589  0  0  0.090347  0  1.029813  0  0  0.092051  0  1.02808  0  0  0.113093  0.088724  0  1.032039  0
H  H14  1  0.83733465  0.69799546  0.75584109  1  0  0.112221  0  0.964441  0  0  0.11898  0  1.029312  0  0  0.121484  0  1.030199  0  0  0.104438  0.116866  0  1.029663  0
H  H15  1  0.16843603  0.30157110  0.24854302  1  0  0.110488  0  0.967458  0  0  0.118041  0  1.031304  0  0  0.120403  0  1.032145  0  0  0.10417  0.115983  0  1.031791  0
H  H16  1  0.85811645  0.63892289  0.31409383  1  0  0.113041  0  0.972219  0  0  0.122361  0  1.034027  0  0  0.125519  0  1.033046  0  0  0.1033  0.119569  0  1.035979  0
H  H17  1  0.14049118  0.36588108  0.68925001  1  0  0.112368  0  0.971481  0  0  0.120761  0  1.03439  0  0  0.123781  0  1.03389  0  0  0.101936  0.118131  0  1.035886  0
H  H18  1  0.67244649  0.81783692  0.30783260  1  0  0.085176  0  0.956474  0  0  0.090876  0  1.023705  0  0  0.092765  0  1.022044  0  0  0.11322  0.088814  0  1.02638  0
H  H19  1  0.31902569  0.18133747  0.69597392  1  0  0.08012  0  0.960424  0  0  0.086905  0  1.027279  0  0  0.088742  0  1.025309  0  0  0.11115  0.08499  0  1.030122  0
H  H20  1  0.99744340  0.53351552  0.66195365  1  0  0.094524  0  0.990412  0  0  0.108736  0  1.049198  0  0  0.111644  0  1.047226  0  0  0.095084  0.106739  0  1.050272  0
H  H21  1  0.00448223  0.46746800  0.33910443  1  0  0.091288  0  0.996085  0  0  0.105663  0  1.05604  0  0  0.10862  0  1.054  0  0  0.094574  0.103544  0  1.05754  0
C  C22  1  0.29505942  0.38302974  0.07459427  1  0  0.109275  0  3.687923  0  0  0.0803  0  3.941004  0  0  0.090484  0  3.956231  0  0  0.039893  0.073072  0  3.933488  0
C  C23  1  0.69711824  0.61507873  0.92530648  1  0  0.111462  0  3.685174  0  0  0.083679  0  3.934843  0  0  0.094743  0  3.949285  0  0  0.039501  0.075828  0  3.927875  0
C  C24  1  0.39546710  0.27784665  0.06858669  1  0  -0.158754  0  3.691888  0  0  -0.173143  0  3.932627  0  0  -0.180595  0  3.949412  0  0  -0.083162  -0.169444  0  3.923847  0
C  C25  1  0.60247351  0.72492464  0.92836472  1  0  -0.159103  0  3.697944  0  0  -0.17415  0  3.938963  0  0  -0.182165  0  3.956358  0  0  -0.083396  -0.169871  0  3.929517  0
C  C26  1  0.33232155  0.11123740  0.96480690  1  0  0.131627  0  3.798627  0  0  0.146477  0  4.028919  0  0  0.155105  0  4.046009  0  0  0.001374  0.140418  0  4.019395  0
C  C27  1  0.67046616  0.89097193  0.03183993  1  0  0.132889  0  3.793583  0  0  0.147822  0  4.023571  0  0  0.156411  0  4.040766  0  0  0.001899  0.141857  0  4.01383  0
C  C28  1  0.16667692  0.06265750  0.86943963  1  0  -0.160861  0  3.706974  0  0  -0.177585  0  3.952219  0  0  -0.184913  0  3.968716  0  0  -0.083707  -0.17337  0  3.943038  0
C  C29  1  0.83565205  0.93441326  0.12782414  1  0  -0.163301  0  3.702711  0  0  -0.179439  0  3.947582  0  0  -0.186449  0  3.963958  0  0  -0.085371  -0.175533  0  3.938391  0
C  C30  1  0.07342825  0.17459135  0.88243145  1  0  0.115515  0  3.679123  0  0  0.088633  0  3.926604  0  0  0.100358  0  3.940358  0  0  0.04094  0.079919  0  3.920306  0
C  C31  1  0.92327708  0.81789634  0.11750513  1  0  0.115454  0  3.678278  0  0  0.086372  0  3.929427  0  0  0.097284  0  3.944474  0  0  0.040199  0.078297  0  3.922413  0
C  C32  1  0.42508559  0.98999051  0.95162343  1  0  -0.096082  0  3.722344  0  0  -0.116202  0  3.972377  0  0  -0.116442  0  3.986476  0  0  -0.086918  -0.11786  0  3.966197  0
C  C33  1  0.58140820  0.01521858  0.04397947  1  0  -0.094632  0  3.705578  0  0  -0.114093  0  3.954747  0  0  -0.114482  0  3.968324  0  0  -0.086811  -0.115508  0  3.94845  0
C  C34  1  0.69793703  0.81864398  0.64016623  1  0  0.109472  0  3.700169  0  0  0.081552  0  3.94855  0  0  0.093575  0  3.96207  0  0  0.035242  0.072634  0  3.942278  0
C  C35  1  0.30059993  0.17719412  0.36414979  1  0  0.114631  0  3.695959  0  0  0.085186  0  3.947673  0  0  0.096534  0  3.962092  0  0  0.038042  0.077249  0  3.939989  0
C  C36  1  0.80301708  0.72071660  0.65385608  1  0  -0.162145  0  3.700333  0  0  -0.177691  0  3.9433  0  0  -0.185735  0  3.960343  0  0  -0.084437  -0.172548  0  3.933029  0
C  C37  1  0.19953720  0.27872273  0.35033402  1  0  -0.16451  0  3.699198  0  0  -0.178074  0  3.939995  0  0  -0.18571  0  3.957006  0  0  -0.085517  -0.173405  0  3.929918  0
C  C38  1  0.86412375  0.64918381  0.53630283  1  0  0.134019  0  3.806392  0  0  0.149623  0  4.036197  0  0  0.158647  0  4.052468  0  0  0.001598  0.143382  0  4.025815  0
C  C39  1  0.13743881  0.35255430  0.46669537  1  0  0.130822  0  3.804513  0  0  0.145697  0  4.035313  0  0  0.154366  0  4.051951  0  0  0.000212  0.139864  0  4.024746  0
C  C40  1  0.81539182  0.68674458  0.40943212  1  0  -0.163311  0  3.684256  0  0  -0.177547  0  3.922158  0  0  -0.184513  0  3.938716  0  0  -0.087179  -0.173459  0  3.912492  0
C  C41  1  0.18307796  0.31570690  0.59402725  1  0  -0.156119  0  3.685299  0  0  -0.171595  0  3.924595  0  0  -0.178933  0  3.941946  0  0  -0.085055  -0.16736  0  3.914407  0
C  C42  1  0.71086318  0.78686867  0.40427109  1  0  0.117219  0  3.675388  0  0  0.088277  0  3.926918  0  0  0.098991  0  3.941409  0  0  0.039468  0.081189  0  3.918908  0
C  C43  1  0.28353791  0.21200525  0.59924602  1  0  0.112903  0  3.688494  0  0  0.086034  0  3.937037  0  0  0.096918  0  3.951457  0  0  0.038345  0.078648  0  3.929397  0
C  C44  1  0.97036661  0.54413738  0.55356071  1  0  -0.102848  0  3.727655  0  0  -0.124873  0  3.978696  0  0  -0.124729  0  3.992308  0  0  -0.089063  -0.125982  0  3.970914  0
C  C45  1  0.03266114  0.45865163  0.44844485  1  0  -0.10309  0  3.724327  0  0  -0.124472  0  3.974873  0  0  -0.124344  0  3.98846  0  0  -0.089571  -0.126177  0  3.967533  0
C  C46  1  0.19605382  0.70328705  0.35508815  1  0  0.262336  0  3.875141  0  0  0.263707  0  4.182265  0  0  0.296959  0  4.19387  0  0  0.15884  0.240793  0  4.174872  0
C  C47  1  0.80868263  0.30141578  0.64197244  1  0  0.270777  0  3.966654  0  0  0.263264  0  4.273689  0  0  0.290739  0  4.290842  0  0  0.154855  0.245013  0  4.260237  0
C  C48  1  0.68279723  0.21219347  0.85483254  1  0  0.249561  0  3.876322  0  0  0.25099  0  4.184431  0  0  0.282613  0  4.196554  0  0  0.154889  0.230195  0  4.175423  0
C  C49  1  0.32252420  0.79124961  0.14105380  1  0  0.257485  0  3.968729  0  0  0.249626  0  4.275972  0  0  0.275775  0  4.293286  0  0  0.151981  0.233376  0  4.260896  0
S  S50  1  0.31599597  0.83585214  0.53699400  1  0  -0.176021  0  2.372884  0  0  -0.211889  0  2.740434  0  0  -0.251686  0  2.736054  0  0  -0.082163  -0.184045  0  2.741818  0
S  S51  1  0.70588353  0.18461151  0.45296457  1  0  -0.25924  0  2.089843  0  0  -0.265897  0  2.405841  0  0  -0.299701  0  2.406417  0  0  -0.096067  -0.239849  0  2.403819  0
S  S52  1  0.81268413  0.33712151  0.03598075  1  0  -0.199089  0  2.429341  0  0  -0.237304  0  2.812545  0  0  -0.27387  0  2.804211  0  0  -0.086253  -0.211303  0  2.815883  0
S  S53  1  0.20729813  0.67983909  0.95375709  1  0  -0.26999  0  2.15244  0  0  -0.277312  0  2.485325  0  0  -0.307  0  2.481434  0  0  -0.089285  -0.253152  0  2.485914  0
N  N54  1  0.13461261  0.33406220  0.98481144  1  0  -0.240352  0  3.349129  0  0  -0.185297  0  3.61807  0  0  -0.209947  0  3.635528  0  0  -0.330427  -0.17166  0  3.607923  0
N  N55  1  0.85659398  0.65858719  0.01790164  1  0  -0.241812  0  3.35109  0  0  -0.18625  0  3.619807  0  0  -0.211504  0  3.637965  0  0  -0.330582  -0.172296  0  3.6093  0
N  N56  1  0.64988937  0.85225406  0.51671805  1  0  -0.23603  0  3.343366  0  0  -0.179943  0  3.609773  0  0  -0.205045  0  3.627559  0  0  -0.33094  -0.16586  0  3.597726  0
N  N57  1  0.34320661  0.14199173  0.48664238  1  0  -0.236652  0  3.343435  0  0  -0.180576  0  3.609002  0  0  -0.205531  0  3.626938  0  0  -0.328533  -0.166688  0  3.597023  0
N  N58  1  0.11137457  0.61082485  0.22137420  1  0  -0.432309  0  3.273871  0  0  -0.413871  0  3.587098  0  0  -0.442446  0  3.586131  0  0  -0.414783  -0.396783  0  3.584466  0
N  N59  1  0.88325346  0.38519678  0.78029847  1  0  -0.465447  0  3.272394  0  0  -0.440087  0  3.5851  0  0  -0.470818  0  3.591439  0  0  -0.421882  -0.420766  0  3.576631  0
N  N60  1  0.59563191  0.12484443  0.72062917  1  0  -0.411391  0  3.264767  0  0  -0.392612  0  3.577356  0  0  -0.419498  0  3.578647  0  0  -0.406686  -0.376651  0  3.572023  0
N  N61  1  0.40094962  0.87034265  0.27917843  1  0  -0.446873  0  3.274657  0  0  -0.419418  0  3.584655  0  0  -0.447965  0  3.591903  0  0  -0.413954  -0.401234  0  3.5739  0
