# generated using pymatgen
data_CaH6C9O7
_symmetry_space_group_name_H-M   'P 1'
_cell_length_a   6.91139773
_cell_length_b   6.97373307
_cell_length_c   10.38482226
_cell_angle_alpha   87.10528952
_cell_angle_beta   83.44197475
_cell_angle_gamma   69.45765313
_symmetry_Int_Tables_number   1
_chemical_formula_structural   CaH6C9O7
_chemical_formula_sum   'Ca2 H12 C18 O14'
_cell_volume   465.60692123
_cell_formula_units_Z   2
loop_
 _symmetry_equiv_pos_site_id
 _symmetry_equiv_pos_as_xyz
  1  'x, y, z'
loop_
 _atom_site_type_symbol
 _atom_site_label
 _atom_site_symmetry_multiplicity
 _atom_site_fract_x
 _atom_site_fract_y
 _atom_site_fract_z
 _atom_site_occupancy
 _atom_site_hle17_bader_spin_density
 _atom_site_hle17_ddec_charge
 _atom_site_hle17_ddec_spin_density
 _atom_site_hle17_ddec_sum_bond_order
 _atom_site_hle17_magmom
 _atom_site_hse06_10hf_bader_spin_density
 _atom_site_hse06_10hf_ddec_charge
 _atom_site_hse06_10hf_ddec_spin_density
 _atom_site_hse06_10hf_ddec_sum_bond_order
 _atom_site_hse06_10hf_magmom
 _atom_site_hse06_bader_spin_density
 _atom_site_hse06_ddec_charge
 _atom_site_hse06_ddec_spin_density
 _atom_site_hse06_ddec_sum_bond_order
 _atom_site_hse06_magmom
 _atom_site_pbe_bader_spin_density
 _atom_site_pbe_cm5_charge
 _atom_site_pbe_ddec_charge
 _atom_site_pbe_ddec_spin_density
 _atom_site_pbe_ddec_sum_bond_order
 _atom_site_pbe_magmom
Ca  Ca0  1  0.24988368  0.26236463  0.04532465  1  0  1.54371  0  1.076699  0  0  1.408557  0  1.421884  0  0  1.454715  0  1.375479  0  0  0.887353  1.3732  0  1.456019  0
Ca  Ca1  1  0.75011483  0.73763729  0.95467542  1  0  1.543705  0  1.076701  0  0  1.408547  0  1.421889  0  0  1.454708  0  1.375482  0  0  0.887343  1.37319  0  1.456022  0
H  H2  1  0.59284299  0.75380124  0.69517281  1  0  0.404762  0  0.892505  0  0  0.374916  0  0.965915  0  0  0.387398  0  0.95229  0  0  0.306704  0.366167  0  0.974625  0
H  H3  1  0.40715751  0.24619915  0.30482619  1  0  0.404747  0  0.892512  0  0  0.374908  0  0.965913  0  0  0.38739  0  0.952296  0  0  0.306697  0.36616  0  0.974622  0
H  H4  1  0.57176551  0.38481187  0.16944469  1  0  0.439573  0  0.862708  0  0  0.405241  0  0.930857  0  0  0.417014  0  0.913932  0  0  0.305356  0.396919  0  0.942802  0
H  H5  1  0.42823353  0.61518852  0.83055346  1  0  0.439551  0  0.862753  0  0  0.405239  0  0.930867  0  0  0.417012  0  0.913942  0  0  0.305363  0.396916  0  0.942812  0
H  H6  1  0.65625277  0.13389911  0.16289285  1  0  0.453481  0  0.83903  0  0  0.419489  0  0.905972  0  0  0.431496  0  0.888491  0  0  0.312872  0.411041  0  0.918236  0
H  H7  1  0.34374482  0.86610128  0.83710541  1  0  0.453462  0  0.839056  0  0  0.41947  0  0.905998  0  0  0.431477  0  0.888516  0  0  0.312866  0.411021  0  0.918262  0
H  H8  1  0.78408721  0.78863696  0.37880291  1  0  0.10958  0  0.946253  0  0  0.119163  0  1.008772  0  0  0.122891  0  1.005936  0  0  0.112126  0.116376  0  1.011034  0
H  H9  1  0.21591275  0.21136495  0.62119608  1  0  0.10958  0  0.94626  0  0  0.119162  0  1.00878  0  0  0.122891  0  1.005943  0  0  0.112119  0.116375  0  1.011042  0
H  H10  1  0.27303631  0.70549114  0.62069530  1  0  0.106315  0  0.951401  0  0  0.115113  0  1.014927  0  0  0.119331  0  1.011316  0  0  0.110611  0.112027  0  1.017581  0
H  H11  1  0.72696274  0.29450925  0.37930478  1  0  0.106313  0  0.951398  0  0  0.115105  0  1.014929  0  0  0.119324  0  1.011317  0  0  0.110608  0.112021  0  1.017581  0
H  H12  1  0.51577093  0.70601910  0.42503966  1  0  0.102638  0  0.971808  0  0  0.109612  0  1.039211  0  0  0.113177  0  1.036995  0  0  0.103923  0.106966  0  1.041017  0
H  H13  1  0.48423012  0.29397975  0.57496128  1  0  0.102665  0  0.971818  0  0  0.109647  0  1.039205  0  0  0.113213  0  1.036988  0  0  0.103936  0.107011  0  1.040999  0
C  C14  1  0.87268961  0.74384884  0.63073059  1  0  0.667715  0  3.820361  0  0  0.61536  0  4.120591  0  0  0.648983  0  4.113182  0  0  0.24161  0.592408  0  4.125104  0
C  C15  1  0.12730944  0.25615154  0.36926851  1  0  0.667683  0  3.820331  0  0  0.615347  0  4.120536  0  0  0.648969  0  4.113127  0  0  0.241606  0.592401  0  4.125044  0
C  C16  1  0.01410788  0.74629625  0.51235585  1  0  -0.08576  0  3.787034  0  0  -0.063387  0  4.025114  0  0  -0.073029  0  4.049967  0  0  -0.016414  -0.057071  0  4.008449  0
C  C17  1  0.98589316  0.25370261  0.48764316  1  0  -0.085716  0  3.786991  0  0  -0.063351  0  4.025068  0  0  -0.072994  0  4.049922  0  0  -0.016404  -0.057039  0  4.008402  0
C  C18  1  0.94446317  0.77047973  0.38907511  1  0  -0.061787  0  3.68494  0  0  -0.099563  0  3.938663  0  0  -0.097616  0  3.956865  0  0  -0.070616  -0.100796  0  3.926692  0
C  C19  1  0.05553734  0.22952065  0.61092485  1  0  -0.061851  0  3.684958  0  0  -0.099628  0  3.938684  0  0  -0.097679  0  3.956881  0  0  -0.070626  -0.100861  0  3.92671  0
C  C20  1  0.22062129  0.72325896  0.52440432  1  0  -0.039318  0  3.698683  0  0  -0.067789  0  3.95343  0  0  -0.065743  0  3.971425  0  0  -0.073516  -0.068771  0  3.940993  0
C  C21  1  0.77937867  0.27674295  0.47559562  1  0  -0.039302  0  3.698612  0  0  -0.067765  0  3.953358  0  0  -0.065719  0  3.971352  0  0  -0.073499  -0.068748  0  3.940924  0
C  C22  1  0.28782762  0.74353253  0.29076474  1  0  -0.043732  0  3.692318  0  0  -0.03285  0  3.927951  0  0  -0.034125  0  3.94486  0  0  0.00476  -0.031911  0  3.916553  0
C  C23  1  0.71217235  0.25646938  0.70923617  1  0  -0.043754  0  3.692319  0  0  -0.032878  0  3.927957  0  0  -0.034154  0  3.944868  0  0  0.004748  -0.031942  0  3.916566  0
C  C24  1  0.35603425  0.72228451  0.41427314  1  0  -0.080324  0  3.710757  0  0  -0.104697  0  3.969316  0  0  -0.107427  0  3.98796  0  0  -0.082466  -0.102948  0  3.956745  0
C  C25  1  0.64396426  0.27771740  0.58572788  1  0  -0.080373  0  3.710752  0  0  -0.104752  0  3.969311  0  0  -0.107481  0  3.987954  0  0  -0.082485  -0.10301  0  3.956735  0
C  C26  1  0.08022236  0.76685751  0.27827871  1  0  -0.068434  0  3.716236  0  0  -0.053866  0  3.954624  0  0  -0.059231  0  3.972992  0  0  -0.000252  -0.050478  0  3.942527  0
C  C27  1  0.91977906  0.23314440  0.72172112  1  0  -0.068351  0  3.71615  0  0  -0.053781  0  3.954524  0  0  -0.059146  0  3.972897  0  0  -0.000233  -0.050391  0  3.942425  0
C  C28  1  0.43483487  0.75219467  0.17430816  1  0  0.679104  0  3.891896  0  0  0.625737  0  4.190941  0  0  0.660184  0  4.181419  0  0  0.231704  0.602244  0  4.196471  0
C  C29  1  0.56516510  0.24780725  0.82569179  1  0  0.679135  0  3.891809  0  0  0.625771  0  4.190847  0  0  0.660218  0  4.181324  0  0  0.231726  0.602279  0  4.196376  0
C  C30  1  0.00151030  0.77099231  0.14925278  1  0  0.692939  0  3.889903  0  0  0.639533  0  4.188574  0  0  0.67439  0  4.178993  0  0  0.233296  0.615656  0  4.194441  0
C  C31  1  0.99849021  0.22900807  0.85074622  1  0  0.692924  0  3.889892  0  0  0.639515  0  4.188558  0  0  0.674371  0  4.178978  0  0  0.233297  0.615638  0  4.194423  0
O  O32  1  0.39242352  0.91332387  0.10524929  1  0  -0.702412  0  2.025022  0  0  -0.644514  0  2.2781  0  0  -0.673194  0  2.269147  0  0  -0.357044  -0.623796  0  2.283645  0
O  O33  1  0.60757499  0.08667804  0.89475078  1  0  -0.702424  0  2.024965  0  0  -0.64452  0  2.278034  0  0  -0.673199  0  2.269081  0  0  -0.357056  -0.623801  0  2.283578  0
O  O34  1  0.83392237  0.91173058  0.12436405  1  0  -0.675308  0  2.008044  0  0  -0.614117  0  2.240312  0  0  -0.641283  0  2.229577  0  0  -0.336242  -0.594816  0  2.24732  0
O  O35  1  0.16607813  0.08826981  0.87563494  1  0  -0.675306  0  2.008048  0  0  -0.614116  0  2.240314  0  0  -0.641283  0  2.22958  0  0  -0.336247  -0.594816  0  2.247322  0
O  O36  1  0.09732213  0.62587795  0.07020554  1  0  -0.718835  0  1.947853  0  0  -0.656956  0  2.190692  0  0  -0.685669  0  2.180584  0  0  -0.359792  -0.636273  0  2.19716  0
O  O37  1  0.90268037  0.37412090  0.92979528  1  0  -0.718843  0  1.947853  0  0  -0.656959  0  2.190688  0  0  -0.68567  0  2.18058  0  0  -0.359782  -0.636275  0  2.197153  0
O  O38  1  0.93051454  0.72583429  0.74134187  1  0  -0.620599  0  1.969225  0  0  -0.571717  0  2.207852  0  0  -0.594571  0  2.198679  0  0  -0.322371  -0.555668  0  2.214126  0
O  O39  1  0.06948705  0.27416303  0.25865715  1  0  -0.620609  0  1.96921  0  0  -0.571732  0  2.207835  0  0  -0.594588  0  2.198668  0  0  -0.322397  -0.555686  0  2.214108  0
O  O40  1  0.60160194  0.59842619  0.14994478  1  0  -0.665424  0  1.978879  0  0  -0.603842  0  2.206991  0  0  -0.630669  0  2.196175  0  0  -0.327507  -0.584586  0  2.213717  0
O  O41  1  0.39839803  0.40157573  0.85005517  1  0  -0.665445  0  1.978874  0  0  -0.603875  0  2.206973  0  0  -0.630701  0  2.196156  0  0  -0.327526  -0.584618  0  2.213699  0
O  O42  1  0.68246170  0.76140089  0.60825729  1  0  -0.556741  0  2.111445  0  0  -0.501314  0  2.331354  0  0  -0.525463  0  2.320011  0  0  -0.319909  -0.484421  0  2.338201  0
O  O43  1  0.31753789  0.23859797  0.39174087  1  0  -0.556685  0  2.111438  0  0  -0.501283  0  2.331356  0  0  -0.525431  0  2.320019  0  0  -0.319882  -0.484392  0  2.338203  0
O  O44  1  0.52857264  0.25920465  0.17756232  1  0  -0.881141  0  1.883729  0  0  -0.8181  0  2.075396  0  0  -0.841551  0  2.042257  0  0  -0.58418  -0.801461  0  2.098413  0
O  O45  1  0.47142641  0.74079573  0.82243678  1  0  -0.881108  0  1.883779  0  0  -0.81808  0  2.075436  0  0  -0.841533  0  2.042295  0  0  -0.584181  -0.801441  0  2.098454  0
