# generated using pymatgen
data_MnH12C20(NO2)2
_symmetry_space_group_name_H-M   'P 1'
_cell_length_a   9.19581451
_cell_length_b   10.06797773
_cell_length_c   10.06691672
_cell_angle_alpha   60.95515225
_cell_angle_beta   85.48284584
_cell_angle_gamma   85.48098940
_symmetry_Int_Tables_number   1
_chemical_formula_structural   MnH12C20(NO2)2
_chemical_formula_sum   'Mn2 H24 C40 N4 O8'
_cell_volume   811.40521486
_cell_formula_units_Z   2
loop_
 _symmetry_equiv_pos_site_id
 _symmetry_equiv_pos_as_xyz
  1  'x, y, z'
loop_
 _atom_site_type_symbol
 _atom_site_label
 _atom_site_symmetry_multiplicity
 _atom_site_fract_x
 _atom_site_fract_y
 _atom_site_fract_z
 _atom_site_occupancy
 _atom_site_pbe_cm5_charge
 _atom_site_pbe_ddec_charge
 _atom_site_pbe_ddec_spin_density
 _atom_site_pbe_ddec_sum_bond_order
 _atom_site_pbe_magmom
Mn  Mn0  1  0.47886972  0.42977018  0.32966541  1  0.625275  0.970438  -4.571255  2.483275  -4.384
Mn  Mn1  1  0.97886221  0.32970625  0.42973703  1  0.625363  0.970618  4.571143  2.483949  4.383
H  H2  1  0.95910069  0.98112511  0.39954554  1  0.098074  0.09508  -0.00043  1.053594  0.0
H  H3  1  0.45912169  0.39957755  0.98108690  1  0.098069  0.095053  0.00043  1.053606  0.0
H  H4  1  0.96101812  0.72447547  0.41028595  1  0.105804  0.111091  -0.000336  1.021086  0.0
H  H5  1  0.46110411  0.41031535  0.72441003  1  0.105755  0.110873  0.000337  1.02129  0.0
H  H6  1  0.49885050  0.77863693  0.35868628  1  0.098129  0.095232  0.00043  1.05381  0.0
H  H7  1  0.99891304  0.35874843  0.77850848  1  0.098203  0.095296  -0.000431  1.053948  0.0
H  H8  1  0.49693647  0.03534715  0.34777226  1  0.105685  0.110387  0.000332  1.021012  0.0
H  H9  1  0.99700908  0.34777502  0.03527004  1  0.105632  0.110376  -0.000331  1.021157  0.0
H  H10  1  0.21386171  0.65158766  0.37186944  1  0.12039  0.090033  -0.000683  1.02672  -0.001
H  H11  1  0.71403852  0.37189567  0.65154546  1  0.120371  0.089999  0.000684  1.026661  0.001
H  H12  1  0.12553959  0.92523000  0.23751162  1  0.106364  0.111501  -0.000298  1.022437  0.0
H  H13  1  0.62558384  0.23752324  0.92516686  1  0.106446  0.111627  0.000298  1.022445  0.0
H  H14  1  0.22560078  0.09514530  0.97406989  1  0.103599  0.104156  -7e-06  1.039777  0.0
H  H15  1  0.72556948  0.97406876  0.09512165  1  0.103632  0.104251  7e-06  1.039774  0.0
H  H16  1  0.38833582  0.12197337  0.74852428  1  0.106154  0.118155  0.000177  1.035867  0.0
H  H17  1  0.88831452  0.74854376  0.12197453  1  0.106165  0.118175  -0.000176  1.035964  0.0
H  H18  1  0.56640669  0.00832694  0.63563459  1  0.106025  0.117464  0.000179  1.036788  0.0
H  H19  1  0.06640815  0.63559945  0.00837184  1  0.106026  0.117561  -0.000179  1.036612  0.0
H  H20  1  0.73072133  0.78321590  0.66404239  1  0.103578  0.10436  -8e-06  1.038207  0.0
H  H21  1  0.23073641  0.66399651  0.78327303  1  0.103566  0.104344  8e-06  1.038374  0.0
H  H22  1  0.83263112  0.52102114  0.83565246  1  0.106368  0.111104  -0.000295  1.022394  0.0
H  H23  1  0.33265718  0.83555003  0.52103883  1  0.106454  0.111261  0.000296  1.022182  0.0
H  H24  1  0.74448447  0.38795961  0.10934622  1  0.119877  0.089796  -0.000694  1.027948  -0.001
H  H25  1  0.24451426  0.10922760  0.38791578  1  0.119872  0.089686  0.000692  1.028187  0.001
C  C26  1  0.72678922  0.17150431  0.37201838  1  0.217249  0.569917  0.006858  4.211529  0.006
C  C27  1  0.22682138  0.37194397  0.17150601  1  0.217178  0.570243  -0.006861  4.211289  -0.006
C  C28  1  0.72780025  0.02155356  0.37428573  1  -0.020216  -0.043869  -0.00284  3.988771  -0.003
C  C29  1  0.22783740  0.37435818  0.02146674  1  -0.020473  -0.044028  0.002831  3.98837  0.003
C  C30  1  0.85928204  0.93517741  0.39045442  1  -0.09123  -0.107942  0.001934  3.994638  0.002
C  C31  1  0.35933978  0.39040568  0.93515842  1  -0.091054  -0.107685  -0.001937  3.994196  -0.002
C  C32  1  0.86056853  0.79430539  0.39604030  1  -0.088152  -0.109207  -0.002387  3.985722  -0.002
C  C33  1  0.36065654  0.39601186  0.79426052  1  -0.088123  -0.10913  0.002387  3.985718  0.002
C  C34  1  0.73007814  0.73805662  0.38425922  1  -0.020464  -0.043723  0.002817  3.988684  0.003
C  C35  1  0.23015228  0.38434442  0.73795321  1  -0.020532  -0.0438  -0.002818  3.989295  -0.003
C  C36  1  0.59862731  0.82447561  0.36801098  1  -0.091999  -0.109549  -0.001927  3.995468  -0.002
C  C37  1  0.09870021  0.36797570  0.82440074  1  -0.091741  -0.109182  0.001919  3.99541  0.002
C  C38  1  0.59734491  0.96538790  0.36230802  1  -0.087628  -0.107324  0.002364  3.984824  0.002
C  C39  1  0.09741538  0.36226958  0.96532948  1  -0.087733  -0.107546  -0.002358  3.985428  -0.002
C  C40  1  0.73091183  0.58783227  0.38717472  1  0.216902  0.571255  -0.006921  4.208979  -0.006
C  C41  1  0.23101390  0.38711972  0.58778639  1  0.216986  0.570989  0.006914  4.209307  0.006
C  C42  1  0.26055197  0.72990792  0.26012553  1  0.062102  0.10891  -0.004723  3.930395  -0.004
C  C43  1  0.76068250  0.26014366  0.72985202  1  0.061883  0.108398  0.004744  3.929799  0.004
C  C44  1  0.20963370  0.88298756  0.18324171  1  -0.08502  -0.13199  -0.000166  3.983239  0.0
C  C45  1  0.70968908  0.18326370  0.88291445  1  -0.085137  -0.131962  0.000159  3.983086  0.0
C  C46  1  0.26462292  0.97669602  0.03782746  1  -0.06353  -0.067219  -0.003373  3.919578  -0.003
C  C47  1  0.76463444  0.03785604  0.97668431  1  -0.063513  -0.067294  0.00339  3.919902  0.003
C  C48  1  0.37106292  0.91691856  0.96970958  1  -0.002222  0.042706  -0.000158  4.008972  0.0
C  C49  1  0.87106751  0.96974438  0.91689414  1  -0.002264  0.042667  0.000155  4.008962  0.0
C  C50  1  0.42736661  0.00408559  0.81654019  1  -0.084374  -0.116625  -3.8e-05  3.961325  0.0
C  C51  1  0.92734815  0.81655835  0.00408389  1  -0.084411  -0.116709  4.4e-05  3.962023  0.0
C  C52  1  0.52776758  0.94087679  0.75376337  1  -0.083433  -0.11432  -5e-05  3.961457  0.0
C  C53  1  0.02775702  0.75373574  0.94093826  1  -0.083297  -0.114304  4.5e-05  3.961532  0.0
C  C54  1  0.58474150  0.78812312  0.84172281  1  -0.001964  0.041572  -0.000143  4.00885  0.0
C  C55  1  0.08476827  0.84168412  0.78815960  1  -0.002069  0.04143  0.000151  4.008726  0.0
C  C56  1  0.69179030  0.71992794  0.78259525  1  -0.063751  -0.067478  -0.003471  3.920013  -0.003
C  C57  1  0.19179944  0.78253123  0.71996246  1  -0.063693  -0.067424  0.003447  3.920029  0.003
C  C58  1  0.74778890  0.57522856  0.87721254  1  -0.085232  -0.131811  -0.000132  3.985572  0.0
C  C59  1  0.24780640  0.87713698  0.57524462  1  -0.08556  -0.13227  0.000142  3.985993  0.0
C  C60  1  0.69706189  0.49905883  0.03037990  1  0.063221  0.108807  -0.004827  3.930287  -0.004
C  C61  1  0.19711154  0.03029314  0.49903884  1  0.063163  0.10892  0.004797  3.930911  0.004
C  C62  1  0.53526715  0.69960675  0.99631280  1  0.122513  0.123272  -0.002449  3.961053  -0.002
C  C63  1  0.03531184  0.99627225  0.69961375  1  0.122406  0.122959  0.002432  3.961605  0.002
C  C64  1  0.42098919  0.76262173  0.05899781  1  0.122455  0.12169  -0.002375  3.961664  -0.002
C  C65  1  0.92106445  0.05899136  0.76259023  1  0.122485  0.121828  0.002386  3.961521  0.002
N  N66  1  0.59238613  0.55782775  0.08851818  1  -0.300533  -0.274741  -0.031625  3.473783  -0.017
N  N67  1  0.09242937  0.08845310  0.55779510  1  -0.300217  -0.274295  0.031639  3.473042  0.017
N  N68  1  0.36467576  0.67118230  0.20138475  1  -0.299914  -0.274628  -0.031653  3.470954  -0.017
N  N69  1  0.86481871  0.20141007  0.67112308  1  -0.299694  -0.274202  0.031653  3.470028  0.017
O  O70  1  0.60948982  0.52304584  0.42166919  1  -0.316496  -0.575805  -0.029261  2.40255  -0.009
O  O71  1  0.10962141  0.42166321  0.52293412  1  -0.316481  -0.575698  0.029249  2.402842  0.009
O  O72  1  0.85210469  0.53619569  0.35650716  1  -0.303288  -0.532933  0.027751  2.331553  0.009
O  O73  1  0.35217904  0.35627932  0.53625495  1  -0.303489  -0.532843  -0.02767  2.331509  -0.009
O  O74  1  0.84819480  0.23626400  0.33789368  1  -0.316626  -0.575228  0.029278  2.403487  0.009
O  O75  1  0.34820730  0.33782982  0.23628586  1  -0.316389  -0.575159  -0.029273  2.403704  -0.009
O  O76  1  0.60553979  0.22293248  0.40280567  1  -0.303752  -0.532616  -0.027695  2.331178  -0.009
O  O77  1  0.10553542  0.40260152  0.22299182  1  -0.303725  -0.532937  0.027754  2.331528  0.01
