# generated using pymatgen
data_CdH8C8(NO)6
_symmetry_space_group_name_H-M   'P 1'
_cell_length_a   10.66972758
_cell_length_b   10.66904179
_cell_length_c   13.96030000
_cell_angle_alpha   112.42915756
_cell_angle_beta   112.42763750
_cell_angle_gamma   90.01599397
_symmetry_Int_Tables_number   1
_chemical_formula_structural   CdH8C8(NO)6
_chemical_formula_sum   'Cd4 H32 C32 N24 O24'
_cell_volume   1337.92713825
_cell_formula_units_Z   4
loop_
 _symmetry_equiv_pos_site_id
 _symmetry_equiv_pos_as_xyz
  1  'x, y, z'
loop_
 _atom_site_type_symbol
 _atom_site_label
 _atom_site_symmetry_multiplicity
 _atom_site_fract_x
 _atom_site_fract_y
 _atom_site_fract_z
 _atom_site_occupancy
 _atom_site_hle17_bader_spin_density
 _atom_site_hle17_ddec_charge
 _atom_site_hle17_ddec_spin_density
 _atom_site_hle17_ddec_sum_bond_order
 _atom_site_hle17_magmom
 _atom_site_hse06_10hf_bader_spin_density
 _atom_site_hse06_10hf_ddec_charge
 _atom_site_hse06_10hf_ddec_spin_density
 _atom_site_hse06_10hf_ddec_sum_bond_order
 _atom_site_hse06_10hf_magmom
 _atom_site_hse06_bader_spin_density
 _atom_site_hse06_ddec_charge
 _atom_site_hse06_ddec_spin_density
 _atom_site_hse06_ddec_sum_bond_order
 _atom_site_hse06_magmom
 _atom_site_pbe_bader_charge
 _atom_site_pbe_bader_spin_density
 _atom_site_pbe_cm5_charge
 _atom_site_pbe_ddec_charge
 _atom_site_pbe_ddec_spin_density
 _atom_site_pbe_ddec_sum_bond_order
 _atom_site_pbe_magmom
Cd  Cd0  1  0.62372029  0.37372399  0.24750267  1  0  0.975919  0  1.759281  0  0  0.751861  0  2.195417  0  0  0.810192  0  2.151938  0  1.258792  0  0.772085  0.711186  0  2.223671  0
Cd  Cd1  1  0.87373666  0.12374006  0.74749279  1  0  0.976342  0  1.759202  0  0  0.752317  0  2.195075  0  0  0.810666  0  2.151564  0  1.259615  0  0.772244  0.711746  0  2.223235  0
Cd  Cd2  1  0.37627950  0.62627553  0.75249641  1  0  0.975927  0  1.759266  0  0  0.751866  0  2.195409  0  0  0.810197  0  2.151932  0  1.258784  0  0.772077  0.711189  0  2.223663  0
Cd  Cd3  1  0.12626314  0.87625945  0.25250701  1  0  0.976337  0  1.759213  0  0  0.752302  0  2.195087  0  0  0.810651  0  2.151576  0  1.259646  0  0.772251  0.71159  0  2.223366  0
H  H4  1  0.95583847  0.37462651  0.39768562  1  0  0.103222  0  0.957186  0  0  0.10307  0  1.03058  0  0  0.1069  0  1.027016  0  0.143571  0  0.119747  0.100077  0  1.033551  0
H  H5  1  0.02298695  0.45587193  0.89772991  1  0  0.103043  0  0.956991  0  0  0.103006  0  1.030626  0  0  0.106883  0  1.027028  0  0.156357  0  0.119965  0.099987  0  1.033588  0
H  H6  1  0.87463269  0.94178331  0.89769340  1  0  0.103073  0  0.956908  0  0  0.10263  0  1.030612  0  0  0.106466  0  1.027043  0  0.180855  0  0.119774  0.099668  0  1.033518  0
H  H7  1  0.44184788  0.52301044  0.39778118  1  0  0.102669  0  0.956985  0  0  0.102755  0  1.030368  0  0  0.106694  0  1.026697  0  0.15771  0  0.119726  0.099696  0  1.03341  0
H  H8  1  0.04416252  0.62537403  0.60231483  1  0  0.103191  0  0.957221  0  0  0.103068  0  1.030584  0  0  0.106899  0  1.02702  0  0.143582  0  0.119748  0.100074  0  1.033558  0
H  H9  1  0.97701403  0.54412861  0.10227053  1  0  0.103019  0  0.957012  0  0  0.102976  0  1.030653  0  0  0.106859  0  1.027051  0  0.156348  0  0.119954  0.099957  0  1.033614  0
H  H10  1  0.12536746  0.05821827  0.10230782  1  0  0.103065  0  0.956922  0  0  0.102625  0  1.03062  0  0  0.106458  0  1.02705  0  0.180856  0  0.119767  0.099662  0  1.033526  0
H  H11  1  0.55815191  0.47698907  0.60221861  1  0  0.102666  0  0.956995  0  0  0.102751  0  1.030377  0  0  0.10669  0  1.026706  0  0.157713  0  0.119725  0.099692  0  1.033419  0
H  H12  1  0.12220782  0.20772392  0.39981124  1  0  0.101241  0  0.952329  0  0  0.103193  0  1.023016  0  0  0.10645  0  1.020588  0  0.166574  0  0.120075  0.100596  0  1.025286  0
H  H13  1  0.19206541  0.62224968  0.89983826  1  0  0.102413  0  0.952107  0  0  0.103906  0  1.023043  0  0  0.107084  0  1.020702  0  0.166786  0  0.120228  0.101401  0  1.025165  0
H  H14  1  0.70772319  0.77749772  0.89985757  1  0  0.102063  0  0.953049  0  0  0.103695  0  1.023896  0  0  0.106864  0  1.021552  0  0.166227  0  0.120087  0.101194  0  1.026032  0
H  H15  1  0.27753304  0.69204636  0.39989776  1  0  0.102078  0  0.953942  0  0  0.103617  0  1.024721  0  0  0.106772  0  1.022385  0  0.163859  0  0.120392  0.101106  0  1.026895  0
H  H16  1  0.87779215  0.79227663  0.60018891  1  0  0.101248  0  0.952304  0  0  0.103202  0  1.02299  0  0  0.10646  0  1.020562  0  0.166589  0  0.120085  0.100624  0  1.025225  0
H  H17  1  0.80793372  0.37775189  0.10016194  1  0  0.102407  0  0.952117  0  0  0.103901  0  1.023053  0  0  0.107079  0  1.020711  0  0.166816  0  0.120238  0.101397  0  1.025173  0
H  H18  1  0.29227779  0.22250283  0.10014288  1  0  0.102082  0  0.953036  0  0  0.103719  0  1.023879  0  0  0.106889  0  1.021535  0  0.166225  0  0.120098  0.101219  0  1.026014  0
H  H19  1  0.72246693  0.30795418  0.60010168  1  0  0.102072  0  0.953943  0  0  0.103609  0  1.024724  0  0  0.106765  0  1.022388  0  0.163865  0  0.120387  0.101117  0  1.026863  0
H  H20  1  0.80271413  0.88795518  0.14678376  1  0  0.097984  0  0.948653  0  0  0.098907  0  1.020917  0  0  0.102029  0  1.01858  0  0.164852  0  0.12115  0.096576  0  1.022794  0
H  H21  1  0.25891300  0.30270886  0.64671891  1  0  0.097657  0  0.949305  0  0  0.098905  0  1.020945  0  0  0.102036  0  1.01862  0  0.130401  0  0.120783  0.096512  0  1.022901  0
H  H22  1  0.38793165  0.84411242  0.64676626  1  0  0.097548  0  0.948794  0  0  0.098227  0  1.021304  0  0  0.101326  0  1.018987  0  0.155919  0  0.121041  0.095899  0  1.023218  0
H  H23  1  0.34407890  0.75889673  0.14668204  1  0  0.097848  0  0.948997  0  0  0.09925  0  1.020871  0  0  0.102372  0  1.018552  0  0.126876  0  0.121203  0.096938  0  1.02271  0
H  H24  1  0.19728685  0.11204537  0.85321669  1  0  0.098018  0  0.948601  0  0  0.098919  0  1.020891  0  0  0.10204  0  1.018553  0  0.164852  0  0.121141  0.096588  0  1.02277  0
H  H25  1  0.74108697  0.69729169  0.35328124  1  0  0.09767  0  0.949255  0  0  0.098914  0  1.020904  0  0  0.102046  0  1.018578  0  0.130397  0  0.120788  0.09654  0  1.022821  0
H  H26  1  0.61206916  0.15588710  0.35323384  1  0  0.097534  0  0.948799  0  0  0.098207  0  1.02133  0  0  0.101305  0  1.019014  0  0.155914  0  0.121037  0.095897  0  1.023206  0
H  H27  1  0.65592107  0.24110382  0.85331811  1  0  0.097847  0  0.949023  0  0  0.099247  0  1.020896  0  0  0.102362  0  1.018573  0  0.126867  0  0.121194  0.096934  0  1.022735  0
H  H28  1  0.63768133  0.05467405  0.14320493  1  0  0.095408  0  0.944574  0  0  0.099067  0  1.011333  0  0  0.10173  0  1.009917  0  0.122317  0  0.120994  0.097026  0  1.012629  0
H  H29  1  0.08855478  0.13766070  0.64317742  1  0  0.095887  0  0.943973  0  0  0.09885  0  1.011376  0  0  0.101432  0  1.010084  0  0.126819  0  0.121074  0.096881  0  1.012613  0
H  H30  1  0.55467685  0.00559419  0.64315175  1  0  0.095502  0  0.945199  0  0  0.098655  0  1.012357  0  0  0.101263  0  1.010998  0  0.149961  0  0.12109  0.096677  0  1.013615  0
H  H31  1  0.50556305  0.58853121  0.14309522  1  0  0.095503  0  0.945215  0  0  0.098862  0  1.012045  0  0  0.101453  0  1.010731  0  0.109226  0  0.121095  0.096895  0  1.013271  0
H  H32  1  0.36231948  0.94532547  0.85679589  1  0  0.095398  0  0.944582  0  0  0.099037  0  1.011359  0  0  0.101701  0  1.009942  0  0.122319  0  0.120987  0.096996  0  1.012654  0
H  H33  1  0.91144621  0.86233984  0.35682303  1  0  0.095874  0  0.943966  0  0  0.098837  0  1.011374  0  0  0.101418  0  1.010082  0  0.126812  0  0.121064  0.09687  0  1.012608  0
H  H34  1  0.44532294  0.99440533  0.35684734  1  0  0.09552  0  0.945195  0  0  0.098681  0  1.012326  0  0  0.10129  0  1.010966  0  0.149962  0  0.121086  0.096706  0  1.013581  0
H  H35  1  0.49443775  0.41146831  0.85690416  1  0  0.095503  0  0.945226  0  0  0.098867  0  1.012052  0  0  0.101457  0  1.01074  0  0.10909  0  0.121108  0.0969  0  1.013278  0
C  C36  1  0.92126586  0.26593190  0.34143365  1  0  0.102746  0  3.63336  0  0  0.072665  0  3.885628  0  0  0.076131  0  3.901791  0  0.560738  0  0.062787  0.070067  0  3.875546  0
C  C37  1  0.07545241  0.42129210  0.84143360  1  0  0.103305  0  3.633899  0  0  0.072523  0  3.886619  0  0  0.075968  0  3.902755  0  0.534871  0  0.061874  0.069983  0  3.876528  0
C  C38  1  0.76592708  0.92010016  0.84142167  1  0  0.103038  0  3.633645  0  0  0.073225  0  3.885817  0  0  0.076705  0  3.90191  0  0.514418  0  0.062299  0.070629  0  3.875724  0
C  C39  1  0.42013356  0.57547090  0.34146488  1  0  0.104455  0  3.633737  0  0  0.073832  0  3.885755  0  0  0.07723  0  3.901832  0  0.521045  0  0.062518  0.071262  0  3.875751  0
C  C40  1  0.07873394  0.73406762  0.65856615  1  0  0.102785  0  3.633358  0  0  0.07269  0  3.885608  0  0  0.076153  0  3.901773  0  0.560717  0  0.062787  0.07009  0  3.875531  0
C  C41  1  0.92454738  0.57870742  0.15856548  1  0  0.103326  0  3.633954  0  0  0.072546  0  3.886681  0  0  0.075987  0  3.902816  0  0.534863  0  0.06188  0.070004  0  3.876591  0
C  C42  1  0.23407306  0.07990141  0.15857883  1  0  0.102967  0  3.633648  0  0  0.073167  0  3.885797  0  0  0.076651  0  3.901886  0  0.514434  0  0.062257  0.070571  0  3.875703  0
C  C43  1  0.57986624  0.42452862  0.65853492  1  0  0.104473  0  3.633718  0  0  0.073848  0  3.885733  0  0  0.077245  0  3.901811  0  0.521041  0  0.062524  0.071276  0  3.875735  0
C  C44  1  0.01362888  0.17327993  0.34288769  1  0  0.100371  0  3.635  0  0  0.070007  0  3.886965  0  0  0.072919  0  3.904085  0  0.482874  0  0.061817  0.067778  0  3.876208  0
C  C45  1  0.16960002  0.51365592  0.84288467  1  0  0.097146  0  3.637278  0  0  0.06775  0  3.889252  0  0  0.070741  0  3.90642  0  0.493859  0  0.061448  0.065508  0  3.878349  0
C  C46  1  0.67325402  0.82919355  0.84290565  1  0  0.099129  0  3.636099  0  0  0.069136  0  3.887837  0  0  0.072151  0  3.904967  0  0.474408  0  0.061658  0.066866  0  3.876993  0
C  C47  1  0.32921265  0.66957904  0.34292002  1  0  0.097551  0  3.637729  0  0  0.068246  0  3.889284  0  0  0.071274  0  3.906418  0  0.486048  0  0.06107  0.065933  0  3.87851  0
C  C48  1  0.98637193  0.82671959  0.65711241  1  0  0.100309  0  3.635003  0  0  0.069951  0  3.886984  0  0  0.072862  0  3.904103  0  0.482861  0  0.06178  0.06773  0  3.876207  0
C  C49  1  0.83040078  0.48634360  0.15711542  1  0  0.097209  0  3.6372  0  0  0.067814  0  3.889182  0  0  0.070805  0  3.906351  0  0.493833  0  0.061467  0.065571  0  3.878279  0
C  C50  1  0.32674595  0.17080700  0.15709450  1  0  0.099091  0  3.636143  0  0  0.069068  0  3.887903  0  0  0.072083  0  3.905032  0  0.474392  0  0.061621  0.066799  0  3.877059  0
C  C51  1  0.67078732  0.33042150  0.65708013  1  0  0.097572  0  3.637738  0  0  0.068267  0  3.889288  0  0  0.071293  0  3.906424  0  0.486036  0  0.061078  0.065963  0  3.878495  0
C  C52  1  0.83760491  0.99674962  0.20295919  1  0  0.09716  0  3.65088  0  0  0.068844  0  3.902776  0  0  0.071619  0  3.920474  0  0.469365  0  0.057871  0.066634  0  3.891386  0
C  C53  1  0.20623563  0.33760360  0.70290200  1  0  0.096864  0  3.652  0  0  0.068642  0  3.902997  0  0  0.071418  0  3.92065  0  0.506264  0  0.05857  0.066462  0  3.891687  0
C  C54  1  0.49672667  0.86538083  0.70296032  1  0  0.098158  0  3.649017  0  0  0.07  0  3.900999  0  0  0.072805  0  3.918654  0  0.513577  0  0.058296  0.067753  0  3.889694  0
C  C55  1  0.36535142  0.70624177  0.20289590  1  0  0.098137  0  3.649354  0  0  0.068649  0  3.902063  0  0  0.071415  0  3.919734  0  0.478485  0  0.058171  0.066443  0  3.890688  0
C  C56  1  0.16239488  0.00324990  0.79703990  1  0  0.097058  0  3.650881  0  0  0.068752  0  3.902801  0  0  0.071528  0  3.920496  0  0.46938  0  0.057875  0.06654  0  3.89142  0
C  C57  1  0.79376434  0.66239695  0.29709815  1  0  0.09683  0  3.651945  0  0  0.068608  0  3.902959  0  0  0.071384  0  3.920612  0  0.506262  0  0.058549  0.06644  0  3.891622  0
C  C58  1  0.50327312  0.13461868  0.29704019  1  0  0.098192  0  3.649028  0  0  0.070031  0  3.901013  0  0  0.072836  0  3.918669  0  0.513392  0  0.058303  0.067796  0  3.889682  0
C  C59  1  0.63464838  0.29375774  0.79710462  1  0  0.098094  0  3.649366  0  0  0.068628  0  3.902066  0  0  0.071405  0  3.919725  0  0.478465  0  0.058149  0.06642  0  3.890699  0
C  C60  1  0.74589559  0.08901307  0.20110254  1  0  0.099665  0  3.652671  0  0  0.071148  0  3.901904  0  0  0.073826  0  3.920096  0  0.566808  0  0.059262  0.069087  0  3.890151  0
C  C61  1  0.11209376  0.24589120  0.70107737  1  0  0.09873  0  3.653286  0  0  0.070945  0  3.90207  0  0  0.073651  0  3.920238  0  0.518362  0  0.058963  0.068838  0  3.890315  0
C  C62  1  0.58901906  0.95525114  0.70108824  1  0  0.099759  0  3.65161  0  0  0.0716  0  3.901201  0  0  0.074336  0  3.919345  0  0.475329  0  0.05912  0.069454  0  3.889489  0
C  C63  1  0.45520230  0.61210790  0.20103386  1  0  0.098915  0  3.652043  0  0  0.071253  0  3.900998  0  0  0.07397  0  3.919138  0  0.569554  0  0.058993  0.069118  0  3.889268  0
C  C64  1  0.25410438  0.91098748  0.79889832  1  0  0.099735  0  3.652774  0  0  0.071256  0  3.901973  0  0  0.073935  0  3.920163  0  0.566785  0  0.059299  0.069191  0  3.890227  0
C  C65  1  0.88790621  0.75410935  0.29892278  1  0  0.098765  0  3.653214  0  0  0.070976  0  3.901998  0  0  0.073682  0  3.920166  0  0.518364  0  0.058972  0.068865  0  3.890255  0
C  C66  1  0.41098174  0.04474837  0.29891186  1  0  0.09968  0  3.651679  0  0  0.071518  0  3.901275  0  0  0.074254  0  3.91942  0  0.475515  0  0.059099  0.069369  0  3.889571  0
C  C67  1  0.54479750  0.38789162  0.79896594  1  0  0.098959  0  3.652083  0  0  0.071276  0  3.901045  0  0  0.073993  0  3.919183  0  0.569681  0  0.059003  0.069138  0  3.889321  0
N  N68  1  0.49413569  0.24416951  0.98832192  1  0  0.680334  0  4.159572  0  0  0.71435  0  4.446278  0  0  0.742435  0  4.452817  0  0.789188  0  0.088994  0.697439  0  4.440814  0
N  N69  1  0.74418149  0.99411409  0.48831589  1  0  0.680015  0  4.159897  0  0  0.714793  0  4.445393  0  0  0.742826  0  4.451957  0  0.788208  0  0.088505  0.697706  0  4.440003  0
N  N70  1  0.50586428  0.75583104  0.01167823  1  0  0.680525  0  4.15937  0  0  0.714529  0  4.446073  0  0  0.742615  0  4.45261  0  0.789171  0  0.088998  0.697594  0  4.44062  0
N  N71  1  0.25581813  0.00588440  0.51168355  1  0  0.68002  0  4.159825  0  0  0.714781  0  4.44536  0  0  0.742812  0  4.451928  0  0.788203  0  0.088457  0.695843  0  4.440301  0
N  N72  1  0.75329710  0.50327436  0.50662120  1  0  0.68665  0  4.144324  0  0  0.720834  0  4.428189  0  0  0.749218  0  4.435024  0  0.772349  0  0.094356  0.701473  0  4.42291  0
N  N73  1  0.00326040  0.25328734  0.00660964  1  0  0.686554  0  4.142399  0  0  0.719846  0  4.427866  0  0  0.748206  0  4.434825  0  0.76445  0  0.094064  0.702222  0  4.42224  0
N  N74  1  0.24670371  0.49672516  0.49337889  1  0  0.686618  0  4.144371  0  0  0.720813  0  4.428226  0  0  0.749196  0  4.435062  0  0.772353  0  0.094363  0.701453  0  4.422943  0
N  N75  1  0.99673939  0.74671218  0.99339016  1  0  0.68655  0  4.142445  0  0  0.719844  0  4.427901  0  0  0.748203  0  4.43486  0  0.764449  0  0.094057  0.702216  0  4.422271  0
N  N76  1  0.78779586  0.22344857  0.27039014  1  0  -0.27149  0  3.227303  0  0  -0.195015  0  3.480475  0  0  -0.211518  0  3.500913  0  -1.244046  0  -0.305467  -0.183754  0  3.46634  0
N  N77  1  0.04689958  0.28779617  0.77039875  1  0  -0.271408  0  3.227053  0  0  -0.194825  0  3.480074  0  0  -0.211307  0  3.500474  0  -1.215576  0  -0.305339  -0.18357  0  3.465941  0
N  N78  1  0.72346228  0.98258508  0.77034694  1  0  -0.272  0  3.229071  0  0  -0.195452  0  3.482192  0  0  -0.211948  0  3.502559  0  -1.209661  0  -0.305426  -0.184203  0  3.468096  0
N  N79  1  0.48258405  0.54691439  0.27036980  1  0  -0.272445  0  3.228849  0  0  -0.195981  0  3.481712  0  0  -0.212472  0  3.502133  0  -1.199096  0  -0.305645  -0.184728  0  3.467602  0
N  N80  1  0.21220512  0.77655197  0.72961031  1  0  -0.271547  0  3.227399  0  0  -0.195088  0  3.480577  0  0  -0.21159  0  3.501016  0  -1.244032  0  -0.305498  -0.183827  0  3.466445  0
N  N81  1  0.95310123  0.71220335  0.22960135  1  0  -0.271434  0  3.227083  0  0  -0.194849  0  3.480104  0  0  -0.211331  0  3.500505  0  -1.215567  0  -0.305354  -0.183605  0  3.466006  0
N  N82  1  0.27653870  0.01741547  0.22965351  1  0  -0.271894  0  3.229016  0  0  -0.195335  0  3.482102  0  0  -0.211831  0  3.50247  0  -1.209667  0  -0.305364  -0.184097  0  3.468043  0
N  N83  1  0.51741557  0.45308410  0.72963036  1  0  -0.272465  0  3.228861  0  0  -0.195993  0  3.481729  0  0  -0.212483  0  3.50215  0  -1.199078  0  -0.305651  -0.184742  0  3.467622  0
N  N84  1  0.97159749  0.03911096  0.27376673  1  0  -0.274397  0  3.218151  0  0  -0.199131  0  3.4723  0  0  -0.215293  0  3.492556  0  -1.225163  0  -0.304824  -0.188059  0  3.458299  0
N  N85  1  0.23469462  0.47161305  0.77373616  1  0  -0.271168  0  3.217742  0  0  -0.196522  0  3.471782  0  0  -0.212703  0  3.492073  0  -1.208653  0  -0.304081  -0.185436  0  3.457709  0
N  N86  1  0.53908485  0.80214055  0.77380520  1  0  -0.273751  0  3.21893  0  0  -0.198413  0  3.47292  0  0  -0.21459  0  3.49316  0  -1.210788  0  -0.304287  -0.187327  0  3.458928  0
N  N87  1  0.30214339  0.73467273  0.27377073  1  0  -0.272868  0  3.217714  0  0  -0.197918  0  3.472151  0  0  -0.214093  0  3.492411  0  -1.206862  0  -0.304535  -0.186824  0  3.45814  0
N  N88  1  0.02840231  0.96088856  0.72623307  1  0  -0.274286  0  3.218172  0  0  -0.199043  0  3.472343  0  0  -0.215204  0  3.492599  0  -1.225135  0  -0.304793  -0.187962  0  3.458316  0
N  N89  1  0.76530535  0.52838749  0.22626399  1  0  -0.271192  0  3.217702  0  0  -0.196546  0  3.471753  0  0  -0.212728  0  3.492044  0  -1.208633  0  -0.304077  -0.18546  0  3.457681  0
N  N90  1  0.46091494  0.19785896  0.22619460  1  0  -0.273715  0  3.218944  0  0  -0.198376  0  3.472943  0  0  -0.214555  0  3.493185  0  -1.210771  0  -0.304264  -0.187291  0  3.458952  0
N  N91  1  0.69785658  0.26532782  0.72622943  1  0  -0.27288  0  3.217717  0  0  -0.197937  0  3.472141  0  0  -0.214111  0  3.492397  0  -1.206833  0  -0.30453  -0.186835  0  3.458107  0
O  O92  1  0.60813252  0.21554508  0.04426365  1  0  -0.497621  0  1.757657  0  0  -0.484555  0  1.981764  0  0  -0.501922  0  1.975333  0  -0.569826  0  -0.215529  -0.472805  0  1.985686  0
O  O93  1  0.82871374  0.10813581  0.54426983  1  0  -0.498074  0  1.757769  0  0  -0.485209  0  1.981601  0  0  -0.502538  0  1.975081  0  -0.57312  0  -0.215656  -0.473415  0  1.985608  0
O  O94  1  0.71554280  0.93596477  0.54425411  1  0  -0.496852  0  1.758845  0  0  -0.484107  0  1.982536  0  0  -0.501443  0  1.976115  0  -0.5767  0  -0.215079  -0.472304  0  1.986462  0
O  O95  1  0.43604082  0.32868541  0.04428142  1  0  -0.497525  0  1.758326  0  0  -0.484788  0  1.98278  0  0  -0.502118  0  1.976242  0  -0.581365  0  -0.215638  -0.473076  0  1.98676  0
O  O96  1  0.39186728  0.78445443  0.95573543  1  0  -0.497665  0  1.757652  0  0  -0.484607  0  1.981775  0  0  -0.501975  0  1.975342  0  -0.56983  0  -0.215519  -0.472846  0  1.985698  0
O  O97  1  0.17128623  0.89186473  0.45573032  1  0  -0.498055  0  1.757766  0  0  -0.485189  0  1.981612  0  0  -0.502516  0  1.975092  0  -0.573126  0  -0.21562  -0.472635  0  1.985628  0
O  O98  1  0.28445699  0.06403474  0.45574569  1  0  -0.496876  0  1.758802  0  0  -0.484116  0  1.982497  0  0  -0.501452  0  1.976078  0  -0.57669  0  -0.21509  -0.471562  0  1.986435  0
O  O99  1  0.56396017  0.67131513  0.95571902  1  0  -0.497606  0  1.758235  0  0  -0.484853  0  1.98269  0  0  -0.502185  0  1.976153  0  -0.581342  0  -0.215645  -0.473131  0  1.986672  0
O  O100  1  0.44099126  0.19099692  0.88187134  1  0  -0.433068  0  1.764082  0  0  -0.42903  0  1.981796  0  0  -0.441706  0  1.97692  0  -0.484246  0  -0.17544  -0.42056  0  1.984955  0
O  O101  1  0.69102903  0.94103103  0.38186544  1  0  -0.432953  0  1.763403  0  0  -0.429286  0  1.980776  0  0  -0.441915  0  1.975851  0  -0.486005  0  -0.175442  -0.420801  0  1.984014  0
O  O102  1  0.55900853  0.80900260  0.11812846  1  0  -0.433138  0  1.764012  0  0  -0.429102  0  1.981727  0  0  -0.441775  0  1.976847  0  -0.484242  0  -0.175448  -0.420614  0  1.984871  0
O  O103  1  0.30897094  0.05896951  0.61813471  1  0  -0.432957  0  1.763391  0  0  -0.429288  0  1.980776  0  0  -0.441918  0  1.975853  0  -0.486003  0  -0.175421  -0.420036  0  1.98405  0
O  O104  1  0.80757413  0.53639184  0.45014567  1  0  -0.501928  0  1.788479  0  0  -0.48132  0  2.01522  0  0  -0.500741  0  2.009913  0  -0.581055  0  -0.202153  -0.466993  0  2.018243  0
O  O105  1  0.91370647  0.30753637  0.95015313  1  0  -0.502321  0  1.78909  0  0  -0.481046  0  2.015433  0  0  -0.500537  0  2.010254  0  -0.574127  0  -0.202061  -0.467346  0  2.018357  0
O  O106  1  0.03635701  0.14259113  0.95015864  1  0  -0.502796  0  1.789639  0  0  -0.481746  0  2.016113  0  0  -0.501257  0  2.010912  0  -0.575728  0  -0.202555  -0.467985  0  2.018994  0
O  O107  1  0.64261137  0.41372615  0.45020141  1  0  -0.502873  0  1.791792  0  0  -0.482188  0  2.018406  0  0  -0.501721  0  2.013239  0  -0.57582  0  -0.202759  -0.467742  0  2.021317  0
O  O108  1  0.19242566  0.46360768  0.54985412  1  0  -0.501934  0  1.788467  0  0  -0.481329  0  2.015217  0  0  -0.50075  0  2.009911  0  -0.581058  0  -0.20216  -0.467002  0  2.018238  0
O  O109  1  0.08629367  0.69246521  0.04984738  1  0  -0.5023  0  1.789105  0  0  -0.481034  0  2.01546  0  0  -0.500528  0  2.010285  0  -0.574101  0  -0.202042  -0.467333  0  2.018387  0
O  O110  1  0.96364194  0.85740942  0.04984121  1  0  -0.502796  0  1.789645  0  0  -0.481755  0  2.016137  0  0  -0.501258  0  2.010924  0  -0.575744  0  -0.202564  -0.46799  0  2.019019  0
O  O111  1  0.35738843  0.58627336  0.54979839  1  0  -0.502831  0  1.791812  0  0  -0.482163  0  2.01843  0  0  -0.501701  0  2.013277  0  -0.575811  0  -0.202754  -0.467714  0  2.021335  0
O  O112  1  0.80629165  0.55629361  0.61278710  1  0  -0.41452  0  1.716412  0  0  -0.411538  0  1.912821  0  0  -0.424102  0  1.90854  0  -0.445331  0  -0.170774  -0.40192  0  1.915667  0
O  O113  1  0.05634688  0.30635805  0.11277579  1  0  -0.414033  0  1.716128  0  0  -0.410976  0  1.912995  0  0  -0.423517  0  1.908707  0  -0.443788  0  -0.170689  -0.402048  0  1.915804  0
O  O114  1  0.19370797  0.44370488  0.38721235  1  0  -0.414511  0  1.71641  0  0  -0.411526  0  1.912811  0  0  -0.424089  0  1.90853  0  -0.445346  0  -0.170776  -0.401909  0  1.915657  0
O  O115  1  0.94365309  0.69364250  0.88722436  1  0  -0.414042  0  1.716146  0  0  -0.41098  0  1.913011  0  0  -0.423522  0  1.908722  0  -0.443787  0  -0.170691  -0.402052  0  1.91582  0
