# generated using pymatgen
data_HgH9C7NO3
_symmetry_space_group_name_H-M   'P 1'
_cell_length_a   5.26763579
_cell_length_b   10.29674639
_cell_length_c   17.08468300
_cell_angle_alpha   90.00548770
_cell_angle_beta   89.99993445
_cell_angle_gamma   101.41589658
_symmetry_Int_Tables_number   1
_chemical_formula_structural   HgH9C7NO3
_chemical_formula_sum   'Hg4 H36 C28 N4 O12'
_cell_volume   908.33196455
_cell_formula_units_Z   4
loop_
 _symmetry_equiv_pos_site_id
 _symmetry_equiv_pos_as_xyz
  1  'x, y, z'
loop_
 _atom_site_type_symbol
 _atom_site_label
 _atom_site_symmetry_multiplicity
 _atom_site_fract_x
 _atom_site_fract_y
 _atom_site_fract_z
 _atom_site_occupancy
 _atom_site_pbe_bader_spin_density
 _atom_site_pbe_cm5_charge
 _atom_site_pbe_ddec_charge
 _atom_site_pbe_ddec_spin_density
 _atom_site_pbe_ddec_sum_bond_order
 _atom_site_pbe_magmom
Hg  Hg0  1  0.61918458  0.54338580  0.37603299  1  0  0.571204  0.637164  0  2.288379  0
Hg  Hg1  1  0.88077222  0.95664393  0.87603601  1  0  0.571158  0.637117  0  2.288177  0
Hg  Hg2  1  0.38071183  0.45665343  0.62397394  1  0  0.571124  0.637181  0  2.287957  0
Hg  Hg3  1  0.11935621  0.04331107  0.12396681  1  0  0.571098  0.637191  0  2.288208  0
H  H4  1  0.61837514  0.97939618  0.44458194  1  0  0.101478  0.150136  0  1.000788  0
H  H5  1  0.88156501  0.52065600  0.94459291  1  0  0.10156  0.150181  0  1.000571  0
H  H6  1  0.38162986  0.02067240  0.55538870  1  0  0.101527  0.150145  0  1.000553  0
H  H7  1  0.11831496  0.47927116  0.05538416  1  0  0.101502  0.150075  0  1.00033  0
H  H8  1  0.49735097  0.80724901  0.46291152  1  0  0.097552  0.145299  0  1.031727  0
H  H9  1  0.00269602  0.69280320  0.96290457  1  0  0.097417  0.145129  0  1.031908  0
H  H10  1  0.50265482  0.19282156  0.53707902  1  0  0.097445  0.145157  0  1.031848  0
H  H11  1  0.99732303  0.30712045  0.03707309  1  0  0.097639  0.145438  0  1.031924  0
H  H12  1  0.36021566  0.89063023  0.38711123  1  0  0.100377  0.152925  0  1.004882  0
H  H13  1  0.13975182  0.60935304  0.88710825  1  0  0.100408  0.152964  0  1.004734  0
H  H14  1  0.63980506  0.10940653  0.61286058  1  0  0.100458  0.152992  0  1.004705  0
H  H15  1  0.86013898  0.39054432  0.11285536  1  0  0.100446  0.153031  0  1.004744  0
H  H16  1  0.09016028  0.69444677  0.16885431  1  0  0.095265  0.143677  0  1.015885  0
H  H17  1  0.40986073  0.80557619  0.66887068  1  0  0.095223  0.143456  0  1.015952  0
H  H18  1  0.90968420  0.30546763  0.83115086  1  0  0.095189  0.14364  0  1.015754  0
H  H19  1  0.59040267  0.19458767  0.33114445  1  0  0.095209  0.14357  0  1.015985  0
H  H20  1  0.03546768  0.57335262  0.24513732  1  0  0.090741  0.135231  0  1.03876  0
H  H21  1  0.46440848  0.92663899  0.74518049  1  0  0.090536  0.13507  0  1.038865  0
H  H22  1  0.96454928  0.42662264  0.75490063  1  0  0.090738  0.135264  0  1.038418  0
H  H23  1  0.53550477  0.07340911  0.25489785  1  0  0.090697  0.135161  0  1.038555  0
H  H24  1  0.32388103  0.69678257  0.24372179  1  0  0.092233  0.138652  0  1.01327  0
H  H25  1  0.17603705  0.80318086  0.74371390  1  0  0.092223  0.138597  0  1.013245  0
H  H26  1  0.67609705  0.30322360  0.75625938  1  0  0.092234  0.138605  0  1.013213  0
H  H27  1  0.82395602  0.19681533  0.25624152  1  0  0.092271  0.138662  0  1.013458  0
H  H28  1  0.79741535  0.23808295  0.44392009  1  0  0.094495  0.152008  0  1.033473  0
H  H29  1  0.70256977  0.26195291  0.94390237  1  0  0.094501  0.152041  0  1.033504  0
H  H30  1  0.20251957  0.76190553  0.55608918  1  0  0.094577  0.152161  0  1.033456  0
H  H31  1  0.29756336  0.73805168  0.05609519  1  0  0.094626  0.152271  0  1.033299  0
H  H32  1  0.05448862  0.20385859  0.50448395  1  0  0.090948  0.143343  0  1.040654  0
H  H33  1  0.44551621  0.29621514  0.00446906  1  0  0.090983  0.143342  0  1.040508  0
H  H34  1  0.94545772  0.79615365  0.49552649  1  0  0.091  0.143385  0  1.040607  0
H  H35  1  0.55459363  0.70375978  0.99553202  1  0  0.091066  0.143467  0  1.040504  0
H  H36  1  0.02712530  0.14722158  0.40597714  1  0  0.101001  0.158998  0  1.006214  0
H  H37  1  0.47287595  0.35281417  0.90595769  1  0  0.101039  0.159032  0  1.006229  0
H  H38  1  0.97288356  0.85280928  0.59402803  1  0  0.101011  0.158975  0  1.006321  0
H  H39  1  0.52717874  0.64715103  0.09403987  1  0  0.101019  0.159115  0  1.006242  0
C  C40  1  0.78857499  0.72905875  0.33751384  1  0  -0.160476  -0.432809  0  4.022147  0
C  C41  1  0.71139353  0.77095358  0.83751890  1  0  -0.160438  -0.432873  0  4.022251  0
C  C42  1  0.21138661  0.27095840  0.66248489  1  0  -0.160532  -0.433025  0  4.022353  0
C  C43  1  0.28863418  0.22902958  0.16247515  1  0  -0.160513  -0.433117  0  4.022712  0
C  C44  1  0.73049681  0.84728319  0.36116571  1  0  0.078412  0.292275  0  4.022392  0
C  C45  1  0.76949224  0.65274492  0.86116964  1  0  0.078374  0.292296  0  4.022764  0
C  C46  1  0.26952052  0.15275458  0.63882483  1  0  0.078545  0.292419  0  4.022446  0
C  C47  1  0.23045550  0.34721870  0.13881797  1  0  0.0785  0.292363  0  4.022928  0
C  C48  1  0.98285073  0.76553898  0.27862381  1  0  0.099075  0.289334  0  4.047906  0
C  C49  1  0.51710106  0.73445859  0.77863444  1  0  0.098842  0.289258  0  4.048171  0
C  C50  1  0.01713118  0.23444832  0.72137785  1  0  0.098972  0.289287  0  4.048178  0
C  C51  1  0.48288078  0.26556642  0.22137190  1  0  0.098859  0.289122  0  4.048276  0
C  C52  1  0.54132257  0.88327614  0.41730443  1  0  -0.238025  -0.454086  0  3.943302  0
C  C53  1  0.95866361  0.61675543  0.91730166  1  0  -0.237956  -0.453938  0  3.943296  0
C  C54  1  0.45868644  0.11678350  0.58268084  1  0  -0.237984  -0.453951  0  3.943343  0
C  C55  1  0.04126825  0.38316856  0.08267834  1  0  -0.238115  -0.454132  0  3.943394  0
C  C56  1  0.11518431  0.67714023  0.23145614  1  0  -0.243225  -0.435273  0  3.924464  0
C  C57  1  0.38475216  0.82284887  0.73147515  1  0  -0.242864  -0.434626  0  3.924061  0
C  C58  1  0.88477339  0.32282931  0.76855137  1  0  -0.243109  -0.435198  0  3.923687  0
C  C59  1  0.61528528  0.17721067  0.26854231  1  0  -0.243067  -0.434952  0  3.924096  0
C  C60  1  0.16992434  0.35525316  0.41749228  1  0  0.19883  0.664699  0  4.122708  0
C  C61  1  0.33002990  0.14478965  0.91748834  1  0  0.198805  0.664711  0  4.122564  0
C  C62  1  0.82996101  0.64478214  0.58252752  1  0  0.199086  0.664796  0  4.122141  0
C  C63  1  0.67014473  0.85516219  0.08251683  1  0  0.199043  0.664581  0  4.122344  0
C  C64  1  0.00025383  0.22815269  0.44510679  1  0  -0.249264  -0.523079  0  3.875323  0
C  C65  1  0.49973641  0.27189758  0.94509054  1  0  -0.249288  -0.523025  0  3.875036  0
C  C66  1  0.99969062  0.77185956  0.55490540  1  0  -0.249492  -0.523241  0  3.875455  0
C  C67  1  0.50038220  0.72808027  0.05490878  1  0  -0.249634  -0.523496  0  3.875177  0
N  N68  1  0.04034458  0.89572048  0.26844435  1  0  -0.233609  -0.233176  0  3.002403  0
N  N69  1  0.45959512  0.60427579  0.76845846  1  0  -0.23354  -0.233315  0  3.002775  0
N  N70  1  0.95969420  0.10426661  0.73155262  1  0  -0.233337  -0.232814  0  3.002485  0
N  N71  1  0.54027907  0.39575063  0.23154730  1  0  -0.233324  -0.232875  0  3.002836  0
O  O72  1  0.88048426  0.94892444  0.32121368  1  0  -0.049216  -0.064681  0  2.541271  0
O  O73  1  0.61947478  0.55108619  0.82122203  1  0  -0.049144  -0.064607  0  2.541324  0
O  O74  1  0.11957133  0.05109037  0.67877452  1  0  -0.049508  -0.06499  0  2.540937  0
O  O75  1  0.38038353  0.44890059  0.17877143  1  0  -0.049453  -0.064826  0  2.541528  0
O  O76  1  0.42026801  0.36133261  0.42638501  1  0  -0.315214  -0.509811  0  2.268921  0
O  O77  1  0.07968954  0.13871466  0.92638699  1  0  -0.315234  -0.509915  0  2.268932  0
O  O78  1  0.57962488  0.63872152  0.57362953  1  0  -0.315168  -0.509798  0  2.268417  0
O  O79  1  0.92048186  0.86120545  0.07362872  1  0  -0.315161  -0.50986  0  2.268798  0
O  O80  1  0.07908330  0.44668633  0.38743618  1  0  -0.322574  -0.550823  0  2.176412  0
O  O81  1  0.42085863  0.05334158  0.88743504  1  0  -0.322547  -0.550855  0  2.176462  0
O  O82  1  0.92076435  0.55334019  0.61258948  1  0  -0.322825  -0.551023  0  2.176297  0
O  O83  1  0.57935546  0.94663294  0.11256193  1  0  -0.322722  -0.550793  0  2.176317  0
