# generated using pymatgen
data_KH5C5SO4
_symmetry_space_group_name_H-M   'P 1'
_cell_length_a   8.20414038
_cell_length_b   8.32127092
_cell_length_c   10.94915356
_cell_angle_alpha   90.00041939
_cell_angle_beta   103.47695793
_cell_angle_gamma   89.99982456
_symmetry_Int_Tables_number   1
_chemical_formula_structural   KH5C5SO4
_chemical_formula_sum   'K4 H20 C20 S4 O16'
_cell_volume   726.90340218
_cell_formula_units_Z   4
loop_
 _symmetry_equiv_pos_site_id
 _symmetry_equiv_pos_as_xyz
  1  'x, y, z'
loop_
 _atom_site_type_symbol
 _atom_site_label
 _atom_site_symmetry_multiplicity
 _atom_site_fract_x
 _atom_site_fract_y
 _atom_site_fract_z
 _atom_site_occupancy
 _atom_site_pbe_bader_spin_density
 _atom_site_pbe_cm5_charge
 _atom_site_pbe_ddec_charge
 _atom_site_pbe_ddec_spin_density
 _atom_site_pbe_ddec_sum_bond_order
 _atom_site_pbe_magmom
K  K0  1  0.80751289  0.78306044  0.96704421  1  0  0.816601  0.899673  0  0.663732  0
K  K1  1  0.69249679  0.28306756  0.03296403  1  0  0.816619  0.899679  0  0.663761  0
K  K2  1  0.19248858  0.21694026  0.03295766  1  0  0.816606  0.899675  0  0.663727  0
K  K3  1  0.30751602  0.71693554  0.96704337  1  0  0.816615  0.899688  0  0.663732  0
H  H4  1  0.10251990  0.97255234  0.81487955  1  0  0.286927  0.378791  0  0.967627  0
H  H5  1  0.39748437  0.47255066  0.18512100  1  0  0.286926  0.378812  0  0.967607  0
H  H6  1  0.89747907  0.02744836  0.18512190  1  0  0.286911  0.378764  0  0.967658  0
H  H7  1  0.60250948  0.52745365  0.81487320  1  0  0.286908  0.378764  0  0.967651  0
H  H8  1  0.94765534  0.06863987  0.83902712  1  0  0.291426  0.38895  0  0.947602  0
H  H9  1  0.55234448  0.56864018  0.16097191  1  0  0.291428  0.38894  0  0.947627  0
H  H10  1  0.05234238  0.93136083  0.16097412  1  0  0.291416  0.388923  0  0.947639  0
H  H11  1  0.44764815  0.43136653  0.83902392  1  0  0.29145  0.388964  0  0.947589  0
H  H12  1  0.51107224  0.78897459  0.70038169  1  0  0.110851  0.10741  0  1.04117  0
H  H13  1  0.98893616  0.28897011  0.29962454  1  0  0.110841  0.107412  0  1.041231  0
H  H14  1  0.48893051  0.21102851  0.29962130  1  0  0.110848  0.107395  0  1.041146  0
H  H15  1  0.01106278  0.71102818  0.70037508  1  0  0.110816  0.107366  0  1.041263  0
H  H16  1  0.36671520  0.35113519  0.64463126  1  0  0.110515  0.114555  0  1.014405  0
H  H17  1  0.13329552  0.85112991  0.35537244  1  0  0.110511  0.11459  0  1.014385  0
H  H18  1  0.63328622  0.64886551  0.35536694  1  0  0.110509  0.114563  0  1.014378  0
H  H19  1  0.86670597  0.14886358  0.64463034  1  0  0.110485  0.114489  0  1.014497  0
H  H20  1  0.60697248  0.58504823  0.57171269  1  0  0.102562  0.104618  0  1.022469  0
H  H21  1  0.89302353  0.08504532  0.42828397  1  0  0.102568  0.10461  0  1.02251  0
H  H22  1  0.39302646  0.41495247  0.42828693  1  0  0.10254  0.104574  0  1.022564  0
H  H23  1  0.10698044  0.91495418  0.57171740  1  0  0.102566  0.104615  0  1.022521  0
C  C24  1  0.52673385  0.82102451  0.60753967  1  0  -0.076168  -0.107621  0  3.935529  0
C  C25  1  0.97327572  0.32101498  0.39246419  1  0  -0.076174  -0.107591  0  3.935739  0
C  C26  1  0.47327892  0.17897860  0.39246498  1  0  -0.076158  -0.107529  0  3.935628  0
C  C27  1  0.02672194  0.67897972  0.60753339  1  0  -0.076169  -0.10759  0  3.935851  0
C  C28  1  0.49281698  0.98053123  0.56275649  1  0  0.003666  0.068812  0  3.938283  0
C  C29  1  0.00719355  0.48052366  0.43724515  1  0  0.003608  0.068669  0  3.93846  0
C  C30  1  0.50719327  0.01947187  0.43724683  1  0  0.003648  0.068722  0  3.938408  0
C  C31  1  0.99281041  0.51947344  0.56275530  1  0  0.003643  0.068763  0  3.938475  0
C  C32  1  0.44414854  0.10615442  0.63640312  1  0  -0.013674  -0.132699  0  3.922099  0
C  C33  1  0.05585248  0.60614346  0.36359944  1  0  -0.013598  -0.132583  0  3.922182  0
C  C34  1  0.55585042  0.89384508  0.36359741  1  0  -0.013654  -0.13272  0  3.922155  0
C  C35  1  0.94414148  0.39385364  0.63640118  1  0  -0.013642  -0.132743  0  3.922128  0
C  C36  1  0.40794044  0.25867541  0.58821485  1  0  -0.0829  -0.086288  0  3.993336  0
C  C37  1  0.09206159  0.75867201  0.41178506  1  0  -0.082932  -0.08641  0  3.993325  0
C  C38  1  0.59205977  0.74132409  0.41178589  1  0  -0.082903  -0.086277  0  3.993376  0
C  C39  1  0.90793107  0.24132508  0.58821260  1  0  -0.08289  -0.08621  0  3.993182  0
C  C40  1  0.57708559  0.70534462  0.53437565  1  0  -0.08563  -0.064063  0  3.99432  0
C  C41  1  0.92292029  0.20534198  0.46562239  1  0  -0.085612  -0.064043  0  3.994288  0
C  C42  1  0.42292213  0.29465728  0.46562542  1  0  -0.085585  -0.064031  0  3.99436  0
C  C43  1  0.07707613  0.79465752  0.53437589  1  0  -0.085601  -0.063995  0  3.994325  0
S  S44  1  0.42826114  0.06889167  0.79378033  1  0  0.497887  1.193763  0  6.213281  0
S  S45  1  0.07174998  0.56888153  0.20622553  1  0  0.497776  1.193632  0  6.213626  0
S  S46  1  0.57174156  0.93111144  0.20621991  1  0  0.497872  1.19379  0  6.21331  0
S  S47  1  0.92824896  0.43111556  0.79377409  1  0  0.497805  1.193731  0  6.213465  0
O  O48  1  0.59352168  0.01500214  0.86515680  1  0  -0.454438  -0.68333  0  2.247615  0
O  O49  1  0.90648217  0.51499382  0.13485539  1  0  -0.454467  -0.683265  0  2.247578  0
O  O50  1  0.40647731  0.98499856  0.13484557  1  0  -0.454453  -0.683294  0  2.247531  0
O  O51  1  0.09351557  0.48500328  0.86514677  1  0  -0.454459  -0.683313  0  2.247449  0
O  O52  1  0.29948594  0.94285930  0.78537178  1  0  -0.394483  -0.647901  0  2.294809  0
O  O53  1  0.20052207  0.44285013  0.21462558  1  0  -0.394366  -0.64783  0  2.295234  0
O  O54  1  0.70051547  0.05714381  0.21462550  1  0  -0.394463  -0.647917  0  2.294955  0
O  O55  1  0.79947684  0.55714696  0.78537221  1  0  -0.394354  -0.647795  0  2.295179  0
O  O56  1  0.37676905  0.22137591  0.84272678  1  0  -0.410682  -0.678019  0  2.281866  0
O  O57  1  0.12323686  0.72136633  0.15727815  1  0  -0.410649  -0.678  0  2.28187  0
O  O58  1  0.62323490  0.77862600  0.15727367  1  0  -0.410668  -0.677999  0  2.281799  0
O  O59  1  0.87675959  0.27863197  0.84272197  1  0  -0.410679  -0.678031  0  2.281802  0
O  O60  1  0.00756873  0.96563669  0.85596438  1  0  -0.702466  -0.856659  0  1.932429  0
O  O61  1  0.49243174  0.46563670  0.14403185  1  0  -0.702504  -0.856688  0  1.932402  0
O  O62  1  0.99242898  0.03436281  0.14403594  1  0  -0.702443  -0.856605  0  1.93247  0
O  O63  1  0.50756339  0.53436881  0.85596348  1  0  -0.702488  -0.856663  0  1.932526  0
