# generated using pymatgen
data_ZnNiH12(C7N4)2
_symmetry_space_group_name_H-M   'P 1'
_cell_length_a   7.52112082
_cell_length_b   9.60602686
_cell_length_c   24.79598732
_cell_angle_alpha   85.72575426
_cell_angle_beta   81.27174916
_cell_angle_gamma   66.92440385
_symmetry_Int_Tables_number   1
_chemical_formula_structural   ZnNiH12(C7N4)2
_chemical_formula_sum   'Zn4 Ni4 H48 C56 N32'
_cell_volume   1628.81524266
_cell_formula_units_Z   4
loop_
 _symmetry_equiv_pos_site_id
 _symmetry_equiv_pos_as_xyz
  1  'x, y, z'
loop_
 _atom_site_type_symbol
 _atom_site_label
 _atom_site_symmetry_multiplicity
 _atom_site_fract_x
 _atom_site_fract_y
 _atom_site_fract_z
 _atom_site_occupancy
 _atom_site_hle17_bader_spin_density
 _atom_site_hle17_ddec_charge
 _atom_site_hle17_ddec_spin_density
 _atom_site_hle17_ddec_sum_bond_order
 _atom_site_hle17_magmom
 _atom_site_hse06_10hf_bader_spin_density
 _atom_site_hse06_10hf_ddec_charge
 _atom_site_hse06_10hf_ddec_spin_density
 _atom_site_hse06_10hf_ddec_sum_bond_order
 _atom_site_hse06_10hf_magmom
 _atom_site_hse06_bader_spin_density
 _atom_site_hse06_ddec_charge
 _atom_site_hse06_ddec_spin_density
 _atom_site_hse06_ddec_sum_bond_order
 _atom_site_hse06_magmom
 _atom_site_pbe_bader_spin_density
 _atom_site_pbe_cm5_charge
 _atom_site_pbe_ddec_charge
 _atom_site_pbe_ddec_spin_density
 _atom_site_pbe_ddec_sum_bond_order
 _atom_site_pbe_magmom
Zn  Zn0  1  0.00267312  0.25000638  0.74996908  1  0  0.969135  0  2.073582  0  0  0.788337  0  2.539586  0  0  0.828276  0  2.496625  0  0  0.741049  0.760906  0  2.569288  0
Zn  Zn1  1  0.99732813  0.74999567  0.25003077  1  0  0.969003  0  2.073714  0  0  0.788187  0  2.539725  0  0  0.828134  0  2.496761  0  0  0.740986  0.760752  0  2.569418  0
Zn  Zn2  1  0.99999826  0.99999960  0.00000039  1  0  0.970568  0  2.069184  0  0  0.789178  0  2.535276  0  0  0.829337  0  2.492144  0  0  0.740711  0.761595  0  2.565125  0
Zn  Zn3  1  0.00000074  0.50000107  0.49999888  1  0  0.969494  0  2.072318  0  0  0.788177  0  2.538641  0  0  0.828341  0  2.495528  0  0  0.740397  0.760619  0  2.568414  0
Ni  Ni4  1  0.50058836  0.12781659  0.87539999  1  0  0.129637  0  3.352902  0  0  0.142639  0  3.817327  0  0  0.154861  0  3.764193  0  0  0.410225  0.140875  0  3.851504  0
Ni  Ni5  1  0.50383935  0.37225314  0.62452744  1  0  0.129351  0  3.354118  0  0  0.141672  0  3.819177  0  0  0.153692  0  3.766251  0  0  0.410012  0.139894  0  3.853241  0
Ni  Ni6  1  0.49940727  0.87218549  0.12459875  1  0  0.129866  0  3.352826  0  0  0.142761  0  3.817184  0  0  0.154943  0  3.764038  0  0  0.410248  0.140961  0  3.851345  0
Ni  Ni7  1  0.49616182  0.62774554  0.37547150  1  0  0.129289  0  3.354105  0  0  0.14159  0  3.819129  0  0  0.153608  0  3.766185  0  0  0.409972  0.139792  0  3.853206  0
H  H8  1  0.93395880  0.26892519  0.87717160  1  0  0.066316  0  0.94637  0  0  0.071552  0  1.01555  0  0  0.07237  0  1.015354  0  0  0.124758  0.071077  0  1.015504  0
H  H9  1  0.08017193  0.23097112  0.62277670  1  0  0.066288  0  0.946475  0  0  0.071972  0  1.01504  0  0  0.072877  0  1.014692  0  0  0.125054  0.071492  0  1.015028  0
H  H10  1  0.06603606  0.73107007  0.12282866  1  0  0.066356  0  0.946354  0  0  0.071567  0  1.015543  0  0  0.072399  0  1.015334  0  0  0.124773  0.07109  0  1.015502  0
H  H11  1  0.91983206  0.76902980  0.37722369  1  0  0.06633  0  0.946467  0  0  0.071974  0  1.015061  0  0  0.072879  0  1.014713  0  0  0.125067  0.071496  0  1.015052  0
H  H12  1  0.16836695  0.65188503  0.99397449  1  0  0.0922  0  0.939516  0  0  0.092589  0  1.015386  0  0  0.096454  0  1.010432  0  0  0.119673  0.089863  0  1.018751  0
H  H13  1  0.81389630  0.84776308  0.50593161  1  0  0.091965  0  0.939757  0  0  0.092449  0  1.015721  0  0  0.09633  0  1.010736  0  0  0.119514  0.089713  0  1.019111  0
H  H14  1  0.83163785  0.34811250  0.00602544  1  0  0.092217  0  0.939448  0  0  0.092605  0  1.015316  0  0  0.096473  0  1.010363  0  0  0.11968  0.089874  0  1.018683  0
H  H15  1  0.18610725  0.15224354  0.49406634  1  0  0.091951  0  0.939811  0  0  0.092436  0  1.015746  0  0  0.096318  0  1.010758  0  0  0.119477  0.089704  0  1.019134  0
H  H16  1  0.82264316  0.59776909  0.75398772  1  0  0.090145  0  0.946108  0  0  0.090148  0  1.023578  0  0  0.094152  0  1.018423  0  0  0.118272  0.087371  0  1.026978  0
H  H17  1  0.17416052  0.90227103  0.74600718  1  0  0.090083  0  0.945687  0  0  0.08954  0  1.023493  0  0  0.093642  0  1.018275  0  0  0.117969  0.086713  0  1.026935  0
H  H18  1  0.17736357  0.40223517  0.24601498  1  0  0.090201  0  0.945963  0  0  0.090147  0  1.023486  0  0  0.094152  0  1.018328  0  0  0.118261  0.087373  0  1.026892  0
H  H19  1  0.82583905  0.09773102  0.25399301  1  0  0.090027  0  0.945615  0  0  0.089488  0  1.023429  0  0  0.093591  0  1.01821  0  0  0.117961  0.086662  0  1.026868  0
H  H20  1  0.68440845  0.80115949  0.82535787  1  0  0.119054  0  0.949477  0  0  0.126648  0  1.013632  0  0  0.130437  0  1.01201  0  0  0.109892  0.123838  0  1.015185  0
H  H21  1  0.31020617  0.69882381  0.67466908  1  0  0.118976  0  0.949495  0  0  0.126603  0  1.013618  0  0  0.130445  0  1.011903  0  0  0.109733  0.123761  0  1.015217  0
H  H22  1  0.31558989  0.19883792  0.17464724  1  0  0.11905  0  0.949534  0  0  0.126639  0  1.013702  0  0  0.130428  0  1.012075  0  0  0.109905  0.123819  0  1.015262  0
H  H23  1  0.68978691  0.30117595  0.32533203  1  0  0.119039  0  0.949504  0  0  0.126662  0  1.013617  0  0  0.130502  0  1.011905  0  0  0.109787  0.123822  0  1.015217  0
H  H24  1  0.30471554  0.45139031  0.92154718  1  0  0.118862  0  0.949593  0  0  0.126306  0  1.013878  0  0  0.130236  0  1.011965  0  0  0.109731  0.123383  0  1.015639  0
H  H25  1  0.67753999  0.04845994  0.57829128  1  0  0.119477  0  0.948916  0  0  0.126916  0  1.013202  0  0  0.130837  0  1.01129  0  0  0.110146  0.124056  0  1.014883  0
H  H26  1  0.69529494  0.54860948  0.07845265  1  0  0.118886  0  0.949483  0  0  0.126334  0  1.013772  0  0  0.130266  0  1.011866  0  0  0.109724  0.12341  0  1.015531  0
H  H27  1  0.32246865  0.95154099  0.42170848  1  0  0.119542  0  0.948815  0  0  0.12696  0  1.013126  0  0  0.130881  0  1.011216  0  0  0.110154  0.124104  0  1.014802  0
H  H28  1  0.07368417  0.98552569  0.87258338  1  0  0.065713  0  0.948119  0  0  0.071256  0  1.016888  0  0  0.072049  0  1.01663  0  0  0.124789  0.070819  0  1.016857  0
H  H29  1  0.93249835  0.51438576  0.62740721  1  0  0.06593  0  0.94807  0  0  0.071669  0  1.016425  0  0  0.072498  0  1.016143  0  0  0.124712  0.071224  0  1.016408  0
H  H30  1  0.92631413  0.01447296  0.12741711  1  0  0.065735  0  0.948087  0  0  0.071272  0  1.016869  0  0  0.072065  0  1.016611  0  0  0.124791  0.070833  0  1.016841  0
H  H31  1  0.06750152  0.48561525  0.37258918  1  0  0.065948  0  0.948102  0  0  0.071673  0  1.016486  0  0  0.072503  0  1.016205  0  0  0.124759  0.07123  0  1.016471  0
H  H32  1  0.31722915  0.57070858  0.77052203  1  0  0.128419  0  0.938428  0  0  0.150001  0  0.995262  0  0  0.151729  0  0.994633  0  0  0.098454  0.148826  0  0.995628  0
H  H33  1  0.65841212  0.92959561  0.72935534  1  0  0.128455  0  0.938235  0  0  0.149947  0  0.99492  0  0  0.151695  0  0.994298  0  0  0.098322  0.148694  0  0.995381  0
H  H34  1  0.68276544  0.42929574  0.22947798  1  0  0.128345  0  0.938379  0  0  0.149925  0  0.995229  0  0  0.151653  0  0.994601  0  0  0.09842  0.148752  0  0.995596  0
H  H35  1  0.34158648  0.07040308  0.27064348  1  0  0.128445  0  0.938208  0  0  0.149939  0  0.994892  0  0  0.15169  0  0.994267  0  0  0.098315  0.148683  0  0.995346  0
H  H36  1  0.27137287  0.42767062  0.81342621  1  0  0.127685  0  0.956497  0  0  0.14588  0  1.022268  0  0  0.146604  0  1.023155  0  0  0.096537  0.145493  0  1.021514  0
H  H37  1  0.51251402  0.07241816  0.68632461  1  0  0.127188  0  0.957332  0  0  0.145547  0  1.022773  0  0  0.146275  0  1.023656  0  0  0.096423  0.144944  0  1.022316  0
H  H38  1  0.72862341  0.57233030  0.18657380  1  0  0.127668  0  0.956634  0  0  0.145883  0  1.022372  0  0  0.146614  0  1.023256  0  0  0.09653  0.145495  0  1.021621  0
H  H39  1  0.48748353  0.92758167  0.31367333  1  0  0.127177  0  0.957339  0  0  0.145529  0  1.022787  0  0  0.146256  0  1.02367  0  0  0.09642  0.144918  0  1.022338  0
H  H40  1  0.49722407  0.44527426  0.80944404  1  0  0.130978  0  0.951723  0  0  0.150998  0  1.013873  0  0  0.151393  0  1.015605  0  0  0.098619  0.150674  0  1.012764  0
H  H41  1  0.75191212  0.05488836  0.69037750  1  0  0.130625  0  0.95245  0  0  0.149905  0  1.015603  0  0  0.150354  0  1.017292  0  0  0.09838  0.149735  0  1.014201  0
H  H42  1  0.50277388  0.55472558  0.19055350  1  0  0.131002  0  0.951713  0  0  0.151041  0  1.013821  0  0  0.151441  0  1.015548  0  0  0.098653  0.150709  0  1.012721  0
H  H43  1  0.24808770  0.94511143  0.30962224  1  0  0.130646  0  0.952417  0  0  0.149917  0  1.015571  0  0  0.150374  0  1.017253  0  0  0.098382  0.149743  0  1.014173  0
H  H44  1  0.69725971  0.68931744  0.97651468  1  0  0.129139  0  0.937622  0  0  0.150876  0  0.993642  0  0  0.152632  0  0.993088  0  0  0.098402  0.149659  0  0.993996  0
H  H45  1  0.36286675  0.81032717  0.52350016  1  0  0.129786  0  0.937498  0  0  0.151561  0  0.993424  0  0  0.153304  0  0.99288  0  0  0.098872  0.150337  0  0.993806  0
H  H46  1  0.30273229  0.31067547  0.02348961  1  0  0.129097  0  0.937667  0  0  0.150846  0  0.993671  0  0  0.152617  0  0.993102  0  0  0.098392  0.149625  0  0.994029  0
H  H47  1  0.63714110  0.18967033  0.47650077  1  0  0.129781  0  0.93752  0  0  0.151535  0  0.993462  0  0  0.153279  0  0.992919  0  0  0.09886  0.150312  0  0.993847  0
H  H48  1  0.50138555  0.80350910  0.94055086  1  0  0.131558  0  0.950877  0  0  0.151941  0  1.011999  0  0  0.152301  0  1.013977  0  0  0.099016  0.151681  0  1.010654  0
H  H49  1  0.24527424  0.69624761  0.55952074  1  0  0.131918  0  0.951362  0  0  0.152663  0  1.01209  0  0  0.153005  0  1.014108  0  0  0.099259  0.152587  0  1.010438  0
H  H50  1  0.49860756  0.19648495  0.05945309  1  0  0.131571  0  0.950787  0  0  0.151995  0  1.011889  0  0  0.15236  0  1.013861  0  0  0.09902  0.151733  0  1.010546  0
H  H51  1  0.75473144  0.30374991  0.44047966  1  0  0.131935  0  0.95136  0  0  0.152651  0  1.012113  0  0  0.153007  0  1.014118  0  0  0.099242  0.152577  0  1.010456  0
H  H52  1  0.71888138  0.83590638  0.93063433  1  0  0.123888  0  0.959294  0  0  0.141494  0  1.027124  0  0  0.142493  0  1.027263  0  0  0.094849  0.140834  0  1.027019  0
H  H53  1  0.48529023  0.66389380  0.56942328  1  0  0.12482  0  0.958875  0  0  0.142349  0  1.026763  0  0  0.143417  0  1.026798  0  0  0.094996  0.141484  0  1.026918  0
H  H54  1  0.28111078  0.16408539  0.06937037  1  0  0.12389  0  0.959221  0  0  0.141568  0  1.026953  0  0  0.142573  0  1.027084  0  0  0.094873  0.140908  0  1.026847  0
H  H55  1  0.51471306  0.33610707  0.43057919  1  0  0.124796  0  0.958878  0  0  0.142329  0  1.026739  0  0  0.143394  0  1.02678  0  0  0.09498  0.141464  0  1.026895  0
C  C56  1  0.87786892  0.38851617  0.86569020  1  0  0.297923  0  3.723749  0  0  0.250763  0  3.995714  0  0  0.264368  0  4.010305  0  0  0.178413  0.241822  0  3.985229  0
C  C57  1  0.13207120  0.11136183  0.63425752  1  0  0.298727  0  3.722369  0  0  0.251661  0  3.994242  0  0  0.265245  0  4.008821  0  0  0.17906  0.242735  0  3.983713  0
C  C58  1  0.12212643  0.61147907  0.13431093  1  0  0.297889  0  3.723751  0  0  0.250775  0  3.995696  0  0  0.264371  0  4.010282  0  0  0.178472  0.241836  0  3.985223  0
C  C59  1  0.86793062  0.88863909  0.36574234  1  0  0.298685  0  3.722477  0  0  0.251649  0  3.994332  0  0  0.26524  0  4.008912  0  0  0.179041  0.242723  0  3.983809  0
C  C60  1  0.70420985  0.12551568  0.82389549  1  0  0.083302  0  3.474516  0  0  0.052707  0  3.808554  0  0  0.060669  0  3.810872  0  0  0.025613  0.045056  0  3.807623  0
C  C61  1  0.65350482  0.37480073  0.67603932  1  0  0.082472  0  3.475457  0  0  0.052054  0  3.809524  0  0  0.060058  0  3.811836  0  0  0.025684  0.044526  0  3.808132  0
C  C62  1  0.29578522  0.87448862  0.17610539  1  0  0.083289  0  3.474422  0  0  0.052714  0  3.808432  0  0  0.060686  0  3.810737  0  0  0.025604  0.045069  0  3.807492  0
C  C63  1  0.34650131  0.62519800  0.32395732  1  0  0.082497  0  3.475531  0  0  0.052088  0  3.809573  0  0  0.06009  0  3.811885  0  0  0.025734  0.044565  0  3.808182  0
C  C64  1  0.64935389  0.13236229  0.92692346  1  0  0.078738  0  3.479622  0  0  0.04881  0  3.812697  0  0  0.056727  0  3.814972  0  0  0.024363  0.041308  0  3.811354  0
C  C65  1  0.70874338  0.36763689  0.57302604  1  0  0.081085  0  3.47666  0  0  0.051497  0  3.809403  0  0  0.059449  0  3.811769  0  0  0.02542  0.043887  0  3.808447  0
C  C66  1  0.35063767  0.86763524  0.07307626  1  0  0.078685  0  3.479496  0  0  0.048771  0  3.812556  0  0  0.056695  0  3.814822  0  0  0.024339  0.041275  0  3.811209  0
C  C67  1  0.29125729  0.63236073  0.42696989  1  0  0.080982  0  3.47683  0  0  0.051385  0  3.809576  0  0  0.059342  0  3.811937  0  0  0.025321  0.043778  0  3.80862  0
C  C68  1  0.35212664  0.12351510  0.82378080  1  0  0.079611  0  3.473128  0  0  0.049484  0  3.807294  0  0  0.057426  0  3.809307  0  0  0.025776  0.041945  0  3.806125  0
C  C69  1  0.29945604  0.37643501  0.67612041  1  0  0.080773  0  3.477507  0  0  0.050897  0  3.811395  0  0  0.058924  0  3.813505  0  0  0.026406  0.043161  0  3.810776  0
C  C70  1  0.64786399  0.87649265  0.17621740  1  0  0.079638  0  3.47295  0  0  0.049532  0  3.807095  0  0  0.057484  0  3.809095  0  0  0.025799  0.042001  0  3.805919  0
C  C71  1  0.70055204  0.62356364  0.32387971  1  0  0.080778  0  3.477538  0  0  0.050917  0  3.811392  0  0  0.058942  0  3.813499  0  0  0.02641  0.043188  0  3.810765  0
C  C72  1  0.29789779  0.12760593  0.92688286  1  0  0.081736  0  3.474161  0  0  0.051434  0  3.80779  0  0  0.059316  0  3.810229  0  0  0.025836  0.043826  0  3.806813  0
C  C73  1  0.35275465  0.37215706  0.57299604  1  0  0.081836  0  3.47409  0  0  0.051598  0  3.807924  0  0  0.059487  0  3.810368  0  0  0.026227  0.044168  0  3.806402  0
C  C74  1  0.70210540  0.87239048  0.07311655  1  0  0.081614  0  3.474393  0  0  0.051335  0  3.807975  0  0  0.059225  0  3.810404  0  0  0.025835  0.043737  0  3.806991  0
C  C75  1  0.64724411  0.62784389  0.42700283  1  0  0.081853  0  3.47416  0  0  0.05162  0  3.807983  0  0  0.059508  0  3.810427  0  0  0.026168  0.044192  0  3.806459  0
C  C76  1  0.17824380  0.68080100  0.95039883  1  0  0.186816  0  3.659689  0  0  0.155186  0  3.907313  0  0  0.165732  0  3.92282  0  0  0.067782  0.148652  0  3.89613  0
C  C77  1  0.80940556  0.81897231  0.54952303  1  0  0.187164  0  3.658262  0  0  0.155139  0  3.906612  0  0  0.165683  0  3.922124  0  0  0.06801  0.148628  0  3.895421  0
C  C78  1  0.82176390  0.31919424  0.04960204  1  0  0.186897  0  3.659677  0  0  0.155266  0  3.90727  0  0  0.165808  0  3.922783  0  0  0.067823  0.148731  0  3.89609  0
C  C79  1  0.19059913  0.18103205  0.45047492  1  0  0.187171  0  3.658398  0  0  0.155187  0  3.90669  0  0  0.165733  0  3.922201  0  0  0.068102  0.148675  0  3.895502  0
C  C80  1  0.81594276  0.57054627  0.79771380  1  0  0.187874  0  3.659837  0  0  0.155405  0  3.908157  0  0  0.165992  0  3.923486  0  0  0.06723  0.148855  0  3.897135  0
C  C81  1  0.18392860  0.92944250  0.70227076  1  0  0.188712  0  3.658394  0  0  0.157393  0  3.906253  0  0  0.167871  0  3.921553  0  0  0.068121  0.150884  0  3.895246  0
C  C82  1  0.18405892  0.42945348  0.20228815  1  0  0.187784  0  3.659682  0  0  0.155382  0  3.908017  0  0  0.16597  0  3.923341  0  0  0.067239  0.148829  0  3.897003  0
C  C83  1  0.81607114  0.07055841  0.29772984  1  0  0.188821  0  3.658216  0  0  0.157495  0  3.906071  0  0  0.167979  0  3.921371  0  0  0.068142  0.150985  0  3.895057  0
C  C84  1  0.74043385  0.68157597  0.83706330  1  0  -0.223561  0  3.657584  0  0  -0.234588  0  3.893819  0  0  -0.247845  0  3.916521  0  0  -0.081759  -0.22579  0  3.878393  0
C  C85  1  0.25853865  0.81838208  0.66293711  1  0  -0.224009  0  3.656684  0  0  -0.234949  0  3.892844  0  0  -0.248236  0  3.915531  0  0  -0.081754  -0.226086  0  3.877359  0
C  C86  1  0.25956400  0.31842146  0.16294094  1  0  -0.223508  0  3.657734  0  0  -0.234578  0  3.893888  0  0  -0.247843  0  3.916606  0  0  -0.081758  -0.225769  0  3.878469  0
C  C87  1  0.74145907  0.18162110  0.33706302  1  0  -0.224117  0  3.656643  0  0  -0.235059  0  3.892818  0  0  -0.248344  0  3.9155  0  0  -0.08182  -0.226195  0  3.877333  0
C  C88  1  0.25308624  0.57140025  0.91046382  1  0  -0.222222  0  3.657276  0  0  -0.232882  0  3.893563  0  0  -0.246177  0  3.916228  0  0  -0.080901  -0.224019  0  3.878128  0
C  C89  1  0.73509758  0.92848814  0.58941718  1  0  -0.222708  0  3.656942  0  0  -0.233728  0  3.893318  0  0  -0.247013  0  3.916064  0  0  -0.081794  -0.224876  0  3.877765  0
C  C90  1  0.74691906  0.42859385  0.08953734  1  0  -0.222314  0  3.657363  0  0  -0.232951  0  3.893671  0  0  -0.246268  0  3.916328  0  0  -0.080953  -0.224082  0  3.878226  0
C  C91  1  0.26491097  0.07151282  0.41058131  1  0  -0.222794  0  3.656918  0  0  -0.233788  0  3.893278  0  0  -0.247073  0  3.916021  0  0  -0.081848  -0.224936  0  3.877723  0
C  C92  1  0.12580251  0.86551744  0.88343452  1  0  0.29889  0  3.720485  0  0  0.251559  0  3.992569  0  0  0.265218  0  4.007238  0  0  0.179739  0.242599  0  3.982008  0
C  C93  1  0.87537453  0.63438414  0.61654025  1  0  0.297771  0  3.723789  0  0  0.250647  0  3.995732  0  0  0.26428  0  4.010453  0  0  0.178924  0.241674  0  3.985159  0
C  C94  1  0.87420293  0.13448234  0.11656633  1  0  0.298801  0  3.720551  0  0  0.251461  0  3.99263  0  0  0.265119  0  4.007298  0  0  0.179678  0.242502  0  3.982071  0
C  C95  1  0.12462678  0.36561572  0.38345660  1  0  0.297669  0  3.723825  0  0  0.250549  0  3.995809  0  0  0.26418  0  4.010533  0  0  0.178856  0.241577  0  3.985239  0
C  C96  1  0.26055733  0.61934834  0.85552564  1  0  0.358531  0  3.713246  0  0  0.362909  0  3.962406  0  0  0.375116  0  3.980318  0  0  0.140529  0.354804  0  3.950205  0
C  C97  1  0.73581401  0.88062389  0.64437188  1  0  0.356536  0  3.715175  0  0  0.362095  0  3.962673  0  0  0.374215  0  3.980751  0  0  0.139946  0.35404  0  3.950353  0
C  C98  1  0.73945163  0.38065370  0.14447459  1  0  0.358534  0  3.713423  0  0  0.36282  0  3.962722  0  0  0.375068  0  3.980574  0  0  0.140548  0.354716  0  3.950517  0
C  C99  1  0.26419141  0.11937479  0.35562683  1  0  0.356611  0  3.715013  0  0  0.36213  0  3.962545  0  0  0.374253  0  3.980616  0  0  0.140004  0.354074  0  3.950217  0
C  C100  1  0.34008245  0.51043624  0.80967446  1  0  -0.382932  0  3.679078  0  0  -0.464551  0  3.912785  0  0  -0.467644  0  3.920001  0  0  -0.239124  -0.46233  0  3.907569  0
C  C101  1  0.66028081  0.98969255  0.69016585  1  0  -0.381139  0  3.680305  0  0  -0.462392  0  3.913057  0  0  -0.465504  0  3.920301  0  0  -0.238468  -0.460132  0  3.907907  0
C  C102  1  0.65991695  0.48956695  0.19032533  1  0  -0.382862  0  3.679126  0  0  -0.464483  0  3.91283  0  0  -0.467595  0  3.920027  0  0  -0.239112  -0.462262  0  3.907627  0
C  C103  1  0.33971924  0.01030499  0.30983343  1  0  -0.381184  0  3.680221  0  0  -0.462403  0  3.912972  0  0  -0.465524  0  3.920209  0  0  -0.238467  -0.460138  0  3.907829  0
C  C104  1  0.73881341  0.63589891  0.89224103  1  0  0.357564  0  3.713987  0  0  0.363202  0  3.961659  0  0  0.375314  0  3.979744  0  0  0.140223  0.355149  0  3.949332  0
C  C105  1  0.26663345  0.86399804  0.60774736  1  0  0.358574  0  3.712515  0  0  0.363577  0  3.96123  0  0  0.375682  0  3.979302  0  0  0.140379  0.355553  0  3.948892  0
C  C106  1  0.26117810  0.36409402  0.10776239  1  0  0.357505  0  3.714072  0  0  0.363263  0  3.961588  0  0  0.375373  0  3.979678  0  0  0.140204  0.355211  0  3.94926  0
C  C107  1  0.73336669  0.13600288  0.39225284  1  0  0.358658  0  3.712377  0  0  0.363652  0  3.961091  0  0  0.375756  0  3.979167  0  0  0.14039  0.355628  0  3.948753  0
C  C108  1  0.66084887  0.74661152  0.93750423  1  0  -0.379442  0  3.67934  0  0  -0.461363  0  3.912121  0  0  -0.464521  0  3.919298  0  0  -0.238484  -0.459092  0  3.906991  0
C  C109  1  0.34472101  0.75316219  0.56252934  1  0  -0.381913  0  3.68028  0  0  -0.464204  0  3.913459  0  0  -0.467375  0  3.920622  0  0  -0.239774  -0.461923  0  3.908315  0
C  C110  1  0.33914553  0.25338252  0.06249978  1  0  -0.379451  0  3.679165  0  0  -0.461506  0  3.911883  0  0  -0.464684  0  3.919043  0  0  -0.238494  -0.45923  0  3.906753  0
C  C111  1  0.65528291  0.24683643  0.43747226  1  0  -0.381943  0  3.680219  0  0  -0.464193  0  3.913426  0  0  -0.467376  0  3.920576  0  0  -0.239761  -0.461912  0  3.908281  0
N  N112  1  0.88531668  0.42255134  0.81213724  1  0  -0.374449  0  3.262051  0  0  -0.295817  0  3.523227  0  0  -0.317574  0  3.540225  0  0  -0.319438  -0.28039  0  3.510846  0
N  N113  1  0.11995179  0.07741673  0.68782501  1  0  -0.375598  0  3.260899  0  0  -0.297948  0  3.522969  0  0  -0.319703  0  3.53999  0  0  -0.320748  -0.282453  0  3.510518  0
N  N114  1  0.11468539  0.57744841  0.18786430  1  0  -0.374439  0  3.261937  0  0  -0.295842  0  3.523123  0  0  -0.317601  0  3.540128  0  0  -0.319491  -0.280421  0  3.510747  0
N  N115  1  0.88005020  0.92258305  0.31217525  1  0  -0.375613  0  3.260944  0  0  -0.297936  0  3.522968  0  0  -0.319706  0  3.540006  0  0  -0.320736  -0.282437  0  3.510511  0
N  N116  1  0.11401807  0.82937702  0.93680792  1  0  -0.373741  0  3.256286  0  0  -0.295968  0  3.518239  0  0  -0.317675  0  3.535199  0  0  -0.319515  -0.280558  0  3.505866  0
N  N117  1  0.88042530  0.67044469  0.56316054  1  0  -0.372872  0  3.257601  0  0  -0.295182  0  3.519714  0  0  -0.316921  0  3.536743  0  0  -0.319157  -0.279721  0  3.50726  0
N  N118  1  0.88598382  0.17062279  0.06319107  1  0  -0.37379  0  3.256262  0  0  -0.295993  0  3.518182  0  0  -0.3177  0  3.535143  0  0  -0.319519  -0.280587  0  3.505813  0
N  N119  1  0.11957681  0.32955967  0.43683730  1  0  -0.372795  0  3.257634  0  0  -0.295158  0  3.519781  0  0  -0.316898  0  3.536812  0  0  -0.319115  -0.27969  0  3.507326  0
N  N120  1  0.16734589  0.11889707  0.95738551  1  0  -0.421283  0  3.016451  0  0  -0.359361  0  3.31232  0  0  -0.377099  0  3.324495  0  0  -0.352342  -0.34708  0  3.304407  0
N  N121  1  0.24413645  0.38073053  0.54247261  1  0  -0.421637  0  3.017417  0  0  -0.359608  0  3.31323  0  0  -0.377371  0  3.325385  0  0  -0.352785  -0.347735  0  3.305202  0
N  N122  1  0.83265161  0.88110156  0.04261578  1  0  -0.421218  0  3.016606  0  0  -0.359295  0  3.312465  0  0  -0.377033  0  3.324639  0  0  -0.352356  -0.347014  0  3.304544  0
N  N123  1  0.75585595  0.61927721  0.45752652  1  0  -0.421673  0  3.017438  0  0  -0.359635  0  3.31322  0  0  -0.377395  0  3.325376  0  0  -0.352728  -0.347763  0  3.305196  0
N  N124  1  0.24511771  0.12940986  0.79311305  1  0  -0.419749  0  3.010216  0  0  -0.358348  0  3.305832  0  0  -0.375885  0  3.317779  0  0  -0.35258  -0.346614  0  3.297945  0
N  N125  1  0.16765797  0.37048935  0.70678022  1  0  -0.421255  0  3.013786  0  0  -0.360065  0  3.309333  0  0  -0.377594  0  3.321268  0  0  -0.353327  -0.348027  0  3.301707  0
N  N126  1  0.75487613  0.87059564  0.20688441  1  0  -0.419752  0  3.009921  0  0  -0.358352  0  3.305543  0  0  -0.37589  0  3.317488  0  0  -0.352567  -0.346616  0  3.297651  0
N  N127  1  0.83234056  0.62951045  0.29321946  1  0  -0.421206  0  3.013877  0  0  -0.360013  0  3.309406  0  0  -0.377543  0  3.321344  0  0  -0.353312  -0.34797  0  3.30177  0
N  N128  1  0.75707857  0.12560150  0.95750352  1  0  -0.420747  0  3.014152  0  0  -0.359255  0  3.308546  0  0  -0.376818  0  3.320382  0  0  -0.35261  -0.347542  0  3.30081  0
N  N129  1  0.84039865  0.37430098  0.54247156  1  0  -0.42253  0  3.012845  0  0  -0.361174  0  3.307029  0  0  -0.378704  0  3.318848  0  0  -0.3531  -0.349122  0  3.299407  0
N  N130  1  0.24291419  0.87439715  0.04249712  1  0  -0.420731  0  3.014045  0  0  -0.359251  0  3.308472  0  0  -0.376812  0  3.320305  0  0  -0.352584  -0.347538  0  3.300738  0
N  N131  1  0.15960049  0.62569890  0.45752477  1  0  -0.422425  0  3.012959  0  0  -0.361073  0  3.307166  0  0  -0.378602  0  3.318983  0  0  -0.353019  -0.349016  0  3.299541  0
N  N132  1  0.83643615  0.13072768  0.79325233  1  0  -0.422363  0  3.015799  0  0  -0.360604  0  3.311094  0  0  -0.37819  0  3.323074  0  0  -0.352742  -0.348446  0  3.303315  0
N  N133  1  0.76035412  0.36951319  0.70667488  1  0  -0.421526  0  3.015019  0  0  -0.359909  0  3.310584  0  0  -0.377582  0  3.322637  0  0  -0.353019  -0.348105  0  3.302639  0
N  N134  1  0.16355780  0.86927888  0.20674853  1  0  -0.422395  0  3.015786  0  0  -0.360626  0  3.311076  0  0  -0.378212  0  3.323051  0  0  -0.352729  -0.348461  0  3.303288  0
N  N135  1  0.23965435  0.63048099  0.29332304  1  0  -0.421468  0  3.015158  0  0  -0.35984  0  3.310697  0  0  -0.377516  0  3.322758  0  0  -0.353022  -0.348036  0  3.30275  0
N  N136  1  0.19555600  0.76827871  0.84238971  1  0  -0.396469  0  2.978573  0  0  -0.358588  0  3.239337  0  0  -0.375227  0  3.252953  0  0  -0.314483  -0.34754  0  3.229608  0
N  N137  1  0.80686896  0.73171507  0.65754835  1  0  -0.395026  0  2.979849  0  0  -0.357571  0  3.240101  0  0  -0.374205  0  3.253809  0  0  -0.313028  -0.346548  0  3.230391  0
N  N138  1  0.80444774  0.23171997  0.15760935  1  0  -0.396397  0  2.97871  0  0  -0.358484  0  3.239496  0  0  -0.375139  0  3.253107  0  0  -0.314448  -0.347441  0  3.22977  0
N  N139  1  0.19313213  0.26828364  0.34244931  1  0  -0.39503  0  2.979745  0  0  -0.357553  0  3.240007  0  0  -0.374188  0  3.253713  0  0  -0.313109  -0.346528  0  3.230295  0
N  N140  1  0.80870475  0.48744257  0.90619320  1  0  -0.397407  0  2.975965  0  0  -0.360991  0  3.236906  0  0  -0.377498  0  3.250479  0  0  -0.315496  -0.349999  0  3.227228  0
N  N141  1  0.20228960  0.01242353  0.59377017  1  0  -0.397695  0  2.976442  0  0  -0.36111  0  3.237629  0  0  -0.377612  0  3.251173  0  0  -0.315455  -0.350191  0  3.228029  0
N  N142  1  0.19128683  0.51255264  0.09380901  1  0  -0.397348  0  2.97604  0  0  -0.360971  0  3.236907  0  0  -0.377477  0  3.250484  0  0  -0.315511  -0.349982  0  3.227235  0
N  N143  1  0.79771181  0.98757738  0.40623009  1  0  -0.397716  0  2.976465  0  0  -0.361132  0  3.237648  0  0  -0.377635  0  3.251192  0  0  -0.315438  -0.350214  0  3.228052  0
