# generated using pymatgen
data_ZnH13C18N5O4
_symmetry_space_group_name_H-M   'P 1'
_cell_length_a   8.75041639
_cell_length_b   12.97582337
_cell_length_c   17.20170610
_cell_angle_alpha   89.99996854
_cell_angle_beta   89.99995766
_cell_angle_gamma   89.99999632
_symmetry_Int_Tables_number   1
_chemical_formula_structural   ZnH13C18N5O4
_chemical_formula_sum   'Zn4 H52 C72 N20 O16'
_cell_volume   1953.14806580
_cell_formula_units_Z   4
loop_
 _symmetry_equiv_pos_site_id
 _symmetry_equiv_pos_as_xyz
  1  'x, y, z'
loop_
 _atom_site_type_symbol
 _atom_site_label
 _atom_site_symmetry_multiplicity
 _atom_site_fract_x
 _atom_site_fract_y
 _atom_site_fract_z
 _atom_site_occupancy
 _atom_site_pbe_bader_charge
 _atom_site_pbe_bader_spin_density
 _atom_site_pbe_cm5_charge
 _atom_site_pbe_ddec_charge
 _atom_site_pbe_ddec_spin_density
 _atom_site_pbe_ddec_sum_bond_order
 _atom_site_pbe_magmom
Zn  Zn0  1  0.14097101  0.38054282  0.76068607  1  1.251497  0  0.692833  0.665352  0  2.458418  0
Zn  Zn1  1  0.35903070  0.61945731  0.26068616  1  1.25149  0  0.692836  0.665338  0  2.45843  0
Zn  Zn2  1  0.64097160  0.11945667  0.23931333  1  1.251487  0  0.69283  0.66534  0  2.458465  0
Zn  Zn3  1  0.85902940  0.88054345  0.73931353  1  1.251494  0  0.692839  0.665377  0  2.458398  0
H  H4  1  0.35571159  0.01186328  0.85444134  1  0.140806  0  0.114319  0.125098  0  1.020964  0
H  H5  1  0.14428883  0.98813601  0.35443961  1  0.141036  0  0.114315  0.125129  0  1.021062  0
H  H6  1  0.85571229  0.48813697  0.14555914  1  0.140808  0  0.114322  0.125112  0  1.020945  0
H  H7  1  0.64428885  0.51186399  0.64555958  1  0.14083  0  0.114295  0.125075  0  1.021031  0
H  H8  1  0.54909680  0.20512199  0.67537763  1  0.120757  0  0.115263  0.126531  0  1.001358  0
H  H9  1  0.95090316  0.79487741  0.17537703  1  0.120732  0  0.115268  0.12653  0  1.001331  0
H  H10  1  0.04909684  0.29487905  0.32462238  1  0.120723  0  0.115272  0.12654  0  1.001351  0
H  H11  1  0.45090248  0.70512180  0.82462262  1  0.120694  0  0.115276  0.12654  0  1.00132  0
H  H12  1  0.90730878  0.39271801  0.03175299  1  0.126816  0  0.104192  0.10678  0  1.059693  0
H  H13  1  0.59269138  0.60728072  0.53175225  1  0.12681  0  0.104203  0.106785  0  1.059697  0
H  H14  1  0.40730677  0.10728223  0.96824804  1  0.1268  0  0.104214  0.106791  0  1.059679  0
H  H15  1  0.09269235  0.89271851  0.46824754  1  0.126824  0  0.104204  0.106794  0  1.059688  0
H  H16  1  0.94495672  0.58748149  0.78713674  1  0.109766  0  0.11761  0.091581  0  0.99533  0
H  H17  1  0.55504079  0.41251783  0.28713645  1  0.109975  0  0.117627  0.091595  0  0.995307  0
H  H18  1  0.44496034  0.91251696  0.21286350  1  0.109744  0  0.117606  0.091579  0  0.995296  0
H  H19  1  0.05504029  0.08748320  0.71286356  1  0.109743  0  0.117621  0.091606  0  0.995264  0
H  H20  1  0.78245186  0.56615441  0.02320150  1  0.146797  0  0.107349  0.11331  0  1.030902  0
H  H21  1  0.71754717  0.43384509  0.52320137  1  0.146799  0  0.107344  0.113329  0  1.030891  0
H  H22  1  0.28245209  0.93384635  0.97679879  1  0.146798  0  0.107345  0.113294  0  1.03094  0
H  H23  1  0.21754816  0.06615439  0.47679858  1  0.146793  0  0.107343  0.113294  0  1.030933  0
H  H24  1  0.58324359  0.89540721  0.83903625  1  0.116381  0  0.123907  0.10407  0  0.989127  0
H  H25  1  0.91675612  0.10459283  0.33903536  1  0.116384  0  0.123906  0.104074  0  0.989122  0
H  H26  1  0.08324275  0.60459356  0.16096354  1  0.116373  0  0.123899  0.104048  0  0.989138  0
H  H27  1  0.41675795  0.39540741  0.66096393  1  0.116388  0  0.123904  0.104065  0  0.989133  0
H  H28  1  0.80155317  0.66580018  0.89732408  1  0.123309  0  0.110422  0.127054  0  1.000947  0
H  H29  1  0.69844532  0.33419829  0.39732376  1  0.123287  0  0.110407  0.127053  0  1.000953  0
H  H30  1  0.30155468  0.83419827  0.10267563  1  0.123288  0  0.110408  0.127038  0  1.000963  0
H  H31  1  0.19844611  0.16580197  0.60267561  1  0.12328  0  0.110404  0.127037  0  1.000937  0
H  H32  1  0.76791611  0.08338713  0.66805625  1  0.112455  0  0.118024  0.084779  0  1.022916  0
H  H33  1  0.73208385  0.91661305  0.16805568  1  0.11264  0  0.11803  0.084781  0  1.022932  0
H  H34  1  0.26791613  0.41661313  0.33194368  1  0.112455  0  0.118025  0.084788  0  1.022913  0
H  H35  1  0.23208432  0.58338695  0.83194406  1  0.112446  0  0.118028  0.084789  0  1.022924  0
H  H36  1  0.19998814  0.34972884  0.05898706  1  0.067115  0  0.098632  0.096478  0  1.015823  0
H  H37  1  0.30001271  0.65027143  0.55898739  1  0.067133  0  0.098633  0.096461  0  1.015828  0
H  H38  1  0.69998657  0.15027142  0.94101347  1  0.067125  0  0.098637  0.096475  0  1.015832  0
H  H39  1  0.80001414  0.84972856  0.44101349  1  0.067136  0  0.098643  0.09647  0  1.015826  0
H  H40  1  0.97675627  0.10849757  0.92969944  1  0.059079  0  0.10399  0.108962  0  0.997037  0
H  H41  1  0.52324332  0.89150318  0.42969896  1  0.059059  0  0.103987  0.108946  0  0.997056  0
H  H42  1  0.47675553  0.39150344  0.07030158  1  0.059049  0  0.103989  0.108941  0  0.997047  0
H  H43  1  0.02324302  0.60849682  0.57030144  1  0.059051  0  0.103982  0.108931  0  0.997066  0
H  H44  1  0.20633518  0.23685041  0.17602780  1  0.100018  0  0.095839  0.103209  0  1.028857  0
H  H45  1  0.29366550  0.76315055  0.67602750  1  0.100017  0  0.095851  0.103252  0  1.028826  0
H  H46  1  0.70633378  0.26314984  0.82397331  1  0.100039  0  0.09583  0.103215  0  1.028825  0
H  H47  1  0.79366710  0.73685022  0.32397280  1  0.100034  0  0.095834  0.103197  0  1.028835  0
H  H48  1  0.08575122  0.06388413  0.17151145  1  0.076707  0  0.090127  0.080834  0  1.058919  0
H  H49  1  0.41425061  0.93611606  0.67151161  1  0.076707  0  0.090131  0.080892  0  1.058876  0
H  H50  1  0.58574979  0.43611536  0.82848855  1  0.076726  0  0.090131  0.080856  0  1.058918  0
H  H51  1  0.91425109  0.56388392  0.32848864  1  0.076718  0  0.090128  0.080833  0  1.058936  0
H  H52  1  0.96927036  0.99995269  0.04838667  1  0.056368  0  0.100244  0.097785  0  0.996624  0
H  H53  1  0.53072977  0.00004757  0.54838562  1  0.056365  0  0.100246  0.097804  0  0.996644  0
H  H54  1  0.46927067  0.50004806  0.95161414  1  0.056361  0  0.100249  0.097807  0  0.996637  0
H  H55  1  0.03072847  0.49995192  0.45161440  1  0.056363  0  0.100248  0.097799  0  0.99665  0
C  C56  1  0.44581705  0.03025596  0.81316227  1  -0.00667  0  -0.073026  -0.150347  0  3.935269  0
C  C57  1  0.05418458  0.96974336  0.31316175  1  -0.007015  0  -0.073035  -0.150404  0  3.935338  0
C  C58  1  0.94581655  0.46974351  0.18683759  1  -0.006694  0  -0.073028  -0.150382  0  3.935311  0
C  C59  1  0.55418339  0.53025665  0.68683805  1  -0.006775  0  -0.072994  -0.150317  0  3.935329  0
C  C60  1  0.55170808  0.13707311  0.71232165  1  0.049759  0  -0.070441  -0.141161  0  3.928044  0
C  C61  1  0.94829296  0.86292549  0.21232102  1  0.049735  0  -0.070472  -0.141197  0  3.928008  0
C  C62  1  0.05170703  0.36292792  0.28767894  1  0.049822  0  -0.070437  -0.141139  0  3.927971  0
C  C63  1  0.44829235  0.63707296  0.78767979  1  0.049831  0  -0.070454  -0.141172  0  3.927941  0
C  C64  1  0.67421083  0.06951824  0.70827670  1  0.44692  0  0.051694  0.095806  0  3.941738  0
C  C65  1  0.82578908  0.93048113  0.20827609  1  0.446747  0  0.051668  0.095822  0  3.941759  0
C  C66  1  0.17421205  0.43048278  0.29172327  1  0.446932  0  0.051603  0.09567  0  3.941844  0
C  C67  1  0.32578847  0.56951809  0.79172420  1  0.446904  0  0.051682  0.095804  0  3.941769  0
C  C68  1  0.91865384  0.43973126  0.97956943  1  -0.053497  0  -0.076937  -0.148832  0  3.926342  0
C  C69  1  0.58134682  0.56026792  0.47956907  1  -0.053447  0  -0.076893  -0.148753  0  3.92626  0
C  C70  1  0.41865320  0.06026899  0.02043160  1  -0.053414  0  -0.076912  -0.148793  0  3.926332  0
C  C71  1  0.08134771  0.93973131  0.52043073  1  -0.053487  0  -0.07692  -0.148831  0  3.926309  0
C  C72  1  0.31223943  0.19589479  0.77600083  1  1.281723  0  0.216038  0.400708  0  4.151477  0
C  C73  1  0.18776225  0.80410532  0.27600033  1  1.281738  0  0.216052  0.400765  0  4.151519  0
C  C74  1  0.81223889  0.30410546  0.22399908  1  1.281741  0  0.216042  0.400702  0  4.151549  0
C  C75  1  0.68775986  0.69589622  0.72399942  1  1.281718  0  0.216047  0.400725  0  4.151519  0
C  C76  1  0.00123697  0.40245813  0.91577187  1  0.463138  0  0.117501  0.163886  0  3.992349  0
C  C77  1  0.49876222  0.59754188  0.41577191  1  0.46312  0  0.117463  0.163835  0  3.992327  0
C  C78  1  0.50123780  0.09754213  0.08422816  1  0.46311  0  0.117469  0.163824  0  3.992351  0
C  C79  1  0.99876343  0.90245810  0.58422772  1  0.463118  0  0.117484  0.163859  0  3.992285  0
C  C80  1  0.08480324  0.23745894  0.98743338  1  -0.042766  0  -0.007251  0.048682  0  4.000851  0
C  C81  1  0.41519699  0.76254179  0.48743339  1  -0.042776  0  -0.007246  0.048717  0  4.000773  0
C  C82  1  0.58480186  0.26254209  0.01256778  1  -0.042783  0  -0.007281  0.04868  0  4.000813  0
C  C83  1  0.91519833  0.73745820  0.51256686  1  -0.042804  0  -0.007285  0.048658  0  4.000807  0
C  C84  1  0.43595241  0.11872975  0.76667443  1  -0.029382  0  0.017366  0.048219  0  3.957151  0
C  C85  1  0.06404700  0.88127037  0.26667335  1  -0.029279  0  0.017392  0.048233  0  3.957195  0
C  C86  1  0.93595299  0.38127127  0.23332544  1  -0.029388  0  0.017352  0.048236  0  3.957127  0
C  C87  1  0.56404803  0.61873040  0.73332586  1  -0.029313  0  0.017374  0.048225  0  3.957137  0
C  C88  1  0.85682026  0.59128930  0.90501344  1  -0.045137  0  -0.082806  -0.123773  0  3.938325  0
C  C89  1  0.64317937  0.40870916  0.40501369  1  -0.045159  0  -0.082801  -0.123797  0  3.938462  0
C  C90  1  0.35682062  0.90870915  0.09498625  1  -0.045168  0  -0.082771  -0.123727  0  3.938443  0
C  C91  1  0.14318018  0.09129110  0.59498570  1  -0.045173  0  -0.082775  -0.123714  0  3.93838  0
C  C92  1  0.15114128  0.21025482  0.12287088  1  -0.084945  0  -0.096168  -0.078674  0  3.99671  0
C  C93  1  0.34885948  0.78974541  0.62287171  1  -0.084961  0  -0.096186  -0.078712  0  3.996643  0
C  C94  1  0.65113865  0.28974313  0.87712967  1  -0.084917  0  -0.09613  -0.078649  0  3.996604  0
C  C95  1  0.84886101  0.71025535  0.37712915  1  -0.084954  0  -0.096176  -0.07866  0  3.996629  0
C  C96  1  0.57133790  0.96582665  0.80512506  1  0.418112  0  0.048064  0.089139  0  3.92047  0
C  C97  1  0.92866301  0.03417265  0.30512478  1  0.418151  0  0.048066  0.089171  0  3.920386  0
C  C98  1  0.07133815  0.53417335  0.19487473  1  0.418122  0  0.048086  0.089186  0  3.920431  0
C  C99  1  0.42866250  0.46582682  0.69487508  1  0.418125  0  0.048077  0.089182  0  3.920446  0
C  C100  1  0.84733837  0.53560957  0.97421298  1  -0.062502  0  -0.063085  -0.0165  0  3.933777  0
C  C101  1  0.65266229  0.46438884  0.47421205  1  -0.062508  0  -0.063118  -0.016575  0  3.933943  0
C  C102  1  0.34733655  0.96438888  0.02578788  1  -0.062529  0  -0.063146  -0.016551  0  3.933942  0
C  C103  1  0.15266321  0.03561065  0.52578793  1  -0.062521  0  -0.063151  -0.016551  0  3.933944  0
C  C104  1  0.08457472  0.30355574  0.91751647  1  0.620134  0  0.141336  0.114213  0  3.918935  0
C  C105  1  0.41542561  0.69644273  0.41751650  1  0.62013  0  0.141354  0.11423  0  3.918814  0
C  C106  1  0.58457440  0.19644375  0.08248178  1  0.620082  0  0.141371  0.114298  0  3.918653  0
C  C107  1  0.91542569  0.80355725  0.58248200  1  0.620177  0  0.141375  0.114291  0  3.918661  0
C  C108  1  0.14903514  0.27313024  0.05710007  1  -0.0015  0  -0.087679  -0.120296  0  3.969889  0
C  C109  1  0.35096572  0.72687081  0.55710034  1  -0.001456  0  -0.087655  -0.120239  0  3.969825  0
C  C110  1  0.64903356  0.22686925  0.94290107  1  -0.001529  0  -0.087667  -0.120284  0  3.969833  0
C  C111  1  0.85096715  0.77312995  0.44289993  1  -0.001474  0  -0.08767  -0.120269  0  3.969837  0
C  C112  1  0.93636623  0.54776530  0.84289866  1  0.49909  0  0.049584  0.099892  0  3.956135  0
C  C113  1  0.56363348  0.45223475  0.34289835  1  0.498889  0  0.049581  0.0999  0  3.956097  0
C  C114  1  0.43636765  0.95223392  0.15710100  1  0.499119  0  0.0496  0.09989  0  3.956102  0
C  C115  1  0.06363421  0.04776628  0.65710108  1  0.499133  0  0.049609  0.099873  0  3.956005  0
C  C116  1  0.08404277  0.11282208  0.12012002  1  -0.077379  0  -0.095985  -0.076883  0  4.002247  0
C  C117  1  0.41595914  0.88717892  0.62011962  1  -0.077594  0  -0.096001  -0.076999  0  4.002246  0
C  C118  1  0.58404126  0.38717818  0.87988114  1  -0.077375  0  -0.095999  -0.076928  0  4.00228  0
C  C119  1  0.91595954  0.61282184  0.37988062  1  -0.077585  0  -0.095994  -0.076902  0  4.002262  0
C  C120  1  0.02223365  0.13792384  0.98436279  1  9.7e-05  0  -0.082887  -0.112032  0  3.957261  0
C  C121  1  0.47776544  0.86207690  0.48436215  1  9e-05  0  -0.082845  -0.111951  0  3.957327  0
C  C122  1  0.52223341  0.36207643  0.01563781  1  8.6e-05  0  -0.082841  -0.111935  0  3.957331  0
C  C123  1  0.97776564  0.63792309  0.51563807  1  8.6e-05  0  -0.082829  -0.111915  0  3.957294  0
C  C124  1  0.01925961  0.07687217  0.05099260  1  -0.030294  0  -0.093826  -0.083418  0  4.021209  0
C  C125  1  0.48074011  0.92312811  0.55099216  1  -0.030084  0  -0.093856  -0.083466  0  4.021365  0
C  C126  1  0.51925915  0.42312809  0.94900801  1  -0.0303  0  -0.093854  -0.08349  0  4.021395  0
C  C127  1  0.98074040  0.57687188  0.44900807  1  -0.030094  0  -0.093826  -0.083455  0  4.021372  0
N  N128  1  0.24860240  0.19780216  0.84745655  1  -0.66391  0  -0.240711  -0.315368  0  3.217402  0
N  N129  1  0.25139689  0.80219790  0.34745660  1  -0.663908  0  -0.240701  -0.31533  0  3.217389  0
N  N130  1  0.74860311  0.30219809  0.15254339  1  -0.663906  0  -0.240725  -0.315342  0  3.217423  0
N  N131  1  0.75139574  0.69780286  0.65254371  1  -0.663882  0  -0.240722  -0.315328  0  3.217477  0
N  N132  1  0.00748701  0.45665433  0.84817391  1  -1.255045  0  -0.327304  -0.282798  0  3.540611  0
N  N133  1  0.49251228  0.54334496  0.34817398  1  -1.255053  0  -0.327276  -0.282741  0  3.54057  0
N  N134  1  0.50748774  0.04334516  0.15182553  1  -1.255039  0  -0.327278  -0.282729  0  3.540548  0
N  N135  1  0.99251225  0.95665503  0.65182566  1  -1.255013  0  -0.327289  -0.282749  0  3.540459  0
N  N136  1  0.68502166  0.98542388  0.75392140  1  -1.257833  0  -0.329664  -0.217114  0  3.553738  0
N  N137  1  0.81497818  0.01457700  0.25392059  1  -1.257814  0  -0.329629  -0.217129  0  3.553771  0
N  N138  1  0.18502185  0.51457689  0.24607836  1  -1.257852  0  -0.329592  -0.217013  0  3.553763  0
N  N139  1  0.31497873  0.48542402  0.74607932  1  -1.257819  0  -0.32967  -0.217163  0  3.553762  0
N  N140  1  0.15753130  0.28118338  0.85354897  1  -0.809223  0  -0.222327  -0.122983  0  3.697901  0
N  N141  1  0.34246913  0.71881668  0.35354902  1  -0.809207  0  -0.222383  -0.123124  0  3.697892  0
N  N142  1  0.65753202  0.21881610  0.14645042  1  -0.809181  0  -0.222383  -0.123151  0  3.697789  0
N  N143  1  0.84246797  0.78118486  0.64645067  1  -0.809247  0  -0.222412  -0.123202  0  3.697826  0
N  N144  1  0.89739108  0.33221372  0.66800559  1  0.821353  0  0.10221  0.719898  0  4.39883  0
N  N145  1  0.60261231  0.66778799  0.16800343  1  0.821123  0  0.102171  0.71989  0  4.398617  0
N  N146  1  0.39738884  0.16778575  0.33199429  1  0.82137  0  0.102195  0.719871  0  4.398627  0
N  N147  1  0.10261162  0.83221201  0.83199577  1  0.821096  0  0.10218  0.719885  0  4.398797  0
O  O148  1  0.28289800  0.25635264  0.71920355  1  -1.155392  0  -0.307612  -0.508882  0  2.286132  0
O  O149  1  0.21710490  0.74364752  0.21920364  1  -1.155405  0  -0.30762  -0.508905  0  2.286218  0
O  O150  1  0.78289739  0.24364762  0.28079579  1  -1.155389  0  -0.307607  -0.508874  0  2.286208  0
O  O151  1  0.71710242  0.75635324  0.78079610  1  -1.155411  0  -0.307614  -0.508887  0  2.286127  0
O  O152  1  0.90166627  0.26745172  0.72247520  1  -0.542625  0  -0.17784  -0.442033  0  1.965179  0
O  O153  1  0.59833933  0.73254764  0.22247476  1  -0.542526  0  -0.177822  -0.442024  0  1.965116  0
O  O154  1  0.40166410  0.23254852  0.27752526  1  -0.542612  0  -0.177781  -0.441952  0  1.965003  0
O  O155  1  0.09833986  0.76745236  0.77752502  1  -0.542544  0  -0.177842  -0.442031  0  1.965144  0
O  O156  1  0.00447357  0.40295222  0.66562750  1  -0.601548  0  -0.224486  -0.452891  0  2.013436  0
O  O157  1  0.49552599  0.59704952  0.16562580  1  -0.60149  0  -0.224493  -0.452886  0  2.013316  0
O  O158  1  0.50447517  0.09704804  0.33437311  1  -0.601535  0  -0.224517  -0.452927  0  2.013407  0
O  O159  1  0.99552798  0.90295047  0.83437384  1  -0.601474  0  -0.224489  -0.452912  0  2.013446  0
O  O160  1  0.79658791  0.33208350  0.61693917  1  -0.488529  0  -0.176509  -0.418288  0  1.916704  0
O  O161  1  0.70341098  0.66791979  0.11693522  1  -0.488458  0  -0.176484  -0.418289  0  1.916661  0
O  O162  1  0.29658674  0.16791444  0.38306133  1  -0.488562  0  -0.176537  -0.418316  0  1.916703  0
O  O163  1  0.20340907  0.83208020  0.88306452  1  -0.488426  0  -0.17647  -0.418254  0  1.916658  0
