# generated using pymatgen
data_CsH2CO3
_symmetry_space_group_name_H-M   'P 1'
_cell_length_a   6.22668407
_cell_length_b   6.13434509
_cell_length_c   11.00103684
_cell_angle_alpha   90.00117903
_cell_angle_beta   89.99950750
_cell_angle_gamma   110.74440314
_symmetry_Int_Tables_number   1
_chemical_formula_structural   CsH2CO3
_chemical_formula_sum   'Cs4 H8 C4 O12'
_cell_volume   392.96071336
_cell_formula_units_Z   4
loop_
 _symmetry_equiv_pos_site_id
 _symmetry_equiv_pos_as_xyz
  1  'x, y, z'
loop_
 _atom_site_type_symbol
 _atom_site_label
 _atom_site_symmetry_multiplicity
 _atom_site_fract_x
 _atom_site_fract_y
 _atom_site_fract_z
 _atom_site_occupancy
 _atom_site_hle17_bader_spin_density
 _atom_site_hle17_ddec_charge
 _atom_site_hle17_ddec_spin_density
 _atom_site_hle17_ddec_sum_bond_order
 _atom_site_hle17_magmom
 _atom_site_hse06_10hf_bader_spin_density
 _atom_site_hse06_10hf_ddec_charge
 _atom_site_hse06_10hf_ddec_spin_density
 _atom_site_hse06_10hf_ddec_sum_bond_order
 _atom_site_hse06_10hf_magmom
 _atom_site_hse06_bader_spin_density
 _atom_site_hse06_ddec_charge
 _atom_site_hse06_ddec_spin_density
 _atom_site_hse06_ddec_sum_bond_order
 _atom_site_hse06_magmom
 _atom_site_pbe_bader_spin_density
 _atom_site_pbe_cm5_charge
 _atom_site_pbe_ddec_charge
 _atom_site_pbe_ddec_spin_density
 _atom_site_pbe_ddec_sum_bond_order
 _atom_site_pbe_magmom
Cs  Cs0  1  0.19878136  0.88081601  0.11458553  1  0  0.963814  0  0.615122  0  0  0.906759  0  0.862827  0  0  0.92345  0  0.83831  0  0  0.897325  0.894508  0  0.880106  0
Cs  Cs1  1  0.30122227  0.11919072  0.61458745  1  0  0.963842  0  0.615105  0  0  0.906777  0  0.86279  0  0  0.923477  0  0.83829  0  0  0.897317  0.894527  0  0.880064  0
Cs  Cs2  1  0.80123555  0.11919574  0.88541431  1  0  0.963821  0  0.615081  0  0  0.906746  0  0.862774  0  0  0.923443  0  0.838268  0  0  0.897289  0.894493  0  0.880046  0
Cs  Cs3  1  0.69875950  0.88079553  0.38541603  1  0  0.96384  0  0.615112  0  0  0.90677  0  0.862819  0  0  0.923462  0  0.838306  0  0  0.897314  0.89452  0  0.880102  0
H  H4  1  0.88271933  0.33153365  0.14514782  1  0  0.402867  0  0.91333  0  0  0.374648  0  0.974853  0  0  0.385303  0  0.959123  0  0  0.283991  0.367187  0  0.98583  0
H  H5  1  0.61728469  0.66848910  0.64514963  1  0  0.402912  0  0.913333  0  0  0.374706  0  0.974819  0  0  0.385359  0  0.959094  0  0  0.284027  0.367246  0  0.985793  0
H  H6  1  0.11727409  0.66849276  0.85485021  1  0  0.403063  0  0.913237  0  0  0.374845  0  0.974714  0  0  0.385489  0  0.959001  0  0  0.284127  0.367389  0  0.985683  0
H  H7  1  0.38271684  0.33149842  0.35484657  1  0  0.403036  0  0.913298  0  0  0.374851  0  0.974729  0  0  0.385496  0  0.959016  0  0  0.284141  0.367397  0  0.985694  0
H  H8  1  0.07391266  0.33979969  0.24095267  1  0  0.40445  0  0.911895  0  0  0.376356  0  0.972537  0  0  0.387133  0  0.956659  0  0  0.284888  0.368848  0  0.983591  0
H  H9  1  0.42608939  0.66019938  0.74095012  1  0  0.404649  0  0.911663  0  0  0.376552  0  0.972338  0  0  0.387338  0  0.956443  0  0  0.284994  0.369044  0  0.983394  0
H  H10  1  0.92609820  0.66020870  0.75904535  1  0  0.404613  0  0.91167  0  0  0.376469  0  0.97239  0  0  0.38725  0  0.956506  0  0  0.284925  0.368955  0  0.983453  0
H  H11  1  0.57390774  0.33980232  0.25904517  1  0  0.404723  0  0.911536  0  0  0.37657  0  0.972274  0  0  0.387353  0  0.956385  0  0  0.284954  0.369061  0  0.983332  0
C  C12  1  0.07354750  0.52401238  0.43992679  1  0  0.561494  0  3.920433  0  0  0.518656  0  4.218656  0  0  0.547568  0  4.210573  0  0  0.180881  0.499018  0  4.223795  0
C  C13  1  0.42644446  0.47596780  0.93994214  1  0  0.561412  0  3.920867  0  0  0.518571  0  4.219066  0  0  0.54748  0  4.210982  0  0  0.180769  0.498929  0  4.224211  0
C  C14  1  0.92644087  0.47595260  0.56006124  1  0  0.561507  0  3.91984  0  0  0.518711  0  4.218032  0  0  0.547624  0  4.209949  0  0  0.180803  0.499061  0  4.223177  0
C  C15  1  0.57355434  0.52405144  0.06005498  1  0  0.561342  0  3.920038  0  0  0.518556  0  4.218191  0  0  0.547473  0  4.210105  0  0  0.180803  0.498911  0  4.22333  0
O  O16  1  0.13644610  0.72462933  0.39402119  1  0  -0.71428  0  2.035198  0  0  -0.673944  0  2.278769  0  0  -0.696277  0  2.271625  0  0  -0.487774  -0.658461  0  2.28331  0
O  O17  1  0.36354217  0.27535630  0.89403184  1  0  -0.714196  0  2.035398  0  0  -0.673839  0  2.278931  0  0  -0.696187  0  2.271818  0  0  -0.487699  -0.658329  0  2.283414  0
O  O18  1  0.86353525  0.27533406  0.60597320  1  0  -0.714204  0  2.035193  0  0  -0.673837  0  2.278686  0  0  -0.6962  0  2.271616  0  0  -0.487679  -0.658322  0  2.283165  0
O  O19  1  0.63646524  0.72466448  0.10597709  1  0  -0.714128  0  2.035261  0  0  -0.673791  0  2.278794  0  0  -0.696127  0  2.271653  0  0  -0.487644  -0.658297  0  2.283316  0
O  O20  1  0.11721105  0.34956380  0.39703245  1  0  -0.705756  0  2.09908  0  0  -0.635733  0  2.316936  0  0  -0.660975  0  2.307678  0  0  -0.431366  -0.618266  0  2.323005  0
O  O21  1  0.38277932  0.65039727  0.89704001  1  0  -0.705808  0  2.099118  0  0  -0.63578  0  2.316994  0  0  -0.661023  0  2.307725  0  0  -0.431356  -0.618313  0  2.32307  0
O  O22  1  0.88278191  0.65043096  0.60296648  1  0  -0.705934  0  2.098597  0  0  -0.635881  0  2.316442  0  0  -0.661132  0  2.307175  0  0  -0.431382  -0.618405  0  2.322521  0
O  O23  1  0.61723239  0.34959175  0.10297165  1  0  -0.705891  0  2.098554  0  0  -0.635813  0  2.316388  0  0  -0.661066  0  2.307115  0  0  -0.431412  -0.618338  0  2.322464  0
O  O24  1  0.03286010  0.31109704  0.15351994  1  0  -0.912561  0  1.784857  0  0  -0.866781  0  1.950128  0  0  -0.886233  0  1.921423  0  0  -0.727937  -0.852881  0  1.969813  0
O  O25  1  0.46715941  0.68891950  0.65353388  1  0  -0.912794  0  1.784889  0  0  -0.86702  0  1.950047  0  0  -0.886465  0  1.921323  0  0  -0.728075  -0.853133  0  1.969757  0
O  O26  1  0.96719316  0.68892611  0.84647990  1  0  -0.912855  0  1.784825  0  0  -0.86698  0  1.950129  0  0  -0.886422  0  1.921417  0  0  -0.728085  -0.853091  0  1.969842  0
O  O27  1  0.53280490  0.31107598  0.34647415  1  0  -0.912979  0  1.784839  0  0  -0.867144  0  1.950108  0  0  -0.88659  0  1.921393  0  0  -0.728139  -0.853258  0  1.969816  0
