# generated using pymatgen
data_CdH8C8S2(N3O)2
_symmetry_space_group_name_H-M   'P 1'
_cell_length_a   6.77217302
_cell_length_b   8.35148125
_cell_length_c   12.79360395
_cell_angle_alpha   100.69758239
_cell_angle_beta   89.99729936
_cell_angle_gamma   90.00345490
_symmetry_Int_Tables_number   1
_chemical_formula_structural   CdH8C8S2(N3O)2
_chemical_formula_sum   'Cd2 H16 C16 S4 N12 O4'
_cell_volume   711.00120186
_cell_formula_units_Z   2
loop_
 _symmetry_equiv_pos_site_id
 _symmetry_equiv_pos_as_xyz
  1  'x, y, z'
loop_
 _atom_site_type_symbol
 _atom_site_label
 _atom_site_symmetry_multiplicity
 _atom_site_fract_x
 _atom_site_fract_y
 _atom_site_fract_z
 _atom_site_occupancy
 _atom_site_hle17_bader_spin_density
 _atom_site_hle17_ddec_charge
 _atom_site_hle17_ddec_spin_density
 _atom_site_hle17_ddec_sum_bond_order
 _atom_site_hle17_magmom
 _atom_site_hse06_10hf_bader_spin_density
 _atom_site_hse06_10hf_ddec_charge
 _atom_site_hse06_10hf_ddec_spin_density
 _atom_site_hse06_10hf_ddec_sum_bond_order
 _atom_site_hse06_10hf_magmom
 _atom_site_hse06_bader_spin_density
 _atom_site_hse06_ddec_charge
 _atom_site_hse06_ddec_spin_density
 _atom_site_hse06_ddec_sum_bond_order
 _atom_site_hse06_magmom
 _atom_site_pbe_bader_spin_density
 _atom_site_pbe_cm5_charge
 _atom_site_pbe_ddec_charge
 _atom_site_pbe_ddec_spin_density
 _atom_site_pbe_ddec_sum_bond_order
 _atom_site_pbe_magmom
Cd  Cd0  1  0.00000519  0.50000217  0.00000235  1  0  1.025366  0  1.869388  0  0  0.879695  0  2.321972  0  0  0.924653  0  2.279232  0  0  0.670659  0.848139  0  2.351066  0
Cd  Cd1  1  0.49999880  0.00000088  0.50000120  1  0  1.025224  0  1.869736  0  0  0.879513  0  2.322369  0  0  0.924472  0  2.279629  0  0  0.670658  0.847959  0  2.351458  0
H  H2  1  0.06717303  0.54238254  0.22743459  1  0  0.415183  0  0.890852  0  0  0.37994  0  0.961855  0  0  0.390453  0  0.94663  0  0  0.283568  0.372563  0  0.972519  0
H  H3  1  0.56717636  0.95762480  0.27256519  1  0  0.415224  0  0.890803  0  0  0.379997  0  0.961774  0  0  0.390508  0  0.946553  0  0  0.283573  0.372621  0  0.972438  0
H  H4  1  0.93282903  0.45761643  0.77256835  1  0  0.41513  0  0.890933  0  0  0.379924  0  0.961869  0  0  0.39043  0  0.946656  0  0  0.283551  0.372549  0  0.972531  0
H  H5  1  0.43283014  0.04237303  0.72743602  1  0  0.415171  0  0.890862  0  0  0.379913  0  0.961896  0  0  0.390427  0  0.946669  0  0  0.283543  0.372536  0  0.972561  0
H  H6  1  0.23450851  0.63380021  0.17368617  1  0  0.419156  0  0.831867  0  0  0.395924  0  0.89859  0  0  0.404457  0  0.88895  0  0  0.304996  0.389873  0  0.905416  0
H  H7  1  0.73450747  0.86620790  0.32631248  1  0  0.41918  0  0.831922  0  0  0.395918  0  0.898678  0  0  0.404451  0  0.889037  0  0  0.30496  0.389867  0  0.905504  0
H  H8  1  0.76549946  0.36620092  0.82632255  1  0  0.419186  0  0.831851  0  0  0.395901  0  0.898654  0  0  0.404435  0  0.889012  0  0  0.304953  0.389851  0  0.905482  0
H  H9  1  0.26550050  0.13380309  0.67369529  1  0  0.419134  0  0.831918  0  0  0.39587  0  0.898665  0  0  0.404404  0  0.889024  0  0  0.304976  0.38982  0  0.905491  0
H  H10  1  0.89247396  0.08441516  0.20575594  1  0  0.336572  0  0.866743  0  0  0.322743  0  0.923953  0  0  0.330162  0  0.918144  0  0  0.311899  0.317469  0  0.928178  0
H  H11  1  0.39247161  0.41563196  0.29423404  1  0  0.336497  0  0.866691  0  0  0.322775  0  0.923779  0  0  0.330177  0  0.917993  0  0  0.312029  0.317501  0  0.928004  0
H  H12  1  0.10751926  0.91558678  0.79423725  1  0  0.336553  0  0.8666  0  0  0.322658  0  0.923869  0  0  0.330072  0  0.918075  0  0  0.311931  0.317384  0  0.928094  0
H  H13  1  0.60750979  0.58436353  0.70576527  1  0  0.336406  0  0.866704  0  0  0.322702  0  0.923794  0  0  0.330085  0  0.918036  0  0  0.311941  0.317428  0  0.928023  0
H  H14  1  0.86319384  0.29572222  0.22875882  1  0  0.335741  0  0.909042  0  0  0.318918  0  0.970518  0  0  0.326094  0  0.965403  0  0  0.302282  0.313878  0  0.974147  0
H  H15  1  0.36319000  0.20428526  0.27123766  1  0  0.33574  0  0.909029  0  0  0.318907  0  0.970547  0  0  0.326082  0  0.965434  0  0  0.302309  0.313867  0  0.974176  0
H  H16  1  0.13679494  0.70428333  0.77123567  1  0  0.335741  0  0.909016  0  0  0.3189  0  0.970533  0  0  0.326075  0  0.965418  0  0  0.302291  0.313859  0  0.974168  0
H  H17  1  0.63679730  0.79571014  0.72876320  1  0  0.335762  0  0.909057  0  0  0.318916  0  0.970594  0  0  0.326091  0  0.96548  0  0  0.302319  0.313876  0  0.974227  0
C  C18  1  0.80054205  0.88159922  0.03844763  1  0  0.349201  0  3.817556  0  0  0.322079  0  4.088198  0  0  0.339408  0  4.10728  0  0  0.189285  0.310313  0  4.075324  0
C  C19  1  0.30054233  0.61841861  0.46154774  1  0  0.349133  0  3.817812  0  0  0.321965  0  4.08848  0  0  0.339305  0  4.107556  0  0  0.189325  0.310184  0  4.075597  0
C  C20  1  0.19946740  0.11840247  0.96155022  1  0  0.349383  0  3.817623  0  0  0.322266  0  4.088249  0  0  0.339583  0  4.107325  0  0  0.189275  0.310504  0  4.075384  0
C  C21  1  0.69945236  0.38158650  0.53845529  1  0  0.349066  0  3.817806  0  0  0.3219  0  4.088491  0  0  0.339247  0  4.107567  0  0  0.189296  0.310123  0  4.07561  0
C  C22  1  0.67908628  0.02869965  0.90752745  1  0  0.341125  0  3.86427  0  0  0.312088  0  4.142433  0  0  0.328224  0  4.160766  0  0  0.18852  0.301103  0  4.130191  0
C  C23  1  0.17909914  0.47128505  0.59247660  1  0  0.341281  0  3.864352  0  0  0.312225  0  4.142534  0  0  0.328369  0  4.160852  0  0  0.188471  0.30123  0  4.130287  0
C  C24  1  0.32091727  0.97129587  0.09247109  1  0  0.34123  0  3.864104  0  0  0.312204  0  4.142265  0  0  0.32833  0  4.160595  0  0  0.18858  0.301221  0  4.130023  0
C  C25  1  0.82089850  0.52871636  0.40752668  1  0  0.341357  0  3.864174  0  0  0.312303  0  4.142348  0  0  0.328453  0  4.160665  0  0  0.188572  0.301308  0  4.130105  0
C  C26  1  0.75085838  0.03086422  0.01040698  1  0  -0.276466  0  3.973045  0  0  -0.24727  0  4.214422  0  0  -0.265679  0  4.232832  0  0  -0.04835  -0.234824  0  4.201602  0
C  C27  1  0.25086198  0.46913861  0.48958645  1  0  -0.276595  0  3.972927  0  0  -0.247398  0  4.214191  0  0  -0.265846  0  4.232686  0  0  -0.048334  -0.234912  0  4.2013  0
C  C28  1  0.24915108  0.96913138  0.98959000  1  0  -0.276557  0  3.972809  0  0  -0.247386  0  4.214179  0  0  -0.265803  0  4.232675  0  0  -0.048362  -0.234952  0  4.201386  0
C  C29  1  0.74913123  0.53086166  0.51041511  1  0  -0.276627  0  3.972915  0  0  -0.24744  0  4.214203  0  0  -0.265872  0  4.23263  0  0  -0.048398  -0.234967  0  4.201339  0
C  C30  1  0.77325282  0.18211411  0.08233829  1  0  0.380258  0  3.860939  0  0  0.348913  0  4.14878  0  0  0.372794  0  4.160664  0  0  0.138721  0.333011  0  4.139844  0
C  C31  1  0.27325671  0.31788574  0.41764642  1  0  0.380026  0  3.860993  0  0  0.348879  0  4.148598  0  0  0.372765  0  4.16047  0  0  0.13871  0.332969  0  4.139656  0
C  C32  1  0.22675073  0.81788665  0.91765395  1  0  0.380255  0  3.860962  0  0  0.348976  0  4.148699  0  0  0.372849  0  4.160579  0  0  0.138709  0.333078  0  4.139759  0
C  C33  1  0.72673355  0.68211205  0.58235557  1  0  0.379984  0  3.860986  0  0  0.348829  0  4.148597  0  0  0.372721  0  4.160463  0  0  0.138702  0.332922  0  4.139657  0
S  S34  1  0.68215676  0.35769260  0.04810119  1  0  -0.439859  0  1.991882  0  0  -0.408013  0  2.322566  0  0  -0.428981  0  2.316577  0  0  -0.207654  -0.393108  0  2.326131  0
S  S35  1  0.18215423  0.14228907  0.45189044  1  0  -0.439845  0  1.991729  0  0  -0.408089  0  2.32233  0  0  -0.42905  0  2.316339  0  0  -0.207728  -0.393191  0  2.3259  0
S  S36  1  0.31784827  0.64230585  0.95188838  1  0  -0.439899  0  1.991936  0  0  -0.408085  0  2.322608  0  0  -0.429047  0  2.316622  0  0  -0.207666  -0.393177  0  2.32617  0
S  S37  1  0.81783750  0.85771108  0.54811345  1  0  -0.439826  0  1.991668  0  0  -0.408088  0  2.322303  0  0  -0.429052  0  2.31631  0  0  -0.20773  -0.393186  0  2.32587  0
N  N38  1  0.84287335  0.75922520  0.06536477  1  0  -0.478423  0  2.75865  0  0  -0.431239  0  3.017992  0  0  -0.448881  0  3.026214  0  0  -0.342781  -0.419357  0  3.012486  0
N  N39  1  0.34287958  0.74080423  0.43463885  1  0  -0.478277  0  2.758909  0  0  -0.431053  0  3.018238  0  0  -0.448702  0  3.026458  0  0  -0.342781  -0.419172  0  3.012737  0
N  N40  1  0.15714496  0.24077609  0.93464084  1  0  -0.478479  0  2.758902  0  0  -0.431312  0  3.018251  0  0  -0.448954  0  3.026467  0  0  -0.342692  -0.419431  0  3.012748  0
N  N41  1  0.65711806  0.25919360  0.56536236  1  0  -0.478215  0  2.758849  0  0  -0.43099  0  3.018191  0  0  -0.448644  0  3.026415  0  0  -0.342741  -0.419109  0  3.012688  0
N  N42  1  0.62260341  0.01972165  0.81989435  1  0  -0.495889  0  2.737826  0  0  -0.455851  0  2.976551  0  0  -0.470638  0  2.984457  0  0  -0.329819  -0.446036  0  2.971541  0
N  N43  1  0.12260941  0.48027501  0.68010625  1  0  -0.495958  0  2.73819  0  0  -0.455944  0  2.976919  0  0  -0.470733  0  2.984812  0  0  -0.329835  -0.446137  0  2.971925  0
N  N44  1  0.37741047  0.98027026  0.18010289  1  0  -0.495954  0  2.737707  0  0  -0.455943  0  2.976422  0  0  -0.470727  0  2.984323  0  0  -0.329879  -0.446129  0  2.971411  0
N  N45  1  0.87738675  0.51972653  0.31989470  1  0  -0.495953  0  2.738063  0  0  -0.455925  0  2.976792  0  0  -0.470721  0  2.984689  0  0  -0.329848  -0.446116  0  2.971792  0
N  N46  1  0.85883106  0.18687629  0.17692434  1  0  -0.585923  0  3.137349  0  0  -0.541759  0  3.363125  0  0  -0.562394  0  3.362024  0  0  -0.548056  -0.527708  0  3.363712  0
N  N47  1  0.35883624  0.31314998  0.32305867  1  0  -0.585582  0  3.137226  0  0  -0.5416  0  3.362901  0  0  -0.562219  0  3.361826  0  0  -0.548155  -0.527559  0  3.363498  0
N  N48  1  0.14116511  0.81312800  0.82307076  1  0  -0.585895  0  3.137162  0  0  -0.541646  0  3.363011  0  0  -0.562279  0  3.361917  0  0  -0.548114  -0.527599  0  3.363597  0
N  N49  1  0.64115253  0.68684664  0.67694237  1  0  -0.585512  0  3.137314  0  0  -0.541542  0  3.362943  0  0  -0.562142  0  3.361905  0  0  -0.548073  -0.5275  0  3.363536  0
O  O50  1  0.17077011  0.52828493  0.17112721  1  0  -0.813383  0  1.872251  0  0  -0.756342  0  2.059154  0  0  -0.777343  0  2.033047  0  0  -0.577932  -0.741257  0  2.077023  0
O  O51  1  0.67077128  0.97172410  0.32887339  1  0  -0.813442  0  1.872276  0  0  -0.756334  0  2.059177  0  0  -0.777354  0  2.033112  0  0  -0.5779  -0.741252  0  2.077045  0
O  O52  1  0.82923492  0.47171766  0.82887703  1  0  -0.813382  0  1.872254  0  0  -0.756307  0  2.059224  0  0  -0.777302  0  2.03312  0  0  -0.577896  -0.741223  0  2.077095  0
O  O53  1  0.32922636  0.02828215  0.67113137  1  0  -0.813323  0  1.872291  0  0  -0.756189  0  2.059183  0  0  -0.777211  0  2.033129  0  0  -0.577882  -0.741105  0  2.077053  0
