# generated using pymatgen
data_ZnH10C11I2N4O
_symmetry_space_group_name_H-M   'P 1'
_cell_length_a   8.66183123
_cell_length_b   10.16205196
_cell_length_c   16.77403982
_cell_angle_alpha   89.99987245
_cell_angle_beta   89.99989671
_cell_angle_gamma   104.70216043
_symmetry_Int_Tables_number   1
_chemical_formula_structural   ZnH10C11I2N4O
_chemical_formula_sum   'Zn4 H40 C44 I8 N16 O4'
_cell_volume   1428.14140614
_cell_formula_units_Z   4
loop_
 _symmetry_equiv_pos_site_id
 _symmetry_equiv_pos_as_xyz
  1  'x, y, z'
loop_
 _atom_site_type_symbol
 _atom_site_label
 _atom_site_symmetry_multiplicity
 _atom_site_fract_x
 _atom_site_fract_y
 _atom_site_fract_z
 _atom_site_occupancy
 _atom_site_pbe_bader_spin_density
 _atom_site_pbe_cm5_charge
 _atom_site_pbe_ddec_charge
 _atom_site_pbe_ddec_spin_density
 _atom_site_pbe_ddec_sum_bond_order
 _atom_site_pbe_magmom
Zn  Zn0  1  0.72225035  0.26411366  0.89393679  1  0  0.471913  0.480207  0  2.677531  0
Zn  Zn1  1  0.77775486  0.73588933  0.39394002  1  0  0.471911  0.480294  0  2.67741  0
Zn  Zn2  1  0.27775614  0.73588592  0.10606208  1  0  0.47191  0.480296  0  2.677474  0
Zn  Zn3  1  0.22224737  0.26411533  0.60606004  1  0  0.471881  0.480213  0  2.677563  0
H  H4  1  0.59136875  0.49258252  0.84163326  1  0  0.097852  0.087174  0  1.081733  0
H  H5  1  0.90864224  0.50742377  0.34163429  1  0  0.097866  0.087177  0  1.081826  0
H  H6  1  0.40864005  0.50741705  0.15836740  1  0  0.097869  0.087192  0  1.081758  0
H  H7  1  0.09136461  0.49258089  0.65836578  1  0  0.097865  0.087171  0  1.081752  0
H  H8  1  0.43740949  0.17205297  0.99968253  1  0  0.093801  0.066188  0  1.067343  0
H  H9  1  0.06260085  0.82795251  0.49968286  1  0  0.093831  0.066185  0  1.067335  0
H  H10  1  0.56261121  0.82795169  0.00032111  1  0  0.093822  0.066135  0  1.067372  0
H  H11  1  0.93739968  0.17205419  0.50031661  1  0  0.093789  0.06611  0  1.067399  0
H  H12  1  0.55346873  0.97334463  0.87731548  1  0  0.103851  0.082627  0  1.048668  0
H  H13  1  0.94651674  0.02666557  0.37731652  1  0  0.103878  0.082602  0  1.048659  0
H  H14  1  0.44652281  0.02665902  0.12268519  1  0  0.10388  0.082667  0  1.04863  0
H  H15  1  0.05346666  0.97333401  0.62267878  1  0  0.103815  0.082488  0  1.048675  0
H  H16  1  0.71029438  0.28749968  0.71544132  1  0  0.097949  0.072954  0  1.056779  0
H  H17  1  0.78969529  0.71250721  0.21544278  1  0  0.09797  0.072964  0  1.056727  0
H  H18  1  0.28968907  0.71250397  0.28455934  1  0  0.097987  0.073013  0  1.056682  0
H  H19  1  0.21030568  0.28748931  0.78455251  1  0  0.097948  0.07295  0  1.056709  0
H  H20  1  0.26874998  0.75389843  0.75027599  1  0  0.305472  0.295224  0  0.970323  0
H  H21  1  0.23124736  0.24610314  0.25027456  1  0  0.305457  0.295148  0  0.970397  0
H  H22  1  0.73124752  0.24609809  0.24972645  1  0  0.305485  0.295234  0  0.970332  0
H  H23  1  0.76875075  0.75389541  0.74972491  1  0  0.305475  0.295218  0  0.970287  0
H  H24  1  0.19632953  0.25473694  0.03795124  1  0  0.101653  0.11018  0  1.020542  0
H  H25  1  0.30367165  0.74525954  0.53795623  1  0  0.101648  0.11013  0  1.02056  0
H  H26  1  0.80367745  0.74525653  0.96204644  1  0  0.101636  0.110125  0  1.020599  0
H  H27  1  0.69632657  0.25474716  0.46204503  1  0  0.101661  0.11016  0  1.020548  0
H  H28  1  0.15410469  0.46283346  0.97275157  1  0  0.092486  0.102025  0  1.052053  0
H  H29  1  0.34589758  0.53716400  0.47275560  1  0  0.092474  0.102031  0  1.051984  0
H  H30  1  0.84590144  0.53716103  0.02724909  1  0  0.092467  0.102031  0  1.05196  0
H  H31  1  0.65410908  0.46284778  0.52724745  1  0  0.092451  0.101984  0  1.052076  0
H  H32  1  0.39171069  0.91229014  0.63343457  1  0  0.107869  0.123425  0  1.000999  0
H  H33  1  0.10828922  0.08771098  0.13343406  1  0  0.107858  0.123399  0  1.000989  0
H  H34  1  0.60828139  0.08771147  0.36656669  1  0  0.107873  0.123402  0  1.001021  0
H  H35  1  0.89171496  0.91228860  0.86656303  1  0  0.107889  0.123451  0  1.001001  0
H  H36  1  0.55410709  0.14796729  0.60425956  1  0  0.09044  0.098093  0  1.067741  0
H  H37  1  0.94588271  0.85203097  0.10426188  1  0  0.090462  0.098119  0  1.067686  0
H  H38  1  0.44587716  0.85203126  0.39574229  1  0  0.090449  0.098103  0  1.067724  0
H  H39  1  0.05412348  0.14796758  0.89573580  1  0  0.090469  0.098128  0  1.067699  0
H  H40  1  0.22445141  0.61570958  0.86568480  1  0  0.290285  0.266806  0  0.996445  0
H  H41  1  0.27555314  0.38429043  0.36568433  1  0  0.290278  0.266866  0  0.996357  0
H  H42  1  0.77554864  0.38428389  0.13431705  1  0  0.290297  0.266876  0  0.996334  0
H  H43  1  0.72445195  0.61571219  0.63431693  1  0  0.290278  0.266762  0  0.996462  0
C  C44  1  0.46412679  0.92249191  0.75716083  1  0  0.102743  0.220587  0  4.022313  0
C  C45  1  0.03587203  0.07751472  0.25715861  1  0  0.102805  0.220606  0  4.022167  0
C  C46  1  0.53586815  0.07750766  0.24284281  1  0  0.102732  0.220526  0  4.022468  0
C  C47  1  0.96412668  0.92248587  0.74283847  1  0  0.102771  0.220559  0  4.022274  0
C  C48  1  0.49946720  0.44191654  0.88334720  1  0  0.031135  -0.015282  0  3.900192  0
C  C49  1  0.00054055  0.55809050  0.38334795  1  0  0.03112  -0.015178  0  3.899838  0
C  C50  1  0.50054281  0.55808710  0.11665525  1  0  0.031078  -0.015188  0  3.89988  0
C  C51  1  0.99946169  0.44191416  0.61665331  1  0  0.031158  -0.015169  0  3.899915  0
C  C52  1  0.41318123  0.26251859  0.97302939  1  0  0.026798  0.064908  0  3.94043  0
C  C53  1  0.08682547  0.73748600  0.47303101  1  0  0.026797  0.065029  0  3.940543  0
C  C54  1  0.58683279  0.73748302  0.02697306  1  0  0.02684  0.065227  0  3.940399  0
C  C55  1  0.91317798  0.26252273  0.52696965  1  0  0.026874  0.065094  0  3.940426  0
C  C56  1  0.55261135  0.00761552  0.81575135  1  0  0.040882  0.0012  0  3.885968  0
C  C57  1  0.94737868  0.99238988  0.31575288  1  0  0.040946  0.001366  0  3.885552  0
C  C58  1  0.44737958  0.99238609  0.18424872  1  0  0.040929  0.001349  0  3.885906  0
C  C59  1  0.05261627  0.00760969  0.68424480  1  0  0.041064  0.001669  0  3.885389  0
C  C60  1  0.63909029  0.18364807  0.72485955  1  0  0.029834  0.070486  0  3.921857  0
C  C61  1  0.86089879  0.81636081  0.22486200  1  0  0.029905  0.070535  0  3.921695  0
C  C62  1  0.36089578  0.81635659  0.27514052  1  0  0.029872  0.07057  0  3.921724  0
C  C63  1  0.13910047  0.18363774  0.77513330  1  0  0.029921  0.070632  0  3.921545  0
C  C64  1  0.36694231  0.49268992  0.89989840  1  0  0.102437  0.220334  0  4.013129  0
C  C65  1  0.13306730  0.50731196  0.39989909  1  0  0.102504  0.220432  0  4.012794  0
C  C66  1  0.63306473  0.50730762  0.10010286  1  0  0.102534  0.220313  0  4.012897  0
C  C67  1  0.86693839  0.49269270  0.60010038  1  0  0.102469  0.220338  0  4.012963  0
C  C68  1  0.44732822  0.70676931  0.82196768  1  0  0.329038  0.636345  0  4.181521  0
C  C69  1  0.05268876  0.29323701  0.32196933  1  0  0.329085  0.636517  0  4.181276  0
C  C70  1  0.55267803  0.29323332  0.17803358  1  0  0.328918  0.636224  0  4.181552  0
C  C71  1  0.94731919  0.70676358  0.67803134  1  0  0.328949  0.636249  0  4.181623  0
C  C72  1  0.27997300  0.30811157  0.99317782  1  0  -0.083895  -0.094207  0  3.990993  0
C  C73  1  0.22003525  0.69188682  0.49318116  1  0  -0.083881  -0.094167  0  3.991005  0
C  C74  1  0.72003805  0.69188394  0.00682105  1  0  -0.083872  -0.094223  0  3.991085  0
C  C75  1  0.77997105  0.30811988  0.50681890  1  0  -0.083929  -0.094193  0  3.991084  0
C  C76  1  0.25654022  0.42438041  0.95691458  1  0  -0.077066  -0.131536  0  3.920786  0
C  C77  1  0.24346334  0.57562120  0.45691805  1  0  -0.077109  -0.131621  0  3.920877  0
C  C78  1  0.74346737  0.57561510  0.04308489  1  0  -0.07717  -0.131585  0  3.920879  0
C  C79  1  0.75653865  0.42438651  0.54308201  1  0  -0.07703  -0.131483  0  3.921009  0
C  C80  1  0.46195314  0.97441274  0.68009350  1  0  -0.070253  -0.113716  0  3.899246  0
C  C81  1  0.03804339  0.02558917  0.18009313  1  0  -0.070253  -0.113709  0  3.899308  0
C  C82  1  0.53803749  0.02558785  0.31990836  1  0  -0.07021  -0.113615  0  3.899413  0
C  C83  1  0.96196048  0.97440939  0.81990514  1  0  -0.070336  -0.11384  0  3.899405  0
C  C84  1  0.55214978  0.10595746  0.66403053  1  0  -0.089804  -0.10907  0  4.008117  0
C  C85  1  0.94784476  0.89404968  0.16403100  1  0  -0.089886  -0.109124  0  4.007959  0
C  C86  1  0.44783769  0.89404415  0.33597133  1  0  -0.089839  -0.109152  0  4.007972  0
C  C87  1  0.05215827  0.10594989  0.83596549  1  0  -0.089793  -0.109086  0  4.008043  0
I  I88  1  0.92035435  0.47643430  0.83727877  1  0  -0.188577  -0.376429  0  1.526736  0
I  I89  1  0.57965333  0.52356083  0.33728724  1  0  -0.188556  -0.376418  0  1.526647  0
I  I90  1  0.07965002  0.52355816  0.16271653  1  0  -0.188562  -0.376423  0  1.526644  0
I  I91  1  0.42035456  0.47643570  0.66271462  1  0  -0.188554  -0.376377  0  1.526654  0
I  I92  1  0.78685782  0.13224601  0.01442660  1  0  -0.208736  -0.386644  0  1.418171  0
I  I93  1  0.71312022  0.86772724  0.51443568  1  0  -0.208739  -0.386654  0  1.418163  0
I  I94  1  0.21312232  0.86772711  0.98556512  1  0  -0.208741  -0.38667  0  1.418145  0
I  I95  1  0.28686799  0.13226521  0.48556498  1  0  -0.208722  -0.386606  0  1.418166  0
N  N96  1  0.63694467  0.13483616  0.79979800  1  0  -0.335578  -0.181943  0  3.614927  0
N  N97  1  0.86304489  0.86517135  0.29979859  1  0  -0.335713  -0.182107  0  3.614944  0
N  N98  1  0.36304311  0.86516647  0.20020326  1  0  -0.335715  -0.18219  0  3.615172  0
N  N99  1  0.13694914  0.13482517  0.70019611  1  0  -0.335774  -0.182285  0  3.614953  0
N  N100  1  0.52067070  0.32995614  0.91971894  1  0  -0.339585  -0.184065  0  3.621539  0
N  N101  1  0.97933760  0.67004978  0.41972088  1  0  -0.339611  -0.184267  0  3.62181  0
N  N102  1  0.47934162  0.67004751  0.08028231  1  0  -0.339589  -0.184314  0  3.621769  0
N  N103  1  0.02066670  0.32995793  0.58027918  1  0  -0.339635  -0.184223  0  3.621695  0
N  N104  1  0.37723194  0.79121601  0.77791565  1  0  -0.414225  -0.45028  0  3.5571  0
N  N105  1  0.12275980  0.20878645  0.27791556  1  0  -0.414238  -0.450237  0  3.55744  0
N  N106  1  0.62276386  0.20878255  0.22208620  1  0  -0.414212  -0.450269  0  3.557092  0
N  N107  1  0.87723776  0.79121414  0.72208391  1  0  -0.414204  -0.450238  0  3.557274  0
N  N108  1  0.33859958  0.60556982  0.86125112  1  0  -0.408251  -0.420892  0  3.622279  0
N  N109  1  0.16139984  0.39443225  0.36125193  1  0  -0.408207  -0.421021  0  3.622712  0
N  N110  1  0.66140023  0.39442670  0.13874954  1  0  -0.408215  -0.420923  0  3.62254  0
N  N111  1  0.83860179  0.60557038  0.63874873  1  0  -0.408197  -0.42078  0  3.622729  0
O  O112  1  0.59446940  0.72358834  0.82692943  1  0  -0.300497  -0.534728  0  2.162017  0
O  O113  1  0.90552058  0.27641701  0.32693316  1  0  -0.300591  -0.53494  0  2.161254  0
O  O114  1  0.40552646  0.27641429  0.17307242  1  0  -0.300471  -0.534727  0  2.161766  0
O  O115  1  0.09447692  0.72357952  0.67307227  1  0  -0.300516  -0.534827  0  2.161597  0
