# generated using pymatgen
data_CdH20C28N2O5
_symmetry_space_group_name_H-M   'P 1'
_cell_length_a   10.26133184
_cell_length_b   14.65956910
_cell_length_c   18.18155608
_cell_angle_alpha   90.00011543
_cell_angle_beta   90.00022644
_cell_angle_gamma   102.70520707
_symmetry_Int_Tables_number   1
_chemical_formula_structural   CdH20C28N2O5
_chemical_formula_sum   'Cd4 H80 C112 N8 O20'
_cell_volume   2668.02406948
_cell_formula_units_Z   4
loop_
 _symmetry_equiv_pos_site_id
 _symmetry_equiv_pos_as_xyz
  1  'x, y, z'
loop_
 _atom_site_type_symbol
 _atom_site_label
 _atom_site_symmetry_multiplicity
 _atom_site_fract_x
 _atom_site_fract_y
 _atom_site_fract_z
 _atom_site_occupancy
 _atom_site_pbe_bader_charge
 _atom_site_pbe_bader_spin_density
 _atom_site_pbe_cm5_charge
 _atom_site_pbe_ddec_charge
 _atom_site_pbe_ddec_spin_density
 _atom_site_pbe_ddec_sum_bond_order
 _atom_site_pbe_magmom
Cd  Cd0  1  0.92804100  0.64655919  0.99621496  1  1.261904  0  0.76513  0.887428  0  2.14897  0
Cd  Cd1  1  0.57196709  0.85344368  0.49621793  1  1.262095  0  0.765158  0.887447  0  2.148967  0
Cd  Cd2  1  0.07195887  0.35343722  0.00378112  1  1.262161  0  0.765158  0.887455  0  2.148995  0
Cd  Cd3  1  0.42803967  0.14656385  0.50378255  1  1.262024  0  0.765155  0.887453  0  2.149016  0
H  H4  1  0.22048582  0.71033682  0.08520970  1  0.128232  0  0.117005  0.090994  0  1.017551  0
H  H5  1  0.27951337  0.78966235  0.58520554  1  0.128605  0  0.11704  0.090984  0  1.017559  0
H  H6  1  0.77950943  0.28965758  0.91479243  1  0.128635  0  0.11705  0.091021  0  1.017488  0
H  H7  1  0.72048241  0.21033626  0.41478450  1  0.128363  0  0.117015  0.091025  0  1.017485  0
H  H8  1  0.33029863  0.82481601  0.18191726  1  0.0949  0  0.109081  0.114659  0  0.998984  0
H  H9  1  0.16969921  0.67518569  0.68191267  1  0.094848  0  0.10908  0.1146  0  0.999122  0
H  H10  1  0.66969735  0.17517767  0.81808432  1  0.094595  0  0.109087  0.114634  0  0.999032  0
H  H11  1  0.83029370  0.32481581  0.31807737  1  0.094915  0  0.109085  0.114646  0  0.998987  0
H  H12  1  0.19937553  0.93448736  0.23665454  1  0.093139  0  0.112509  0.116277  0  0.988511  0
H  H13  1  0.30061378  0.56551122  0.73665336  1  0.092848  0  0.112519  0.116268  0  0.988474  0
H  H14  1  0.80062023  0.06550844  0.76334374  1  0.092966  0  0.112522  0.116316  0  0.98848  0
H  H15  1  0.69937648  0.43449103  0.26334162  1  0.093004  0  0.112544  0.116331  0  0.988564  0
H  H16  1  0.98204230  0.98346512  0.24620468  1  0.10913  0  0.098495  0.098067  0  1.084188  0
H  H17  1  0.51794775  0.51653575  0.74620885  1  0.110124  0  0.098468  0.09798  0  1.084246  0
H  H18  1  0.01795055  0.01653074  0.75379250  1  0.109076  0  0.098482  0.097991  0  1.084246  0
H  H19  1  0.48204284  0.48347565  0.25379713  1  0.109082  0  0.098479  0.098035  0  1.084265  0
H  H20  1  0.74768468  0.96729580  0.20709665  1  0.081944  0  0.108087  0.116448  0  1.001873  0
H  H21  1  0.75230866  0.53270414  0.70710686  1  0.081872  0  0.108155  0.1165  0  1.001807  0
H  H22  1  0.25231033  0.03269790  0.79289889  1  0.081844  0  0.10813  0.116534  0  1.001758  0
H  H23  1  0.24768875  0.46731276  0.29291012  1  0.082376  0  0.108097  0.116531  0  1.001714  0
H  H24  1  0.55931431  0.89382034  0.12300347  1  0.058918  0  0.111496  0.109215  0  0.987278  0
H  H25  1  0.94068558  0.60617771  0.62301256  1  0.058763  0  0.111479  0.109178  0  0.987068  0
H  H26  1  0.44068163  0.10617052  0.87699042  1  0.058766  0  0.111496  0.109225  0  0.987216  0
H  H27  1  0.05931900  0.39382916  0.37700112  1  0.058961  0  0.111548  0.109311  0  0.9874  0
H  H28  1  0.47286745  0.77637763  0.02339849  1  0.095379  0  0.109681  0.116541  0  1.001918  0
H  H29  1  0.02712828  0.72361574  0.52340246  1  0.09552  0  0.109692  0.116602  0  1.001851  0
H  H30  1  0.52713138  0.22361035  0.97659869  1  0.095422  0  0.109678  0.116571  0  1.001903  0
H  H31  1  0.97287212  0.27638489  0.47660407  1  0.095368  0  0.109659  0.116502  0  1.001882  0
H  H32  1  0.62624973  0.67872275  0.97404218  1  0.134348  0  0.116347  0.085737  0  1.026892  0
H  H33  1  0.87374695  0.82127042  0.47404686  1  0.134542  0  0.11641  0.085759  0  1.026977  0
H  H34  1  0.37375371  0.32126724  0.02595390  1  0.134535  0  0.116421  0.085775  0  1.027013  0
H  H35  1  0.12625729  0.17872731  0.52595417  1  0.133986  0  0.116407  0.08577  0  1.026956  0
H  H36  1  0.08993198  0.19285649  0.66128414  1  0.049515  0  0.100963  0.101559  0  1.019146  0
H  H37  1  0.41006809  0.30714305  0.16128228  1  0.049544  0  0.100959  0.101545  0  1.019216  0
H  H38  1  0.91006723  0.80714627  0.33871524  1  0.049491  0  0.100965  0.10158  0  1.019227  0
H  H39  1  0.58993007  0.69285128  0.83871215  1  0.049538  0  0.100972  0.101606  0  1.019183  0
H  H40  1  0.88362029  0.13454127  0.58892702  1  0.067636  0  0.10296  0.104975  0  1.020586  0
H  H41  1  0.61638445  0.36546227  0.08892846  1  0.067612  0  0.102968  0.104979  0  1.020567  0
H  H42  1  0.11637579  0.86546367  0.41107291  1  0.067044  0  0.102953  0.104982  0  1.020607  0
H  H43  1  0.38361786  0.63453550  0.91106707  1  0.06691  0  0.102962  0.105018  0  1.020504  0
H  H44  1  0.71829005  0.36066350  0.66689010  1  0.095545  0  0.103266  0.105407  0  1.026855  0
H  H45  1  0.78171459  0.13933824  0.16689153  1  0.095183  0  0.103273  0.105431  0  1.026802  0
H  H46  1  0.28171137  0.63934274  0.33311313  1  0.09528  0  0.103258  0.105407  0  1.026784  0
H  H47  1  0.21829626  0.86066709  0.83311225  1  0.095599  0  0.103259  0.105417  0  1.026788  0
H  H48  1  0.92432826  0.42056326  0.74155175  1  0.086952  0  0.100066  0.108445  0  1.019554  0
H  H49  1  0.57567285  0.07943533  0.24154988  1  0.08698  0  0.100102  0.108485  0  1.019497  0
H  H50  1  0.07567313  0.57944016  0.25845423  1  0.087088  0  0.10009  0.108491  0  1.019595  0
H  H51  1  0.42433604  0.92056723  0.75845445  1  0.086951  0  0.10006  0.108449  0  1.019489  0
H  H52  1  0.28406317  0.44444501  0.86602171  1  0.112815  0  0.099956  0.112982  0  1.041787  0
H  H53  1  0.21594254  0.05556368  0.36602286  1  0.112777  0  0.099955  0.113028  0  1.041781  0
H  H54  1  0.71592849  0.55555299  0.13397822  1  0.112869  0  0.099946  0.112979  0  1.041809  0
H  H55  1  0.78407094  0.94443807  0.63397597  1  0.112928  0  0.099953  0.113024  0  1.041713  0
H  H56  1  0.49533364  0.51680608  0.92917116  1  0.068451  0  0.101753  0.103406  0  1.021203  0
H  H57  1  0.00467644  0.98320056  0.42917309  1  0.069069  0  0.101815  0.103446  0  1.021124  0
H  H58  1  0.50465998  0.48319469  0.07082822  1  0.068323  0  0.101754  0.103427  0  1.0211  0
H  H59  1  0.99533991  0.01679831  0.57082684  1  0.068421  0  0.101777  0.103406  0  1.021067  0
H  H60  1  0.70939858  0.35974018  0.79471303  1  0.105478  0  0.098212  0.093137  0  1.071749  0
H  H61  1  0.79060178  0.14026075  0.29471558  1  0.10545  0  0.098185  0.093087  0  1.071843  0
H  H62  1  0.29059433  0.64026131  0.20528745  1  0.105357  0  0.09818  0.093069  0  1.071808  0
H  H63  1  0.20940652  0.85973196  0.70528600  1  0.105268  0  0.098189  0.093042  0  1.071882  0
H  H64  1  0.49900355  0.28561262  0.72943670  1  0.096796  0  0.100698  0.111942  0  1.014846  0
H  H65  1  0.00099081  0.21438873  0.22943818  1  0.096817  0  0.100684  0.111882  0  1.014859  0
H  H66  1  0.50099177  0.71438741  0.27056268  1  0.096856  0  0.100699  0.111929  0  1.014831  0
H  H67  1  0.99901219  0.78560550  0.77055955  1  0.096775  0  0.100708  0.111894  0  1.014961  0
H  H68  1  0.27250496  0.27134299  0.70633610  1  0.026025  0  0.102906  0.106026  0  0.997325  0
H  H69  1  0.22749091  0.22866035  0.20633426  1  0.02603  0  0.102899  0.106063  0  0.997336  0
H  H70  1  0.72748764  0.72865217  0.29366658  1  0.026137  0  0.102875  0.106002  0  0.997403  0
H  H71  1  0.77251092  0.77133884  0.79366237  1  0.025946  0  0.102905  0.106089  0  0.997334  0
H  H72  1  0.12789520  0.40256504  0.79087392  1  0.088669  0  0.101506  0.110092  0  1.022992  0
H  H73  1  0.37210209  0.09743789  0.29087053  1  0.088698  0  0.101447  0.109999  0  1.023033  0
H  H74  1  0.87210376  0.59743702  0.20912711  1  0.088643  0  0.101514  0.110097  0  1.023013  0
H  H75  1  0.62790367  0.90256684  0.70913050  1  0.088607  0  0.101531  0.110076  0  1.023024  0
H  H76  1  0.00363391  0.52588025  0.10205330  1  0.653439  0  0.281182  0.381738  0  0.968274  0
H  H77  1  0.49636277  0.97411975  0.60205542  1  0.653406  0  0.281187  0.3817  0  0.968304  0
H  H78  1  0.99636455  0.47412042  0.89794223  1  0.653494  0  0.281181  0.38169  0  0.968331  0
H  H79  1  0.50363669  0.02588372  0.39794671  1  0.653423  0  0.281186  0.381676  0  0.968339  0
H  H80  1  0.87189090  0.46959367  0.06397992  1  0.656383  0  0.284017  0.37835  0  0.969309  0
H  H81  1  0.62810275  0.03040931  0.56398050  1  0.656393  0  0.284046  0.378374  0  0.969256  0
H  H82  1  0.12810610  0.53040562  0.93601727  1  0.656416  0  0.284049  0.378334  0  0.969321  0
H  H83  1  0.37189215  0.96959777  0.43601888  1  0.656334  0  0.283993  0.378272  0  0.969416  0
C  C84  1  0.16812905  0.75981131  0.11010909  1  0.525088  0  0.05823  0.112936  0  3.931414  0
C  C85  1  0.33186744  0.74018801  0.61010826  1  0.524642  0  0.058198  0.112935  0  3.93127  0
C  C86  1  0.83186764  0.24018164  0.88988974  1  0.524757  0  0.058107  0.11282  0  3.931433  0
C  C87  1  0.66812571  0.25981418  0.38988452  1  0.525004  0  0.058122  0.112835  0  3.931495  0
C  C88  1  0.22882657  0.82433159  0.16394068  1  -0.078585  0  -0.082797  -0.132028  0  3.985099  0
C  C89  1  0.27116725  0.67567012  0.66393797  1  -0.078665  0  -0.082914  -0.132106  0  3.985164  0
C  C90  1  0.77116918  0.17566420  0.83605980  1  -0.078239  0  -0.08277  -0.131892  0  3.985146  0
C  C91  1  0.72882398  0.32433211  0.33605536  1  -0.078658  0  -0.082785  -0.131907  0  3.98513  0
C  C92  1  0.15653924  0.88411546  0.19426974  1  -0.013994  0  -0.057411  -0.061503  0  3.91457  0
C  C93  1  0.34345627  0.61588493  0.69426819  1  -0.013668  0  -0.057261  -0.061317  0  3.914311  0
C  C94  1  0.84346088  0.11588165  0.80572909  1  -0.014739  0  -0.057394  -0.061597  0  3.914533  0
C  C95  1  0.65653764  0.38411936  0.30572624  1  -0.014643  0  -0.057385  -0.061574  0  3.91457  0
C  C96  1  0.02341596  0.87864248  0.17118521  1  -0.028208  0  0.001017  0.047237  0  3.998232  0
C  C97  1  0.47657864  0.62135854  0.67118781  1  -0.028239  0  0.000957  0.047225  0  3.998323  0
C  C98  1  0.97658198  0.12135397  0.82881252  1  -0.027598  0  0.001071  0.047218  0  3.998316  0
C  C99  1  0.52341602  0.37864785  0.32881157  1  -0.02718  0  0.001059  0.04717  0  3.998281  0
C  C100  1  0.94013948  0.93447182  0.20304547  1  -0.068481  0  -0.082665  -0.112683  0  3.979383  0
C  C101  1  0.55985311  0.56552882  0.70304926  1  -0.069572  0  -0.082637  -0.112464  0  3.979324  0
C  C102  1  0.05985578  0.06552257  0.79695171  1  -0.068273  0  -0.082722  -0.112535  0  3.979371  0
C  C103  1  0.44013988  0.43448112  0.29695562  1  -0.068058  0  -0.082694  -0.112553  0  3.979379  0
C  C104  1  0.81073760  0.92556472  0.18107691  1  0.022922  0  -0.083653  -0.120633  0  3.968768  0
C  C105  1  0.68925943  0.57443785  0.68108265  1  0.023008  0  -0.083749  -0.120878  0  3.968751  0
C  C106  1  0.18925912  0.07443105  0.81892027  1  0.022785  0  -0.083711  -0.120892  0  3.968774  0
C  C107  1  0.31073940  0.42557478  0.31892719  1  0.021641  0  -0.083713  -0.120915  0  3.968752  0
C  C108  1  0.75512065  0.86132376  0.12416362  1  0.032058  0  0.001545  0.049159  0  4.011304  0
C  C109  1  0.74487685  0.63867576  0.62417014  1  0.027735  0  0.001546  0.049193  0  4.011463  0
C  C110  1  0.24487533  0.13866992  0.87583301  1  0.031969  0  0.001545  0.049175  0  4.011338  0
C  C111  1  0.25512461  0.36133330  0.37583584  1  0.032052  0  0.001583  0.049271  0  4.011102  0
C  C112  1  0.62239886  0.85069114  0.09888235  1  -0.078549  0  -0.060745  -0.074693  0  3.933965  0
C  C113  1  0.87759406  0.64930697  0.59889028  1  -0.078352  0  -0.060608  -0.07434  0  3.933765  0
C  C114  1  0.37759708  0.14929972  0.90111263  1  -0.078502  0  -0.060666  -0.074473  0  3.933881  0
C  C115  1  0.12239819  0.35070088  0.40111900  1  -0.078812  0  -0.060809  -0.074831  0  3.934198  0
C  C116  1  0.57447296  0.78639398  0.04434951  1  0.023034  0  -0.080155  -0.120365  0  3.976871  0
C  C117  1  0.92552117  0.71360037  0.54435600  1  0.022877  0  -0.080272  -0.120756  0  3.977024  0
C  C118  1  0.42552611  0.21359470  0.95564547  1  0.023048  0  -0.080264  -0.120664  0  3.977015  0
C  C119  1  0.07447851  0.28640097  0.45564888  1  0.023196  0  -0.080138  -0.120318  0  3.976759  0
C  C120  1  0.65975364  0.73219065  0.01570955  1  0.510006  0  0.060401  0.114701  0  3.940139  0
C  C121  1  0.84024461  0.76780490  0.51571428  1  0.510328  0  0.060357  0.114831  0  3.940313  0
C  C122  1  0.34024789  0.26780220  0.98428873  1  0.509965  0  0.060347  0.114782  0  3.94025  0
C  C123  1  0.15975916  0.23219424  0.48429005  1  0.510509  0  0.060364  0.114738  0  3.940158  0
C  C124  1  0.83468393  0.80432136  0.09124514  1  0.477768  0  0.122041  0.129849  0  3.961233  0
C  C125  1  0.66531255  0.69567594  0.59125377  1  0.48186  0  0.122037  0.129804  0  3.961104  0
C  C126  1  0.16531252  0.19567090  0.90874874  1  0.47767  0  0.122093  0.12987  0  3.961025  0
C  C127  1  0.33468788  0.30432750  0.40875056  1  0.477698  0  0.122088  0.129938  0  3.960882  0
C  C128  1  0.97097463  0.81209931  0.11599510  1  0.523188  0  0.120216  0.124225  0  3.969343  0
C  C129  1  0.52902158  0.68789950  0.61599847  1  0.523201  0  0.120172  0.124191  0  3.969428  0
C  C130  1  0.02902306  0.18789644  0.88400263  1  0.523093  0  0.120154  0.124346  0  3.969222  0
C  C131  1  0.47097473  0.31210333  0.38400256  1  0.523037  0  0.120113  0.124261  0  3.969288  0
C  C132  1  0.02357944  0.31260561  0.70573085  1  -0.055107  0  -0.009263  0.117971  0  4.02528  0
C  C133  1  0.47641881  0.18739345  0.20572894  1  -0.055142  0  -0.009276  0.117921  0  4.025329  0
C  C134  1  0.97641856  0.68739648  0.29427128  1  -0.05503  0  -0.009338  0.117813  0  4.025437  0
C  C135  1  0.52358739  0.81260705  0.79426989  1  -0.054187  0  -0.009348  0.117762  0  4.025536  0
C  C136  1  0.01036071  0.23144583  0.66202384  1  -0.02364  0  -0.090637  -0.136677  0  3.968095  0
C  C137  1  0.48963839  0.26855374  0.16202374  1  -0.023622  0  -0.090588  -0.136589  0  3.968063  0
C  C138  1  0.98963560  0.76855700  0.33797609  1  -0.023719  0  -0.090595  -0.136613  0  3.96814  0
C  C139  1  0.51036463  0.73144331  0.83797289  1  -0.024021  0  -0.090566  -0.136568  0  3.968109  0
C  C140  1  0.89483163  0.19792656  0.62183681  1  -0.053245  0  -0.08711  -0.10056  0  4.004333  0
C  C141  1  0.60517264  0.30207500  0.12183647  1  -0.05337  0  -0.087152  -0.100641  0  4.004222  0
C  C142  1  0.10516736  0.80207832  0.37816422  1  -0.05294  0  -0.087123  -0.100671  0  4.004269  0
C  C143  1  0.39483379  0.69792338  0.87815961  1  -0.052479  0  -0.08712  -0.100743  0  4.004138  0
C  C144  1  0.78827360  0.24383407  0.62393171  1  -0.015756  0  -0.026329  -0.042921  0  3.991186  0
C  C145  1  0.71172826  0.25616615  0.12393208  1  -0.015572  0  -0.02634  -0.042843  0  3.991047  0
C  C146  1  0.21172733  0.75617078  0.37606932  1  -0.015486  0  -0.026315  -0.042756  0  3.99123  0
C  C147  1  0.28827504  0.74383441  0.87606895  1  -0.015691  0  -0.026293  -0.042686  0  3.990808  0
C  C148  1  0.80122532  0.32532011  0.66608220  1  -0.049354  0  -0.088538  -0.096632  0  3.995617  0
C  C149  1  0.69877398  0.17468033  0.16608296  1  -0.049024  0  -0.088555  -0.096705  0  3.995563  0
C  C150  1  0.19877196  0.67468269  0.33391938  1  -0.04905  0  -0.08861  -0.096795  0  3.995715  0
C  C151  1  0.30123297  0.82532227  0.83391917  1  -0.049339  0  -0.08856  -0.096809  0  3.995364  0
C  C152  1  0.91667114  0.35889346  0.70667349  1  -0.050593  0  -0.092355  -0.142576  0  3.955713  0
C  C153  1  0.58333068  0.14110779  0.20667174  1  -0.050595  0  -0.092355  -0.142554  0  3.955716  0
C  C154  1  0.08332613  0.64110935  0.29332974  1  -0.050642  0  -0.092318  -0.142487  0  3.955793  0
C  C155  1  0.41668064  0.85889612  0.79332874  1  -0.051189  0  -0.092346  -0.142438  0  3.955506  0
C  C156  1  0.37632526  0.36105819  0.79154242  1  0.034661  0  -0.011764  0.108636  0  4.036147  0
C  C157  1  0.12367834  0.13894602  0.29154185  1  0.034952  0  -0.011806  0.108633  0  4.03631  0
C  C158  1  0.62367149  0.63894040  0.20845806  1  0.03478  0  -0.011719  0.108749  0  4.036162  0
C  C159  1  0.87632955  0.86105374  0.70845698  1  0.034893  0  -0.011834  0.10855  0  4.036442  0
C  C160  1  0.37685012  0.42547614  0.84947701  1  -0.099467  0  -0.093159  -0.139628  0  3.939316  0
C  C161  1  0.12315180  0.07453045  0.34947798  1  -0.099709  0  -0.093139  -0.139701  0  3.939384  0
C  C162  1  0.62314591  0.57452317  0.15052292  1  -0.099468  0  -0.093141  -0.139624  0  3.93917  0
C  C163  1  0.87685609  0.92546931  0.65052305  1  -0.099428  0  -0.093118  -0.139658  0  3.939207  0
C  C164  1  0.49508367  0.46632344  0.88514188  1  -0.020668  0  -0.087162  -0.096573  0  3.991698  0
C  C165  1  0.00492218  0.03368250  0.38514308  1  -0.02142  0  -0.087246  -0.096565  0  3.991686  0
C  C166  1  0.50490463  0.53367604  0.11485750  1  -0.020704  0  -0.087132  -0.096587  0  3.99145  0
C  C167  1  0.99509879  0.96631839  0.61485630  1  -0.021091  0  -0.087198  -0.096525  0  3.991473  0
C  C168  1  0.61667962  0.44499568  0.86410530  1  -0.05825  0  -0.02325  -0.045059  0  3.972877  0
C  C169  1  0.88332497  0.05500755  0.36410737  1  -0.058606  0  -0.023236  -0.045106  0  3.972904  0
C  C170  1  0.38331448  0.55500368  0.13589408  1  -0.058384  0  -0.023233  -0.044913  0  3.97279  0
C  C171  1  0.11668751  0.94499141  0.63589531  1  -0.058591  0  -0.023215  -0.045046  0  3.972872  0
C  C172  1  0.61514458  0.37695180  0.80982496  1  -0.116496  0  -0.093204  -0.110648  0  4.017238  0
C  C173  1  0.88485350  0.12305064  0.30982659  1  -0.11594  0  -0.093197  -0.110589  0  4.017263  0
C  C174  1  0.38485098  0.62304893  0.19017332  1  -0.116529  0  -0.0932  -0.110691  0  4.017444  0
C  C175  1  0.11515168  0.87694424  0.69017554  1  -0.115704  0  -0.093157  -0.110522  0  4.017241  0
C  C176  1  0.49733857  0.33532819  0.77406328  1  -0.080762  0  -0.092007  -0.140864  0  3.954507  0
C  C177  1  0.00266002  0.16467324  0.27406469  1  -0.080774  0  -0.091956  -0.140743  0  3.954447  0
C  C178  1  0.50265578  0.66467186  0.22593500  1  -0.080719  0  -0.09202  -0.140867  0  3.954645  0
C  C179  1  0.99734784  0.83532370  0.72593524  1  -0.081146  0  -0.092008  -0.140738  0  3.9547  0
C  C180  1  0.74829418  0.49785499  0.89419367  1  1.577256  0  0.201903  0.578332  0  4.229171  0
C  C181  1  0.75171450  0.00214545  0.39419646  1  1.577195  0  0.201832  0.578241  0  4.22948  0
C  C182  1  0.25169892  0.50214157  0.10580626  1  1.577205  0  0.201821  0.578216  0  4.229316  0
C  C183  1  0.24830066  0.99785556  0.60580787  1  1.577158  0  0.201877  0.578277  0  4.229248  0
C  C184  1  0.66214979  0.20510681  0.58322930  1  1.516001  0  0.192928  0.557679  0  4.220112  0
C  C185  1  0.83785704  0.29489173  0.08323111  1  1.515983  0  0.192868  0.557532  0  4.220262  0
C  C186  1  0.33785360  0.79490220  0.41677228  1  1.515204  0  0.192885  0.557684  0  4.22044  0
C  C187  1  0.16214792  0.70510528  0.91676827  1  1.516093  0  0.192873  0.557632  0  4.220221  0
C  C188  1  0.25874278  0.32302543  0.74734912  1  -0.05162  0  -0.089726  -0.129818  0  3.983288  0
C  C189  1  0.24125634  0.17697799  0.24734723  1  -0.051673  0  -0.089739  -0.129918  0  3.983422  0
C  C190  1  0.74125178  0.67697250  0.25265191  1  -0.0517  0  -0.089735  -0.129923  0  3.983443  0
C  C191  1  0.75875012  0.82302321  0.75265051  1  -0.051679  0  -0.089775  -0.130041  0  3.983507  0
C  C192  1  0.14027955  0.34916780  0.75100326  1  -0.018922  0  -0.091937  -0.134075  0  3.978371  0
C  C193  1  0.35971717  0.15083429  0.25100049  1  -0.018946  0  -0.091872  -0.133953  0  3.978338  0
C  C194  1  0.85971914  0.65083075  0.24899722  1  -0.018874  0  -0.09193  -0.134013  0  3.978376  0
C  C195  1  0.64029003  0.84916901  0.74899724  1  -0.018787  0  -0.091902  -0.133923  0  3.978349  0
N  N196  1  0.78542993  0.74144761  0.03811922  1  -1.246856  0  -0.322068  -0.26737  0  3.49648  0
N  N197  1  0.71457048  0.75855080  0.53812421  1  -1.246941  0  -0.322022  -0.267443  0  3.496382  0
N  N198  1  0.21457235  0.25854734  0.96187796  1  -1.246536  0  -0.322001  -0.267441  0  3.496284  0
N  N199  1  0.28543017  0.24145052  0.46187682  1  -1.246649  0  -0.322054  -0.267483  0  3.496513  0
N  N200  1  0.04388930  0.75452885  0.08669896  1  -1.223907  0  -0.317711  -0.262358  0  3.471144  0
N  N201  1  0.45611306  0.74547097  0.58669952  1  -1.223919  0  -0.31771  -0.262377  0  3.470916  0
N  N202  1  0.95611201  0.24546612  0.91330042  1  -1.223811  0  -0.317699  -0.262406  0  3.470894  0
N  N203  1  0.54388593  0.25453392  0.41329546  1  -1.223744  0  -0.317639  -0.26239  0  3.471084  0
O  O204  1  0.85359338  0.48113844  0.86637492  1  -1.200231  0  -0.32782  -0.573541  0  2.208564  0
O  O205  1  0.64641169  0.01886337  0.36638246  1  -1.199961  0  -0.327691  -0.573405  0  2.208706  0
O  O206  1  0.14639928  0.51886235  0.13362226  1  -1.20011  0  -0.327753  -0.573468  0  2.208603  0
O  O207  1  0.35360178  0.98113838  0.63362682  1  -1.200159  0  -0.327769  -0.573448  0  2.208601  0
O  O208  1  0.74277594  0.55846876  0.94435499  1  -1.159226  0  -0.336788  -0.561297  0  2.271802  0
O  O209  1  0.75723213  0.94152686  0.44435576  1  -1.159415  0  -0.33683  -0.561311  0  2.271848  0
O  O210  1  0.25721807  0.44152214  0.05564879  1  -1.159368  0  -0.336785  -0.561292  0  2.271916  0
O  O211  1  0.24278303  0.05847414  0.55564858  1  -1.159173  0  -0.336838  -0.561336  0  2.271768  0
O  O212  1  0.55832371  0.23640247  0.59680671  1  -1.150181  0  -0.331693  -0.546344  0  2.156198  0
O  O213  1  0.94167618  0.26359276  0.09680760  1  -1.150342  0  -0.331624  -0.546235  0  2.156206  0
O  O214  1  0.44167774  0.76360659  0.40319432  1  -1.149919  0  -0.331685  -0.546329  0  2.156279  0
O  O215  1  0.05832706  0.73640217  0.90319068  1  -1.150312  0  -0.331645  -0.546282  0  2.156302  0
O  O216  1  0.66280938  0.14092662  0.53500786  1  -1.179465  0  -0.333098  -0.582038  0  2.245817  0
O  O217  1  0.83719368  0.35907322  0.03500702  1  -1.179388  0  -0.333096  -0.582026  0  2.245833  0
O  O218  1  0.33718602  0.85908186  0.46499702  1  -1.179096  0  -0.333012  -0.582028  0  2.245967  0
O  O219  1  0.16281615  0.64092650  0.96499236  1  -1.179371  0  -0.333075  -0.58209  0  2.245746  0
O  O220  1  0.91249227  0.53234790  0.08485226  1  -1.286015  0  -0.590575  -0.763275  0  2.09669  0
O  O221  1  0.58750468  0.96765359  0.58485346  1  -1.286009  0  -0.590621  -0.763279  0  2.096604  0
O  O222  1  0.08750473  0.46765139  0.91514327  1  -1.286124  0  -0.590617  -0.76322  0  2.096746  0
O  O223  1  0.41249577  0.03235267  0.41514427  1  -1.285982  0  -0.590577  -0.76318  0  2.096927  0
