# generated using pymatgen
data_MnH18C30N2(O2F3)2
_symmetry_space_group_name_H-M   'P 1'
_cell_length_a   7.70314601
_cell_length_b   22.11953699
_cell_length_c   22.11911635
_cell_angle_alpha   120.00090215
_cell_angle_beta   90.00115930
_cell_angle_gamma   89.99948371
_symmetry_Int_Tables_number   1
_chemical_formula_structural   MnH18C30N2(O2F3)2
_chemical_formula_sum   'Mn3 H54 C90 N6 O12 F18'
_cell_volume   3263.91333500
_cell_formula_units_Z   3
loop_
 _symmetry_equiv_pos_site_id
 _symmetry_equiv_pos_as_xyz
  1  'x, y, z'
loop_
 _atom_site_type_symbol
 _atom_site_label
 _atom_site_symmetry_multiplicity
 _atom_site_fract_x
 _atom_site_fract_y
 _atom_site_fract_z
 _atom_site_occupancy
 _atom_site_pbe_bader_charge
 _atom_site_pbe_bader_spin_density
 _atom_site_pbe_cm5_charge
 _atom_site_pbe_ddec_charge
 _atom_site_pbe_ddec_spin_density
 _atom_site_pbe_ddec_sum_bond_order
 _atom_site_pbe_magmom
Mn  Mn0  1  0.50000797  0.49999364  0.99999894  1  1.543681  4.383443  0.634648  0.903118  4.551685  2.531174  4.331
Mn  Mn1  1  0.49999471  0.49999526  0.49999651  1  1.542917  4.383616  0.6347  0.903284  4.551733  2.530873  4.331
Mn  Mn2  1  0.49999471  0.99999738  0.49999517  1  1.542528  4.383705  0.634675  0.903208  4.551758  2.530949  4.331
H  H3  1  0.13846282  0.39151005  0.83988783  1  0.063984  0.000364  0.098308  0.096471  -7.5e-05  1.053435  0.0
H  H4  1  0.10364177  0.09209066  0.61023898  1  0.10428  0.000632  0.108329  0.11839  -8e-05  1.038441  0.0
H  H5  1  0.87790839  0.01646922  0.52665193  1  0.104271  0.001683  0.119027  0.085914  0.000981  1.019942  0.001
H  H6  1  0.60243126  0.27232901  0.86111243  1  0.052659  0.000286  0.092309  0.12161  5.2e-05  1.071571  0.0
H  H7  1  0.92368839  0.31702090  0.74989601  1  0.072502  9.4e-05  0.099112  0.098152  -1e-06  1.011144  0.0
H  H8  1  0.41569769  0.20789841  0.80577680  1  0.061492  0.0001  0.107181  0.110048  -4.5e-05  0.997739  0.0
H  H9  1  0.20419417  0.13395142  0.71720287  1  0.098895  0.000107  0.100646  0.109367  -7.4e-05  1.032727  0.0
H  H10  1  0.69414091  0.23993663  0.72548314  1  0.078395  0.000837  0.10563  0.112173  0.000481  1.015619  0.0
H  H11  1  0.48647877  0.15685430  0.63593577  1  0.109994  0.001384  0.118326  0.087307  0.000778  0.993743  0.001
H  H12  1  0.13848001  0.44837075  0.60848140  1  0.121994  0.000329  0.098352  0.096559  -7.5e-05  1.053431  0.0
H  H13  1  0.10363453  0.51814596  0.90790663  1  0.107593  0.000629  0.108274  0.118291  -8e-05  1.038557  0.0
H  H14  1  0.87790491  0.51018075  0.98352409  1  0.092356  0.001693  0.119071  0.0859  0.000981  1.019959  0.001
H  H15  1  0.60245183  0.58877484  0.72767967  1  0.04892  0.000285  0.092318  0.121627  5.2e-05  1.071415  0.0
H  H16  1  0.92370052  0.43286761  0.68296570  1  0.057283  9.4e-05  0.099071  0.098104  -1e-06  1.01116  0.0
H  H17  1  0.41571560  0.59786071  0.79210369  1  0.068056  9.5e-05  0.107185  0.110047  -4.5e-05  0.997831  0.0
H  H18  1  0.20420047  0.58323737  0.86604606  1  0.098138  0.000106  0.100733  0.109408  -7.3e-05  1.032715  0.0
H  H19  1  0.69414522  0.48554128  0.76005319  1  0.070496  0.000838  0.105636  0.112088  0.000481  1.015769  0.0
H  H20  1  0.48648192  0.47907910  0.84313356  1  0.109789  0.001395  0.118342  0.087328  0.000777  0.993794  0.001
H  H21  1  0.13848728  0.16011742  0.55162718  1  0.060219  0.000368  0.098334  0.096549  -7.5e-05  1.053391  0.0
H  H22  1  0.10363937  0.38975808  0.48184849  1  0.104539  0.000633  0.108295  0.118326  -8e-05  1.038482  0.0
H  H23  1  0.87790658  0.47334368  0.48981915  1  0.093466  0.00169  0.119055  0.085878  0.000981  1.019913  0.001
H  H24  1  0.60243677  0.13888531  0.41120885  1  0.04916  0.000283  0.092355  0.121648  5.2e-05  1.071547  0.0
H  H25  1  0.92370601  0.25010564  0.56713078  1  0.086271  9.4e-05  0.099155  0.098166  -1e-06  1.011121  0.0
H  H26  1  0.41571337  0.19423348  0.40212930  1  0.072574  9.7e-05  0.107177  0.110061  -4.5e-05  0.997765  0.0
H  H27  1  0.20419777  0.28280077  0.41675149  1  0.103211  0.000107  0.100686  0.109325  -7.3e-05  1.032702  0.0
H  H28  1  0.69414600  0.27451909  0.51445876  1  0.070174  0.000839  0.105635  0.112162  0.000481  1.015629  0.0
H  H29  1  0.48648572  0.36406345  0.52091985  1  0.113536  0.00138  0.11829  0.087252  0.000778  0.993756  0.001
H  H30  1  0.86154477  0.60849427  0.16011219  1  0.064086  0.000364  0.098299  0.096434  -7.5e-05  1.053477  0.0
H  H31  1  0.89635802  0.90791533  0.38976480  1  0.104755  0.000632  0.108326  0.118345  -8e-05  1.038534  0.0
H  H32  1  0.12209011  0.98353872  0.47335171  1  0.104077  0.001684  0.118979  0.085866  0.000981  1.019936  0.001
H  H33  1  0.39756464  0.72767504  0.13888786  1  0.052645  0.000285  0.092316  0.121605  5.1e-05  1.071521  0.0
H  H34  1  0.07631530  0.68298219  0.25010435  1  0.072758  9.4e-05  0.099121  0.098184  -1e-06  1.011163  0.0
H  H35  1  0.58429951  0.79210342  0.19422752  1  0.061941  0.0001  0.107192  0.110067  -4.5e-05  0.997723  0.0
H  H36  1  0.79579784  0.86605151  0.28280307  1  0.098846  0.000107  0.100664  0.10934  -7.3e-05  1.032722  0.0
H  H37  1  0.30586018  0.76006761  0.27452149  1  0.07855  0.000837  0.105646  0.112209  0.000481  1.015668  0.0
H  H38  1  0.51351454  0.84314934  0.36407036  1  0.11029  0.001385  0.118275  0.087327  0.000778  0.993724  0.001
H  H39  1  0.86151200  0.55162151  0.39151440  1  0.122113  0.000329  0.098347  0.096582  -7.5e-05  1.053341  0.0
H  H40  1  0.89636397  0.48185660  0.09209425  1  0.107584  0.000629  0.108284  0.118299  -8e-05  1.038577  0.0
H  H41  1  0.12209878  0.48981618  0.01647429  1  0.092381  0.001693  0.119063  0.085923  0.00098  1.019963  0.001
H  H42  1  0.39754796  0.41121866  0.27231580  1  0.048814  0.000285  0.092312  0.121597  5.2e-05  1.071508  0.0
H  H43  1  0.07629149  0.56713120  0.31703351  1  0.057402  9.4e-05  0.099061  0.098064  -1e-06  1.011152  0.0
H  H44  1  0.58428679  0.40213319  0.20788957  1  0.067922  9.5e-05  0.107194  0.110119  -4.5e-05  0.997876  0.0
H  H45  1  0.79580192  0.41676029  0.13394887  1  0.098007  0.000106  0.100664  0.10933  -7.4e-05  1.032737  0.0
H  H46  1  0.30585068  0.51445900  0.23994906  1  0.070443  0.000838  0.105666  0.112094  0.000481  1.015822  0.0
H  H47  1  0.51351657  0.52091904  0.15686812  1  0.109811  0.001395  0.118351  0.087282  0.000778  0.993864  0.001
H  H48  1  0.86151901  0.83988093  0.44837158  1  0.060156  0.000368  0.098297  0.096493  -7.5e-05  1.05336  0.0
H  H49  1  0.89636303  0.61024577  0.51815472  1  0.104459  0.000633  0.108329  0.118356  -8e-05  1.038577  0.0
H  H50  1  0.12209581  0.52665861  0.51018563  1  0.093358  0.00169  0.119024  0.085846  0.000981  1.019966  0.001
H  H51  1  0.39756173  0.86111080  0.58878401  1  0.049457  0.000283  0.092286  0.121528  5.1e-05  1.07162  0.0
H  H52  1  0.07629639  0.74989224  0.43287116  1  0.08635  9.5e-05  0.099161  0.098172  -1e-06  1.011157  0.0
H  H53  1  0.58427993  0.80576547  0.59786796  1  0.072555  9.7e-05  0.107178  0.110086  -4.5e-05  0.99781  0.0
H  H54  1  0.79580203  0.71720075  0.58325043  1  0.103214  0.000107  0.100639  0.109266  -7.3e-05  1.032798  0.0
H  H55  1  0.30584471  0.72548385  0.48554355  1  0.070377  0.000839  0.105668  0.112167  0.000481  1.015665  0.0
H  H56  1  0.51351278  0.63594189  0.47908276  1  0.113442  0.00138  0.118316  0.087302  0.000777  0.993813  0.001
C  C57  1  0.15289061  0.33502645  0.81195149  1  0.049326  0.007962  -0.085571  -0.090914  0.006089  3.977467  0.005
C  C58  1  0.29373653  0.30573230  0.82880258  1  -0.055477  0.00249  -0.016087  -0.003282  0.000662  3.968795  0.0
C  C59  1  0.40964092  0.35261536  0.88740314  1  0.779353  0.028227  0.132664  0.396977  0.024517  4.034696  0.02
C  C60  1  0.96888048  0.10951321  0.61829001  1  0.018227  0.00214  -0.082303  -0.174797  0.00146  3.935132  0.001
C  C61  1  0.84394239  0.06689499  0.57118760  1  0.458314  0.008004  0.052345  0.106085  0.006388  3.949225  0.005
C  C62  1  0.84307274  0.32346776  0.95717726  1  1.672233  0.004673  0.294537  0.615461  0.003639  4.004515  0.003
C  C63  1  0.67905086  0.36226531  0.95447571  1  0.800804  0.023517  0.099866  0.223114  0.020818  4.146844  0.016
C  C64  1  0.04821032  0.21985475  0.72687945  1  -0.032339  0.010275  -0.005417  0.066169  0.008176  3.994548  0.006
C  C65  1  0.56660214  0.32571084  0.89838695  1  -0.025892  0.004283  -0.154493  -0.417169  0.003405  4.033738  0.001
C  C66  1  0.03181709  0.29299687  0.76208942  1  -0.059158  -6.4e-05  -0.08946  -0.128383  -0.00034  3.979821  -0.001
C  C67  1  0.31109947  0.23268263  0.79293230  1  -0.078584  0.008731  -0.082102  -0.09871  0.006742  3.97299  0.005
C  C68  1  0.19089052  0.19047033  0.74264895  1  -0.001607  -0.001057  -0.085579  -0.122584  -0.001381  3.960702  -0.001
C  C69  1  0.74177014  0.19149962  0.68138379  1  -0.039082  0.002647  -0.087188  -0.186769  0.001917  3.951942  0.001
C  C70  1  0.62512475  0.14527071  0.63186926  1  0.461204  0.007544  0.049178  0.096425  0.005758  3.969482  0.005
C  C71  1  0.91903673  0.17397518  0.67531678  1  -0.033582  0.0069  0.013856  0.1146  0.005302  3.97683  0.004
C  C72  1  0.15290786  0.47691795  0.66496928  1  -0.033911  0.008004  -0.085516  -0.090957  0.006081  3.977667  0.005
C  C73  1  0.29375836  0.52305726  0.69426572  1  -0.10549  0.002511  -0.016183  -0.003278  0.000664  3.968727  0.0
C  C74  1  0.40967052  0.53477810  0.64738625  1  0.752235  0.028307  0.132687  0.397163  0.024487  4.034797  0.02
C  C75  1  0.96887544  0.50877413  0.89048212  1  0.048714  0.002132  -0.082193  -0.174523  0.001457  3.935441  0.001
C  C76  1  0.84394985  0.50429055  0.93309799  1  0.465897  0.007991  0.052247  0.106029  0.006386  3.949285  0.005
C  C77  1  0.84308391  0.63370332  0.67654026  1  1.665909  0.004678  0.294506  0.615531  0.003637  4.004804  0.003
C  C78  1  0.67906462  0.59220566  0.63774356  1  0.795633  0.023557  0.099954  0.223244  0.020799  4.146795  0.016
C  C79  1  0.04821074  0.50701479  0.78013774  1  -0.13258  0.010303  -0.005431  0.066146  0.008166  3.994345  0.006
C  C80  1  0.56662227  0.57266656  0.67429580  1  -0.0035  0.004249  -0.154594  -0.417404  0.003404  4.033782  0.001
C  C81  1  0.03182748  0.46908560  0.70699530  1  0.028888  -8.5e-05  -0.089481  -0.128412  -0.000337  3.979879  -0.001
C  C82  1  0.31111005  0.56023582  0.76731790  1  -0.019187  0.008695  -0.08206  -0.098687  0.006732  3.973181  0.005
C  C83  1  0.19090076  0.55216603  0.80952620  1  0.031392  -0.001061  -0.085719  -0.122706  -0.001378  3.960869  -0.001
C  C84  1  0.74176998  0.48987844  0.80848882  1  -0.017375  0.002636  -0.087224  -0.186687  0.001916  3.951939  0.001
C  C85  1  0.62512552  0.48659491  0.85471867  1  0.444592  0.007549  0.049095  0.096333  0.005758  3.969406  0.005
C  C86  1  0.91903687  0.50133452  0.82601584  1  -0.042504  0.006877  0.013858  0.114605  0.005301  3.976796  0.004
C  C87  1  0.15291266  0.18805141  0.52307913  1  0.05807  0.007955  -0.085518  -0.090962  0.00608  3.977447  0.005
C  C88  1  0.29375918  0.17120492  0.47693639  1  -0.073285  0.002462  -0.016148  -0.00318  0.000665  3.968652  0.0
C  C89  1  0.40966549  0.11260306  0.46521643  1  0.778356  0.02825  0.132675  0.397072  0.024478  4.034716  0.02
C  C90  1  0.96887714  0.38170768  0.49122273  1  0.045723  0.002134  -0.082283  -0.174674  0.001456  3.935412  0.001
C  C91  1  0.84394459  0.42880693  0.49570492  1  0.473409  0.007986  0.05231  0.106169  0.006389  3.949146  0.005
C  C92  1  0.84305917  0.04281359  0.36627355  1  1.671938  0.004686  0.294357  0.615392  0.003638  4.004114  0.003
C  C93  1  0.67905203  0.04552053  0.40778114  1  0.758412  0.023654  0.099843  0.223095  0.020791  4.146656  0.016
C  C94  1  0.04821450  0.27312244  0.49297989  1  -0.039518  0.010282  -0.005468  0.066226  0.008163  3.994373  0.006
C  C95  1  0.56661340  0.10161509  0.42732169  1  0.005949  0.004208  -0.154553  -0.417272  0.003405  4.033658  0.001
C  C96  1  0.03182925  0.23791203  0.53091055  1  -0.05905  -7.4e-05  -0.089516  -0.128475  -0.000336  3.97977  -0.001
C  C97  1  0.31111029  0.20707499  0.43975572  1  -0.095661  0.00872  -0.08209  -0.098791  0.00673  3.973033  0.005
C  C98  1  0.19089665  0.25735403  0.44782337  1  -0.003876  -0.001055  -0.085606  -0.122567  -0.001377  3.960618  -0.001
C  C99  1  0.74177260  0.31861658  0.51011906  1  -0.009375  0.002613  -0.087189  -0.186778  0.001914  3.95198  0.001
C  C100  1  0.62512880  0.36812920  0.51340220  1  0.432728  0.007592  0.049142  0.096429  0.005759  3.969569  0.005
C  C101  1  0.91904131  0.32468522  0.49866267  1  -0.045142  0.00688  0.013868  0.114572  0.005303  3.976807  0.004
C  C102  1  0.84711308  0.66497599  0.18804770  1  0.049179  0.007953  -0.085455  -0.090766  0.006081  3.977311  0.005
C  C103  1  0.70626456  0.69427136  0.17119992  1  -0.055433  0.002493  -0.016248  -0.003436  0.000665  3.968863  0.0
C  C104  1  0.59035887  0.64738765  0.11259819  1  0.779412  0.028201  0.132741  0.397115  0.024493  4.034628  0.02
C  C105  1  0.03111802  0.89049485  0.38171532  1  -0.073396  0.002251  -0.08224  -0.174639  0.001455  3.935274  0.001
C  C106  1  0.15605351  0.93311159  0.42881468  1  0.549303  0.007896  0.052297  0.10604  0.006394  3.949348  0.005
C  C107  1  0.15692965  0.67653021  0.04282007  1  1.67219  0.004671  0.294409  0.615206  0.003637  4.00442  0.003
C  C108  1  0.32095023  0.63773518  0.04552362  1  0.800831  0.0235  0.0999  0.223175  0.020803  4.146782  0.016
C  C109  1  0.95179208  0.78014994  0.27312564  1  -0.031966  0.010263  -0.005432  0.066177  0.008167  3.994478  0.006
C  C110  1  0.43339766  0.67429146  0.10161419  1  -0.026047  0.004279  -0.154487  -0.417212  0.003402  4.033647  0.001
C  C111  1  0.96818660  0.70700705  0.23791282  1  -0.059387  -6e-05  -0.089492  -0.128485  -0.000335  3.979617  -0.001
C  C112  1  0.68889773  0.76732010  0.20707293  1  -0.078797  0.00872  -0.082029  -0.098606  0.006734  3.972968  0.005
C  C113  1  0.80910927  0.80953202  0.25735486  1  -0.002368  -0.001052  -0.085623  -0.122632  -0.001376  3.960647  -0.001
C  C114  1  0.25822706  0.80850442  0.31862014  1  -0.039483  0.002645  -0.087219  -0.186858  0.001914  3.952088  0.001
C  C115  1  0.37487115  0.85473319  0.36813661  1  0.461298  0.007552  0.049209  0.096346  0.005765  3.969675  0.005
C  C116  1  0.08096047  0.82603022  0.32468850  1  -0.033282  0.006907  0.013886  0.114676  0.005309  3.976919  0.004
C  C117  1  0.84709064  0.52307736  0.33502800  1  -0.033844  0.008009  -0.08555  -0.091048  0.006086  3.977626  0.005
C  C118  1  0.70623755  0.47693599  0.30573002  1  -0.105353  0.002513  -0.016161  -0.003186  0.000663  3.96867  0.0
C  C119  1  0.59033317  0.46521315  0.35260697  1  0.751744  0.028324  0.132545  0.39684  0.024503  4.034789  0.02
C  C120  1  0.03112306  0.49122674  0.10951864  1  0.048705  0.002135  -0.082252  -0.174577  0.001459  3.935415  0.001
C  C121  1  0.15605254  0.49570754  0.06690103  1  0.465922  0.007992  0.052282  0.106065  0.006386  3.949237  0.005
C  C122  1  0.15691718  0.36629173  0.32345728  1  1.666222  0.004679  0.294547  0.615505  0.003637  4.004759  0.003
C  C123  1  0.32093518  0.40779341  0.36225539  1  0.795564  0.023565  0.099963  0.22316  0.020806  4.146847  0.016
C  C124  1  0.95178386  0.49298318  0.21985959  1  -0.132316  0.010313  -0.005433  0.066163  0.008174  3.994529  0.006
C  C125  1  0.43337493  0.42732649  0.32569922  1  -0.003175  0.004251  -0.15443  -0.417045  0.003405  4.033586  0.001
C  C126  1  0.96816582  0.53091197  0.29300424  1  0.028897  -8.6e-05  -0.089412  -0.128261  -0.000338  3.979901  -0.001
C  C127  1  0.68888715  0.43975847  0.23267679  1  -0.019001  0.008705  -0.082064  -0.098909  0.00674  3.973269  0.005
C  C128  1  0.80910033  0.44783227  0.19046989  1  0.031307  -0.001062  -0.085652  -0.122535  -0.00138  3.960844  -0.001
C  C129  1  0.25822852  0.51012243  0.19151194  1  -0.017356  0.002637  -0.087168  -0.186519  0.001917  3.951988  0.001
C  C130  1  0.37487298  0.51340168  0.14528094  1  0.444579  0.007549  0.048993  0.096262  0.005758  3.969533  0.005
C  C131  1  0.08096292  0.49866500  0.17398356  1  -0.042814  0.006879  0.013839  0.114492  0.005303  3.976832  0.004
C  C132  1  0.84709233  0.81194688  0.47692060  1  0.05827  0.007962  -0.085486  -0.090897  0.006086  3.977401  0.005
C  C133  1  0.70624321  0.82879434  0.52306327  1  -0.073319  0.002462  -0.016112  -0.003177  0.000663  3.968682  0.0
C  C134  1  0.59034339  0.88739608  0.53478155  1  0.778461  0.028276  0.132746  0.39713  0.024501  4.034484  0.02
C  C135  1  0.03111876  0.61829558  0.50878197  1  0.045905  0.002138  -0.082368  -0.174745  0.001459  3.935634  0.001
C  C136  1  0.15605651  0.57119613  0.50429907  1  0.473437  0.007983  0.052364  0.106175  0.006386  3.949249  0.005
C  C137  1  0.15694712  0.95718497  0.63372229  1  1.672475  0.004686  0.294352  0.61539  0.003638  4.004377  0.003
C  C138  1  0.32095036  0.95447570  0.59221341  1  0.75779  0.023666  0.099831  0.223059  0.020801  4.146951  0.016
C  C139  1  0.95178790  0.72687946  0.50702346  1  -0.049141  0.010306  -0.00543  0.066178  0.008172  3.994473  0.006
C  C140  1  0.43338381  0.89838153  0.57267429  1  0.005799  0.004206  -0.15454  -0.417184  0.003404  4.03363  0.001
C  C141  1  0.96817185  0.76208554  0.46908899  1  -0.059245  -7.4e-05  -0.089531  -0.128471  -0.000338  3.979883  -0.001
C  C142  1  0.68888561  0.79292479  0.56024342  1  -0.095719  0.008731  -0.082126  -0.098879  0.006738  3.973102  0.005
C  C143  1  0.80910185  0.74264594  0.55217648  1  -0.003874  -0.001059  -0.085599  -0.12248  -0.001381  3.960594  -0.001
C  C144  1  0.25822590  0.68138636  0.48988324  1  -0.009646  0.002618  -0.087187  -0.186745  0.001917  3.951897  0.001
C  C145  1  0.37487489  0.63187563  0.48660094  1  0.433172  0.007585  0.049101  0.096387  0.005755  3.969466  0.005
C  C146  1  0.08095329  0.67531837  0.50134080  1  -0.035612  0.006865  0.013889  0.114613  0.005301  3.97687  0.004
N  N147  1  0.67470111  0.08383883  0.57725295  1  -1.265429  0.055698  -0.323676  -0.252935  0.039904  3.511463  0.023
N  N148  1  0.67470047  0.49340751  0.91615082  1  -1.263717  0.055694  -0.323565  -0.252902  0.039912  3.511147  0.023
N  N149  1  0.67470374  0.42274430  0.50658841  1  -1.264778  0.055637  -0.323596  -0.252957  0.039911  3.511338  0.023
N  N150  1  0.32529480  0.91616464  0.42274883  1  -1.26544  0.055714  -0.32366  -0.252893  0.039913  3.51167  0.023
N  N151  1  0.32529933  0.50658838  0.08384860  1  -1.263682  0.055691  -0.323524  -0.252916  0.039914  3.511129  0.023
N  N152  1  0.32529606  0.57725948  0.49341577  1  -1.265054  0.055647  -0.323614  -0.252988  0.039911  3.51125  0.023
O  O153  1  0.35778969  0.41554619  0.92605117  1  -1.157274  0.062737  -0.289052  -0.464965  0.041625  2.333522  0.026
O  O154  1  0.66729604  0.42467140  0.00561887  1  -1.150938  0.063784  -0.292865  -0.450556  0.045326  2.336068  0.031
O  O155  1  0.35780837  0.51049549  0.58445702  1  -1.151486  0.062646  -0.288992  -0.465015  0.041613  2.333578  0.026
O  O156  1  0.66730022  0.58094600  0.57533802  1  -1.15122  0.063688  -0.292762  -0.450412  0.045302  2.335723  0.031
O  O157  1  0.35780088  0.07396327  0.48950396  1  -1.150396  0.062668  -0.289022  -0.465058  0.041619  2.333635  0.026
O  O158  1  0.66728901  0.99438115  0.41904532  1  -1.146422  0.063574  -0.292778  -0.450494  0.045311  2.335927  0.031
O  O159  1  0.64222049  0.58445868  0.07395463  1  -1.157138  0.062706  -0.289096  -0.46497  0.041605  2.333346  0.026
O  O160  1  0.33270895  0.57532864  0.99438001  1  -1.150839  0.063734  -0.292774  -0.450443  0.045292  2.33577  0.031
O  O161  1  0.64219402  0.48949160  0.41553673  1  -1.151385  0.062657  -0.28904  -0.465003  0.041616  2.333554  0.026
O  O162  1  0.33269958  0.41905431  0.42466060  1  -1.15121  0.063697  -0.292846  -0.450501  0.045323  2.335996  0.031
O  O163  1  0.64220411  0.92604149  0.51050016  1  -1.150494  0.062665  -0.289026  -0.46501  0.041613  2.33345  0.026
O  O164  1  0.33271079  0.00561832  0.58095142  1  -1.146445  0.063603  -0.292733  -0.450421  0.045315  2.335895  0.031
F  F165  1  0.98978374  0.35730613  0.95562321  1  -0.619437  0.002475  -0.09823  -0.200951  0.001408  1.344673  0.002
F  F166  1  0.85587592  0.25628625  0.90379228  1  -0.626314  0.001458  -0.106531  -0.205109  0.000889  1.295816  0.001
F  F167  1  0.84766950  0.32134182  0.01800250  1  -0.612843  0.00045  -0.110127  -0.212764  -0.000116  1.287515  0.0
F  F168  1  0.98979617  0.59830637  0.64270059  1  -0.618932  0.002475  -0.09822  -0.201026  0.001407  1.344784  0.002
F  F169  1  0.85590902  0.64750552  0.74372372  1  -0.622544  0.001444  -0.106658  -0.20524  0.000889  1.296097  0.001
F  F170  1  0.84768647  0.69665178  0.67866587  1  -0.617305  0.000447  -0.110027  -0.212702  -0.000116  1.287502  0.0
F  F171  1  0.98978725  0.04439608  0.40167492  1  -0.618714  0.002474  -0.098187  -0.20094  0.001407  1.344635  0.002
F  F172  1  0.85582818  0.09617427  0.35244142  1  -0.617034  0.001441  -0.106519  -0.205082  0.000888  1.29557  0.001
F  F173  1  0.84766016  0.98197595  0.30333331  1  -0.625083  0.000451  -0.110021  -0.212724  -0.000116  1.287341  0.0
F  F174  1  0.01021216  0.64269353  0.04437424  1  -0.619442  0.002474  -0.09819  -0.200903  0.001407  1.344657  0.002
F  F175  1  0.14411220  0.74371360  0.09620588  1  -0.626252  0.001457  -0.106559  -0.205096  0.000889  1.295804  0.001
F  F176  1  0.15233159  0.67865848  0.98199612  1  -0.61287  0.000449  -0.110085  -0.212685  -0.000116  1.287387  0.0
F  F177  1  0.01020882  0.40168690  0.35730144  1  -0.619316  0.002475  -0.09824  -0.201011  0.001407  1.344592  0.002
F  F178  1  0.14408948  0.35249367  0.25627692  1  -0.622544  0.001444  -0.106645  -0.205238  0.000889  1.296184  0.001
F  F179  1  0.15233150  0.30334231  0.32132811  1  -0.617314  0.000447  -0.110069  -0.212678  -0.000116  1.287589  0.0
F  F180  1  0.01021774  0.95560610  0.59832453  1  -0.618873  0.002475  -0.098186  -0.200914  0.001408  1.344765  0.002
F  F181  1  0.14417810  0.90382146  0.64755002  1  -0.617074  0.001441  -0.106508  -0.20511  0.000889  1.295705  0.001
F  F182  1  0.15234873  0.01802124  0.69666481  1  -0.624938  0.000451  -0.110068  -0.212772  -0.000116  1.287293  0.0
