# generated using pymatgen
data_Zn4H24C40N2O13
_symmetry_space_group_name_H-M   'P 1'
_cell_length_a   18.18808376
_cell_length_b   18.24787196
_cell_length_c   22.19603891
_cell_angle_alpha   65.97660812
_cell_angle_beta   65.96184201
_cell_angle_gamma   90.03083843
_symmetry_Int_Tables_number   1
_chemical_formula_structural   Zn4H24C40N2O13
_chemical_formula_sum   'Zn8 H48 C80 N4 O26'
_cell_volume   6021.61012120
_cell_formula_units_Z   2
loop_
 _symmetry_equiv_pos_site_id
 _symmetry_equiv_pos_as_xyz
  1  'x, y, z'
loop_
 _atom_site_type_symbol
 _atom_site_label
 _atom_site_symmetry_multiplicity
 _atom_site_fract_x
 _atom_site_fract_y
 _atom_site_fract_z
 _atom_site_occupancy
 _atom_site_pbe_bader_charge
 _atom_site_pbe_bader_spin_density
 _atom_site_pbe_cm5_charge
 _atom_site_pbe_ddec_charge
 _atom_site_pbe_ddec_spin_density
 _atom_site_pbe_ddec_sum_bond_order
 _atom_site_pbe_magmom
Zn  Zn0  1  0.78476168  0.69532569  0.43534940  1  1.304941  0  0.665169  0.953808  0  2.383152  0
Zn  Zn1  1  0.21523853  0.30467574  0.56464913  1  1.304949  0  0.665159  0.953748  0  2.383305  0
Zn  Zn2  1  0.63053022  0.71611772  0.56115244  1  1.311933  0  0.664683  0.954919  0  2.394364  0
Zn  Zn3  1  0.36946975  0.28388248  0.43884704  1  1.311957  0  0.664658  0.954887  0  2.394338  0
Zn  Zn4  1  0.78015486  0.86953887  0.43885047  1  1.315828  0  0.666038  0.960169  0  2.379203  0
Zn  Zn5  1  0.21984486  0.13046012  0.56114995  1  1.31583  0  0.666039  0.960132  0  2.37919  0
Zn  Zn6  1  0.80337803  0.71793020  0.56500245  1  1.302628  0  0.665182  0.955322  0  2.396332  0
Zn  Zn7  1  0.19662122  0.28206940  0.43500153  1  1.302537  0  0.665186  0.955265  0  2.396494  0
H  H8  1  0.13650879  0.56883540  0.46571726  1  0.072592  0  0.10094  0.087316  0  0.990845  0
H  H9  1  0.57141171  0.00310898  0.37834960  1  0.027191  0  0.099706  0.084752  0  0.992177  0
H  H10  1  0.53057506  0.36243765  0.53169858  1  0.068796  0  0.100402  0.097441  0  0.984697  0
H  H11  1  0.46942660  0.63756194  0.46830009  1  0.068791  0  0.100425  0.097447  0  0.984695  0
H  H12  1  0.50414474  0.44787289  0.61952895  1  0.08754  0  0.096223  0.093306  0  0.99817  0
H  H13  1  0.49585704  0.55212731  0.38046902  1  0.087492  0  0.096196  0.093247  0  0.998209  0
H  H14  1  0.99006938  0.54830155  0.59110828  1  0.075721  0  0.100764  0.090206  0  0.990784  0
H  H15  1  0.00993120  0.45169866  0.40889190  1  0.075734  0  0.100777  0.090241  0  0.990781  0
H  H16  1  0.95068818  0.38207644  0.62147599  1  0.061825  0  0.099898  0.085528  0  0.99179  0
H  H17  1  0.04931240  0.61792377  0.37852464  1  0.06185  0  0.099901  0.08556  0  0.991835  0
H  H18  1  0.08380426  0.04553311  0.04590609  1  0.060684  0  0.104319  0.092465  0  0.986621  0
H  H19  1  0.86349167  0.43116420  0.53428361  1  0.072639  0  0.100956  0.08736  0  0.990859  0
H  H20  1  0.91619680  0.95446648  0.95409504  1  0.060622  0  0.104318  0.092449  0  0.986634  0
H  H21  1  0.13544554  0.96464722  0.95465688  1  0.077375  0  0.104459  0.092596  0  0.986727  0
H  H22  1  0.86455552  0.03535238  0.04534380  1  0.077399  0  0.104416  0.092552  0  0.986806  0
H  H23  1  0.01651941  0.14908453  0.95492566  1  0.033322  0  0.104316  0.093003  0  0.986476  0
H  H24  1  0.98348152  0.85091446  0.04507526  1  0.0333  0  0.104337  0.093046  0  0.986467  0
H  H25  1  0.95078634  0.99634555  0.62189596  1  0.061871  0  0.099815  0.085405  0  0.992066  0
H  H26  1  0.04921291  0.00365404  0.37810397  1  0.061878  0  0.099834  0.085431  0  0.99206  0
H  H27  1  0.98985421  0.86093389  0.59037058  1  0.078846  0  0.101057  0.090739  0  0.99022  0
H  H28  1  0.01014577  0.13906632  0.40962936  1  0.07884  0  0.101051  0.090722  0  0.99022  0
H  H29  1  0.13651363  0.96522080  0.46526662  1  0.078914  0  0.099718  0.085129  0  0.992403  0
H  H30  1  0.35654394  0.51546809  0.05062848  1  0.085454  0  0.104541  0.111417  0  0.979837  0
H  H31  1  0.86348634  0.03477940  0.53473332  1  0.079167  0  0.099716  0.085142  0  0.992406  0
H  H32  1  0.31730590  0.34625201  0.07796477  1  0.067749  0  0.102237  0.10481  0  0.998271  0
H  H33  1  0.23107296  0.26803406  0.05330308  1  0.05081  0  0.099653  0.096007  0  0.994221  0
H  H34  1  0.26828652  0.29246197  0.92442305  1  0.0317  0  0.097238  0.092112  0  1.001084  0
H  H35  1  0.39339900  0.39555519  0.82065248  1  0.051773  0  0.098304  0.093454  0  0.998187  0
H  H36  1  0.47959411  0.47385923  0.84512271  1  0.071204  0  0.094645  0.098731  0  1.045229  0
H  H37  1  0.68269731  0.65374636  0.92203469  1  0.067742  0  0.102243  0.104797  0  0.998303  0
H  H38  1  0.76892881  0.73196309  0.94669818  1  0.050837  0  0.099656  0.09604  0  0.99422  0
H  H39  1  0.73171045  0.70753824  0.07557969  1  0.031734  0  0.097224  0.092125  0  1.001039  0
H  H40  1  0.60659364  0.60444747  0.17934954  1  0.05171  0  0.098342  0.09349  0  0.998141  0
H  H41  1  0.64345543  0.48453212  0.94937120  1  0.085485  0  0.104531  0.111367  0  0.979878  0
H  H42  1  0.52040081  0.52614281  0.15487694  1  0.071069  0  0.094635  0.098717  0  1.045209  0
H  H43  1  0.51131842  0.30990018  0.02327515  1  0.40449  0  0.29694  0.290003  0  0.954032  0
H  H44  1  0.52664040  0.31446251  0.09112363  1  0.399374  0  0.296766  0.289793  0  0.953539  0
H  H45  1  0.48868120  0.69010125  0.97672539  1  0.404506  0  0.296963  0.290027  0  0.954037  0
H  H46  1  0.47335982  0.68553892  0.90887626  1  0.399374  0  0.296763  0.28982  0  0.953526  0
H  H47  1  0.34193291  0.51298744  0.63956274  1  0.405154  0  0.290729  0.284477  0  0.964445  0
H  H48  1  0.30625327  0.43863152  0.62631688  1  0.449308  0  0.28457  0.2852  0  0.988817  0
H  H49  1  0.65806814  0.48701215  0.36043613  1  0.405132  0  0.29076  0.284528  0  0.964392  0
H  H50  1  0.69374803  0.56136929  0.37368105  1  0.449281  0  0.284549  0.28518  0  0.988812  0
H  H51  1  0.39739657  0.96716383  0.46498465  1  0.041055  0  0.099799  0.085818  0  0.991455  0
H  H52  1  0.60260521  0.03283638  0.53501423  1  0.041038  0  0.099797  0.085805  0  0.99149  0
H  H53  1  0.41799450  0.86169985  0.59045524  1  0.064025  0  0.100872  0.090501  0  0.990451  0
H  H54  1  0.58200643  0.13829913  0.40954478  1  0.064019  0  0.100893  0.090541  0  0.990464  0
H  H55  1  0.42859127  0.99689123  0.62164933  1  0.027218  0  0.099697  0.084723  0  0.992162  0
C  C56  1  0.64501142  0.65067533  0.70009922  1  1.578525  0  0.227109  0.678387  0  4.247405  0
C  C57  1  0.10913020  0.10687574  0.77910284  1  0.228073  0  -0.057623  -0.212157  0  4.006842  0
C  C58  1  0.99109738  0.91736535  0.02451850  1  0.021015  0  -0.068606  -0.077463  0  3.629194  0
C  C59  1  0.00890367  0.08263425  0.97548263  1  0.021054  0  -0.068613  -0.077474  0  3.629171  0
C  C60  1  0.96212579  0.96208942  0.07581378  1  0.109713  0  0.007815  0.119551  0  3.794206  0
C  C61  1  0.03787515  0.03790956  0.92418714  1  0.109437  0  0.007794  0.119577  0  3.794372  0
C  C62  1  0.92362289  0.92487044  0.15372033  1  -0.471683  0  -0.027541  -0.038352  0  4.089391  0
C  C63  1  0.07637515  0.07512610  0.84628284  1  -0.471703  0  -0.027385  -0.038122  0  4.089276  0
C  C64  1  0.99482154  0.92298151  0.55037254  1  -0.033613  0  -0.078079  -0.068556  0  3.645055  0
C  C65  1  0.00517723  0.07701869  0.44962824  1  -0.033662  0  -0.078043  -0.068454  0  3.644962  0
C  C66  1  0.97189092  0.99715042  0.56786346  1  -0.002056  0  -0.071189  -0.060993  0  3.62766  0
C  C67  1  0.35498879  0.34932304  0.29990035  1  1.578676  0  0.227166  0.678331  0  4.247394  0
C  C68  1  0.02810905  0.00284979  0.43213647  1  -0.002042  0  -0.071194  -0.061061  0  3.6276  0
C  C69  1  0.05245972  0.05510619  0.49764849  1  0.026979  0  -0.008237  -0.032227  0  3.655574  0
C  C70  1  0.94754038  0.94489463  0.50235210  1  0.026734  0  -0.008227  -0.032085  0  3.655532  0
C  C71  1  0.85227983  0.85323972  0.30022661  1  1.602088  0  0.227707  0.679975  0  4.240848  0
C  C72  1  0.14771941  0.14675988  0.69977377  1  1.602131  0  0.227601  0.679898  0  4.240869  0
C  C73  1  0.07516695  0.97984301  0.48073309  1  -0.072056  0  -0.071293  -0.062777  0  3.628103  0
C  C74  1  0.92483230  0.02015659  0.51926774  1  -0.072355  0  -0.071272  -0.062834  0  3.628146  0
C  C75  1  0.50225578  0.41901479  0.02743631  1  0.454691  0  0.10563  0.23925  0  3.749051  0
C  C76  1  0.49774299  0.58098541  0.97256402  1  0.454627  0  0.105635  0.239228  0  3.749022  0
C  C77  1  0.45497503  0.46125186  0.98015429  1  0.009258  0  0.007115  -0.001154  0  3.650851  0
C  C78  1  0.97188821  0.43515975  0.56764493  1  -0.0039  0  -0.071231  -0.061523  0  3.627451  0
C  C79  1  0.54502435  0.53874834  0.01984584  1  0.009678  0  0.007089  -0.001241  0  3.650865  0
C  C80  1  0.60452539  0.60996058  0.77928506  1  -0.168087  0  -0.055553  -0.218347  0  3.985046  0
C  C81  1  0.39547554  0.39004145  0.22070808  1  -0.168381  0  -0.055555  -0.218262  0  3.98576  0
C  C82  1  0.57935028  0.49110195  0.97230133  1  -0.07266  0  -0.075136  -0.174677  0  3.629629  0
C  C83  1  0.42064861  0.50889887  0.02769786  1  -0.0725  0  -0.07515  -0.174825  0  3.629671  0
C  C84  1  0.53358883  0.53300839  0.92418075  1  0.102393  0  0.00414  0.045154  0  3.806222  0
C  C85  1  0.46640812  0.46698875  0.07582122  1  0.102474  0  0.004219  0.045244  0  3.805884  0
C  C86  1  0.57053447  0.57265059  0.84637804  1  -0.093582  0  -0.021619  -0.007333  0  4.088252  0
C  C87  1  0.42946091  0.42734167  0.15363060  1  -0.093582  0  -0.021721  -0.007378  0  4.088897  0
C  C88  1  0.45390045  0.92336262  0.55038961  1  -0.012196  0  -0.077605  -0.069076  0  3.64516  0
C  C89  1  0.02811164  0.56483985  0.43235615  1  -0.004148  0  -0.071257  -0.061666  0  3.627615  0
C  C90  1  0.54610025  0.07663820  0.44960942  1  -0.012171  0  -0.077597  -0.069115  0  3.645195  0
C  C91  1  0.44359228  0.98101399  0.48054942  1  -0.007904  0  -0.071785  -0.062988  0  3.630134  0
C  C92  1  0.55640889  0.01898621  0.51944966  1  -0.007855  0  -0.071819  -0.063021  0  3.630345  0
C  C93  1  0.45094665  0.05618804  0.49718834  1  0.030614  0  -0.008565  -0.032363  0  3.647536  0
C  C94  1  0.54905345  0.94381278  0.50281180  1  0.030599  0  -0.008529  -0.032386  0  3.647617  0
C  C95  1  0.61662588  0.60822522  0.49476191  1  1.544865  0  0.226956  0.616749  0  4.162912  0
C  C96  1  0.38337228  0.39177499  0.50523548  1  1.544986  0  0.227001  0.616908  0  4.162814  0
C  C97  1  0.46099453  0.99741984  0.56770235  1  0.011042  0  -0.070152  -0.059242  0  3.62487  0
C  C98  1  0.53900725  0.00258037  0.43229742  1  0.011109  0  -0.070174  -0.059314  0  3.624936  0
C  C99  1  0.50148821  0.47017496  0.56673559  1  -0.080645  0  -0.083627  -0.136861  0  3.637696  0
C  C100  1  0.07487060  0.97986425  0.97558969  1  -0.041689  0  -0.066543  -0.074185  0  3.626023  0
C  C101  1  0.49851308  0.52982586  0.43326234  1  -0.080622  0  -0.08362  -0.136846  0  3.637723  0
C  C102  1  0.51755771  0.42417792  0.51813092  1  -0.04285  0  -0.077385  -0.11369  0  3.630814  0
C  C103  1  0.48244467  0.57582229  0.48186821  1  -0.042842  0  -0.077401  -0.113612  0  3.630908  0
C  C104  1  0.44111691  0.45007342  0.50391225  1  -0.022061  0  -0.012421  -0.084171  0  3.676177  0
C  C105  1  0.55888366  0.54992679  0.49608523  1  -0.021858  0  -0.01239  -0.084118  0  3.676416  0
C  C106  1  0.42422617  0.49641377  0.55259285  1  0.487105  0  0.0915  0.266099  0  3.753303  0
C  C107  1  0.57577452  0.50358705  0.44740528  1  0.487044  0  0.091514  0.266319  0  3.753103  0
C  C108  1  0.88935175  0.88791984  0.50245340  1  1.535477  0  0.225958  0.606739  0  4.178166  0
C  C109  1  0.11064992  0.11208282  0.49754605  1  1.535444  0  0.225986  0.606802  0  4.178102  0
C  C110  1  0.60656037  0.88620247  0.50203337  1  1.513809  0  0.225322  0.606628  0  4.174374  0
C  C111  1  0.92512973  0.02013473  0.02441143  1  -0.041685  0  -0.06649  -0.074103  0  3.62595  0
C  C112  1  0.39343948  0.11379713  0.49796636  1  1.513787  0  0.225215  0.606503  0  4.174551  0
C  C113  1  0.88889344  0.60919912  0.50332144  1  1.520624  0  0.226622  0.608288  0  4.17801  0
C  C114  1  0.11110833  0.39079802  0.49668072  1  1.520107  0  0.226685  0.608376  0  4.177996  0
C  C115  1  0.99483078  0.52645641  0.55079323  1  -0.012906  0  -0.077435  -0.06711  0  3.643048  0
C  C116  1  0.00516967  0.47354319  0.44920720  1  -0.012801  0  -0.077466  -0.067142  0  3.643012  0
C  C117  1  0.07514845  0.53909341  0.48096054  1  -0.066011  0  -0.070573  -0.062625  0  3.625911  0
C  C118  1  0.92485200  0.46090618  0.51904078  1  -0.06627  0  -0.070617  -0.062792  0  3.626048  0
C  C119  1  0.05246022  0.44721356  0.49724956  1  0.024603  0  -0.008318  -0.032574  0  3.650986  0
C  C120  1  0.94754107  0.55278420  0.50275255  1  0.024527  0  -0.008366  -0.032507  0  3.651153  0
C  C121  1  0.40462780  0.41601374  0.96316706  1  -0.088703  0  -0.015213  0.071222  0  3.99891  0
C  C122  1  0.04700863  0.02583256  0.02463813  1  0.003973  0  -0.066779  -0.073675  0  3.626463  0
C  C123  1  0.33403207  0.35734081  0.02142206  1  -0.048466  0  -0.094445  -0.134536  0  3.983708  0
C  C124  1  0.28561950  0.31308690  0.00754733  1  -0.038347  0  -0.098671  -0.090783  0  4.058858  0
C  C125  1  0.30653591  0.32661201  0.93532306  1  -0.044731  0  -0.101463  -0.10113  0  4.054743  0
C  C126  1  0.37655007  0.38435553  0.87724596  1  -0.065015  0  -0.098795  -0.084602  0  4.053093  0
C  C127  1  0.42540350  0.42856841  0.89096303  1  0.028683  0  -0.098696  -0.142108  0  3.987239  0
C  C128  1  0.59537121  0.58398769  0.03683188  1  -0.089043  0  -0.01526  0.071149  0  3.99901  0
C  C129  1  0.66596850  0.64265940  0.97857767  1  -0.048821  0  -0.09448  -0.134567  0  3.983819  0
C  C130  1  0.71438023  0.68691209  0.99245445  1  -0.038033  0  -0.09863  -0.090764  0  4.058939  0
C  C131  1  0.69346141  0.67338697  0.06467862  1  -0.044747  0  -0.101429  -0.101152  0  4.054792  0
C  C132  1  0.62344509  0.61564468  0.12275559  1  -0.064947  0  -0.098856  -0.084628  0  4.053038  0
C  C133  1  0.95299231  0.97416642  0.97536324  1  0.004326  0  -0.066784  -0.073684  0  3.626464  0
C  C134  1  0.57459190  0.57143302  0.10903757  1  0.028809  0  -0.098654  -0.142035  0  3.987053  0
C  C135  1  0.89086784  0.89312385  0.22089659  1  0.227966  0  -0.057509  -0.211936  0  4.006888  0
N  N136  1  0.49520505  0.33344015  0.06035453  1  -1.130146  0  -0.610133  -0.650523  0  3.287375  0
N  N137  1  0.50479372  0.66656005  0.93964626  1  -1.130167  0  -0.610172  -0.650575  0  3.287406  0
N  N138  1  0.34373426  0.49431646  0.60162769  1  -1.208766  0  -0.625394  -0.667776  0  3.268751  0
N  N139  1  0.65626692  0.50568374  0.39837049  1  -1.208745  0  -0.625405  -0.667878  0  3.268624  0
O  O140  1  0.74989767  0.75016193  0.49954690  1  -1.221312  0  -0.571956  -1.031599  0  2.543083  0
O  O141  1  0.16902643  0.10067018  0.66758082  1  -1.16239  0  -0.313481  -0.543318  0  2.271815  0
O  O142  1  0.72335372  0.66965208  0.66985001  1  -1.122747  0  -0.313899  -0.543414  0  2.280538  0
O  O143  1  0.27664613  0.33034752  0.33015332  1  -1.122775  0  -0.313867  -0.543328  0  2.280595  0
O  O144  1  0.84327598  0.77533752  0.33047597  1  -1.146219  0  -0.314496  -0.544079  0  2.279706  0
O  O145  1  0.15672773  0.22466330  0.66952520  1  -1.146358  0  -0.314468  -0.54403  0  2.279579  0
O  O146  1  0.58611106  0.63092972  0.54579615  1  -1.176357  0  -0.320914  -0.55224  0  2.325846  0
O  O147  1  0.41388637  0.36906987  0.45420258  1  -1.176268  0  -0.32089  -0.552242  0  2.325958  0
O  O148  1  0.85876236  0.92019249  0.45727084  1  -1.163727  0  -0.320989  -0.553911  0  2.316912  0
O  O149  1  0.14124124  0.07981078  0.54272685  1  -1.163748  0  -0.320997  -0.553924  0  2.316859  0
O  O150  1  0.57567542  0.80976122  0.54199675  1  -1.163665  0  -0.317402  -0.549357  0  2.321315  0
O  O151  1  0.25010279  0.24984073  0.50045249  1  -1.221239  0  -0.571968  -1.031569  0  2.543128  0
O  O152  1  0.42432491  0.19023776  0.45800167  1  -1.163659  0  -0.317377  -0.549358  0  2.321319  0
O  O153  1  0.87194463  0.63804022  0.55002670  1  -1.172481  0  -0.316395  -0.547867  0  2.32881  0
O  O154  1  0.12805799  0.36195815  0.44997431  1  -1.172444  0  -0.316395  -0.547907  0  2.328934  0
O  O155  1  0.68263701  0.91907472  0.46047012  1  -1.16699  0  -0.319991  -0.5526  0  2.319519  0
O  O156  1  0.31736416  0.08092548  0.53952896  1  -1.166985  0  -0.31988  -0.552438  0  2.319556  0
O  O157  1  0.86013416  0.62352701  0.45663659  1  -1.158696  0  -0.321216  -0.553444  0  2.31784  0
O  O158  1  0.13986844  0.37646830  0.54336365  1  -1.158268  0  -0.321289  -0.553464  0  2.318007  0
O  O159  1  0.69042954  0.63236942  0.44323540  1  -1.17589  0  -0.313697  -0.546358  0  2.321695  0
O  O160  1  0.30956851  0.36763323  0.55676075  1  -1.175906  0  -0.313668  -0.546373  0  2.321821  0
O  O161  1  0.87487252  0.81235346  0.54726029  1  -1.172045  0  -0.316083  -0.546126  0  2.329186  0
O  O162  1  0.12512830  0.18764798  0.45273985  1  -1.172095  0  -0.316073  -0.546062  0  2.329261  0
O  O163  1  0.59876239  0.66358472  0.66776520  1  -1.144744  0  -0.314372  -0.54284  0  2.273199  0
O  O164  1  0.40124083  0.33641365  0.33223246  1  -1.144762  0  -0.314346  -0.542847  0  2.273108  0
O  O165  1  0.83097138  0.89933125  0.33241807  1  -1.162454  0  -0.313506  -0.543337  0  2.271797  0
