# generated using pymatgen
data_MnH16C20(N3O5)2
_symmetry_space_group_name_H-M   'P 1'
_cell_length_a   6.29423200
_cell_length_b   7.23961826
_cell_length_c   11.00958012
_cell_angle_alpha   87.00977421
_cell_angle_beta   84.83350841
_cell_angle_gamma   87.91122952
_symmetry_Int_Tables_number   1
_chemical_formula_structural   MnH16C20(N3O5)2
_chemical_formula_sum   'Mn1 H16 C20 N6 O10'
_cell_volume   498.70992835
_cell_formula_units_Z   1
loop_
 _symmetry_equiv_pos_site_id
 _symmetry_equiv_pos_as_xyz
  1  'x, y, z'
loop_
 _atom_site_type_symbol
 _atom_site_label
 _atom_site_symmetry_multiplicity
 _atom_site_fract_x
 _atom_site_fract_y
 _atom_site_fract_z
 _atom_site_occupancy
 _atom_site_hle17_ddec_charge
 _atom_site_hle17_ddec_spin_density
 _atom_site_hle17_ddec_sum_bond_order
 _atom_site_hle17_magmom
 _atom_site_hse06_10hf_ddec_charge
 _atom_site_hse06_10hf_ddec_spin_density
 _atom_site_hse06_10hf_ddec_sum_bond_order
 _atom_site_hse06_10hf_magmom
 _atom_site_hse06_ddec_charge
 _atom_site_hse06_ddec_spin_density
 _atom_site_hse06_ddec_sum_bond_order
 _atom_site_hse06_magmom
 _atom_site_pbe_cm5_charge
 _atom_site_pbe_ddec_charge
 _atom_site_pbe_ddec_spin_density
 _atom_site_pbe_ddec_sum_bond_order
 _atom_site_pbe_magmom
Mn  Mn0  1  0.00001054  0.00000616  0.00000192  1  0.893386  1.166083  2.678512  1.123  0.815725  1.077257  3.222114  1.038  0.860068  1.040704  3.152026  1.003  0.645193  0.790718  1.117714  3.261943  1.079
H  H1  1  0.33551570  0.79029546  0.04013984  1  0.429255  0.00027  0.815934  0.001  0.404607  -0.000405  0.884841  0.0  0.410682  -0.000776  0.879485  0.0  0.328525  0.400688  -1e-05  0.888071  0.001
H  H2  1  0.66449983  0.20970689  0.95986111  1  0.429177  0.00027  0.816058  0.001  0.404519  -0.000404  0.884995  0.0  0.410596  -0.000775  0.879632  0.0  0.328488  0.400599  -1e-05  0.88822  0.001
H  H3  1  0.38511686  0.97138945  0.10972419  1  0.434956  0.000452  0.86011  0.001  0.404668  0.000461  0.922426  0.001  0.41456  0.000736  0.908107  0.001  0.303816  0.397891  8.9e-05  0.932226  0.0
H  H4  1  0.61490651  0.02861576  0.89027446  1  0.434987  0.000452  0.860011  0.001  0.404745  0.000461  0.922265  0.001  0.414635  0.000735  0.907948  0.001  0.30386  0.397968  8.9e-05  0.932065  0.0
H  H5  1  0.66425304  0.80253912  0.70214198  1  0.40258  5.6e-05  0.853925  0.0  0.374054  6.6e-05  0.928317  0.0  0.386932  4.7e-05  0.914023  0.0  0.308425  0.364845  8.1e-05  0.93845  0.0
H  H6  1  0.33573828  0.19744951  0.29785626  1  0.402594  5.6e-05  0.853867  0.0  0.374029  6.6e-05  0.928301  0.0  0.386906  4.7e-05  0.914005  0.0  0.308399  0.364819  8.1e-05  0.938433  0.0
H  H7  1  0.76682923  0.68993726  0.41358567  1  0.110868  -9.9e-05  0.956639  0.0  0.119303  -0.00019  1.024127  0.0  0.122886  -8.6e-05  1.021294  0.0  0.111296  0.116622  -0.000277  1.026266  0.0
H  H8  1  0.23314646  0.31006022  0.58642335  1  0.110812  -9.9e-05  0.956701  0.0  0.119267  -0.00019  1.024163  0.0  0.12285  -8.5e-05  1.021331  0.0  0.11124  0.116588  -0.000277  1.02629  0.0
H  H9  1  0.72281535  0.18639400  0.63690176  1  0.112632  3.6e-05  0.937121  0.0  0.122728  -3.4e-05  0.996249  0.0  0.127336  -9e-06  0.992794  0.0  0.109354  0.118896  -0.000124  0.99955  0.0
H  H10  1  0.27716033  0.81359124  0.36309634  1  0.112568  3.6e-05  0.937159  0.0  0.122731  -3.4e-05  0.996219  0.0  0.127336  -8e-06  0.992769  0.0  0.109359  0.118882  -0.000124  0.999548  0.0
H  H11  1  0.71095685  0.00807935  0.45064394  1  0.100793  -7.4e-05  0.949143  0.0  0.111149  -0.000107  1.011153  0.0  0.11414  -7.1e-05  1.009583  0.0  0.104461  0.10896  -0.000115  1.012502  0.0
H  H12  1  0.28904094  0.99191293  0.54934652  1  0.100765  -7.4e-05  0.9492  0.0  0.111126  -0.000107  1.011197  0.0  0.114122  -7.1e-05  1.009614  0.0  0.104434  0.108937  -0.000115  1.012547  0.0
H  H13  1  0.97142886  0.76941049  0.24522318  1  0.109175  0.000174  0.940871  0.001  0.11744  -0.000422  1.005765  0.0  0.120445  -0.000241  0.999719  0.0  0.146257  0.115258  -0.000601  1.00966  0.0
H  H14  1  0.02854985  0.23060562  0.75478979  1  0.109219  0.000174  0.940932  0.001  0.117477  -0.000422  1.005825  0.0  0.120478  -0.000241  0.999797  0.0  0.14636  0.115292  -0.0006  1.009721  0.0
H  H15  1  0.72974766  0.62060857  0.92055476  1  0.112112  0.000137  0.957902  0.0  0.113065  -6.3e-05  1.030923  0.0  0.11725  -3.4e-05  1.025307  0.0  0.133508  0.109898  -5.8e-05  1.035501  0.0
H  H16  1  0.27029475  0.37939979  0.07944029  1  0.112053  0.000136  0.957897  0.0  0.113001  -6.3e-05  1.030931  0.0  0.117186  -3.5e-05  1.025317  0.0  0.13348  0.109832  -5.8e-05  1.03551  0.0
C  C17  1  0.71835686  0.13822731  0.21561323  1  0.659581  -0.010053  3.880053  -0.004  0.592957  -0.009686  4.208728  -0.004  0.633116  -0.004997  4.195823  -0.001  0.217651  0.565491  -0.013393  4.216149  -0.007
C  C18  1  0.28164740  0.86177966  0.78438228  1  0.659402  -0.010048  3.880461  -0.004  0.592907  -0.009684  4.208943  -0.004  0.633075  -0.004996  4.196027  -0.001  0.217719  0.565423  -0.013391  4.216394  -0.007
C  C19  1  0.74048609  0.24689168  0.32580291  1  -0.089839  -0.00746  3.702853  -0.004  -0.077861  -0.00345  3.950531  -0.002  -0.080197  -0.001825  3.961783  -0.001  -0.002846  -0.077501  -0.00683  3.942681  -0.004
C  C20  1  0.25950743  0.75310948  0.67419431  1  -0.089808  -0.00746  3.703059  -0.004  -0.077869  -0.00345  3.950611  -0.002  -0.080192  -0.001826  3.961902  -0.001  -0.002859  -0.077498  -0.00683  3.94277  -0.004
C  C21  1  0.76408700  0.43934185  0.31559772  1  0.15423  -5.4e-05  3.74179  0.0  0.128217  -0.001186  3.988772  -0.001  0.143623  -0.000461  4.009662  0.0  0.104153  0.123938  -0.002745  3.976179  -0.002
C  C22  1  0.23590300  0.56066093  0.68440314  1  0.154065  -5.4e-05  3.741777  0.0  0.128276  -0.001186  3.988606  -0.001  0.14354  -0.000461  4.009573  0.0  0.104229  0.12398  -0.002745  3.976034  -0.002
C  C23  1  0.76301077  0.53984332  0.42057547  1  -0.146166  -0.002754  3.726763  -0.002  -0.182096  -0.001213  3.987659  -0.001  -0.183767  -0.000351  4.00543  0.0  -0.082506  -0.180371  -0.001711  3.974066  -0.001
C  C24  1  0.23697008  0.46015250  0.57942895  1  -0.146194  -0.002753  3.726779  -0.002  -0.182202  -0.001212  3.987703  -0.001  -0.18386  -0.000351  4.005516  0.0  -0.082573  -0.180481  -0.00171  3.974133  -0.001
C  C25  1  0.74919330  0.44962404  0.53590571  1  -0.066581  0.001065  3.807337  0.001  -0.042364  -0.000424  4.038098  0.0  -0.05065  -0.000278  4.064019  0.0  -0.021503  -0.037368  -0.001407  4.022002  0.0
C  C26  1  0.25078365  0.55036299  0.46409586  1  -0.066462  0.001065  3.80732  0.001  -0.042258  -0.000424  4.038115  0.0  -0.050543  -0.00028  4.064038  0.0  -0.021379  -0.037253  -0.001407  4.022005  0.0
C  C27  1  0.73631112  0.25628081  0.54650710  1  -0.061234  -0.005741  3.691699  -0.004  -0.089504  -0.002311  3.947226  -0.001  -0.088603  -0.000626  3.964947  0.0  -0.081739  -0.090954  -0.006057  3.937069  -0.003
C  C28  1  0.26367702  0.74370771  0.45349125  1  -0.061126  -0.00574  3.691562  -0.004  -0.089464  -0.002311  3.947096  -0.001  -0.088562  -0.000626  3.964818  0.0  -0.081705  -0.090905  -0.006056  3.93695  -0.003
C  C29  1  0.72899195  0.15755943  0.44202608  1  -0.06073  0.001053  3.715463  0.001  -0.084764  -0.000538  3.970928  0.0  -0.086344  -0.000528  3.989179  0.0  -0.08206  -0.083819  -0.000516  3.959979  0.0
C  C30  1  0.27100387  0.84243462  0.55796887  1  -0.060705  0.001053  3.715406  0.001  -0.084732  -0.000538  3.970862  0.0  -0.086312  -0.000527  3.989111  0.0  -0.08207  -0.083785  -0.000515  3.959904  0.0
C  C31  1  0.73203719  0.55634386  0.64842949  1  0.627859  -0.001708  3.838545  -0.001  0.577509  -0.001022  4.141869  -0.001  0.609276  -0.000308  4.135677  0.0  0.22285  0.555518  -0.002742  4.146859  -0.002
C  C32  1  0.26794793  0.44363947  0.35157391  1  0.627751  -0.001708  3.838827  -0.001  0.577353  -0.001021  4.142194  -0.001  0.609113  -0.000309  4.136003  0.0  0.222773  0.555357  -0.002742  4.147187  -0.002
C  C33  1  0.88671201  0.70187272  0.17991711  1  0.185101  -0.028571  3.604639  -0.017  0.111628  -0.009872  3.869314  -0.005  0.14205  -0.002995  3.87674  -0.001  0.162144  0.097662  -0.01518  3.866598  -0.009
C  C34  1  0.11328502  0.29813785  0.82008930  1  0.184857  -0.028569  3.604787  -0.017  0.111433  -0.00987  3.869558  -0.005  0.141764  -0.002994  3.876963  -0.001  0.161957  0.097466  -0.015175  3.866832  -0.009
C  C35  1  0.76647366  0.62206733  0.01526594  1  0.194122  -0.007124  3.632251  -0.005  0.1436  -0.001593  3.928701  -0.001  0.156947  -0.001732  3.933037  -0.001  0.14849  0.135015  -0.000329  3.923906  0.0
C  C36  1  0.23355744  0.37794091  0.98473223  1  0.194223  -0.007124  3.632134  -0.005  0.143657  -0.001593  3.928573  -0.001  0.156993  -0.00173  3.932941  -0.001  0.148574  0.135068  -0.000329  3.923779  0.0
N  N37  1  0.87488549  0.75931603  0.06339211  1  -0.35338  -0.013376  3.296437  -0.007  -0.304425  -0.010236  3.607328  -0.008  -0.322474  -0.008142  3.606625  -0.007  -0.362071  -0.292753  -0.012014  3.60365  -0.01
N  N38  1  0.12513069  0.24069510  0.93661271  1  -0.353296  -0.013377  3.296558  -0.007  -0.304194  -0.010237  3.607294  -0.008  -0.322245  -0.008144  3.606635  -0.007  -0.362018  -0.292517  -0.012015  3.6036  -0.01
N  N39  1  0.78856453  0.53878376  0.20116214  1  0.009257  -0.000678  3.57573  0.0  0.125799  -0.00177  3.75329  -0.001  0.083371  -0.000716  3.815245  0.0  -0.118914  0.134199  -0.00277  3.737523  -0.002
N  N40  1  0.21143617  0.46122372  0.79883983  1  0.009645  -0.000676  3.575455  0.0  0.125829  -0.001769  3.753376  -0.001  0.083662  -0.000716  3.815085  0.0  -0.118948  0.134233  -0.002768  3.737608  -0.002
N  N41  1  0.71194738  0.48593905  0.09597634  1  -0.246279  0.004095  2.853363  0.005  -0.244966  0.000729  3.125686  0.001  -0.243446  0.000212  3.143712  0.001  -0.207951  -0.239399  0.000813  3.11733  0.001
N  N42  1  0.28807280  0.51406846  0.90401860  1  -0.246389  0.004094  2.853272  0.005  -0.244974  0.000729  3.125677  0.001  -0.243528  0.000212  3.143662  0.001  -0.207936  -0.239416  0.000813  3.117339  0.001
O  O43  1  0.89385649  0.10521111  0.15249796  1  -0.562136  -0.000772  2.203348  -0.006  -0.515866  0.012104  2.500762  0.006  -0.551663  0.008984  2.491255  0.003  -0.30058  -0.490045  0.015293  2.504175  0.009
O  O44  1  0.10615502  0.89480089  0.84750331  1  -0.562103  -0.000775  2.203602  -0.006  -0.51587  0.012102  2.500971  0.006  -0.551651  0.008983  2.491415  0.003  -0.300603  -0.490041  0.015291  2.504392  0.009
O  O45  1  0.53061171  0.09110599  0.19770368  1  -0.635261  -0.001205  1.979979  0.0  -0.580465  -0.002999  2.209715  -0.002  -0.604906  -0.0016  2.19603  -0.001  -0.303317  -0.563609  -0.004238  2.218746  -0.003
O  O46  1  0.46939590  0.90890444  0.80228326  1  -0.635154  -0.001203  1.980164  0.0  -0.580464  -0.002997  2.209872  -0.002  -0.604914  -0.001598  2.196185  -0.001  -0.303362  -0.563602  -0.004237  2.218912  -0.003
O  O47  1  0.27002308  0.89712729  0.08112302  1  -0.772598  -0.010533  1.983402  -0.013  -0.722389  -0.003952  2.203137  -0.007  -0.74995  -0.004298  2.17838  -0.006  -0.543201  -0.70138  -0.00255  2.217777  -0.006
O  O48  1  0.72999847  0.10288303  0.91887166  1  -0.772546  -0.010535  1.983443  -0.013  -0.722356  -0.003955  2.203116  -0.007  -0.749925  -0.004299  2.178374  -0.006  -0.543183  -0.701349  -0.002553  2.217754  -0.006
O  O49  1  0.71216976  0.48113558  0.75151943  1  -0.539363  1.8e-05  1.982618  0.001  -0.507663  -0.00033  2.220648  0.0  -0.525026  -0.00024  2.212299  0.0  -0.281441  -0.497033  -0.000812  2.226908  0.0
O  O50  1  0.28781202  0.51884911  0.24848489  1  -0.539291  1.8e-05  1.982843  0.001  -0.507593  -0.00033  2.220918  0.0  -0.524951  -0.00024  2.212568  0.0  -0.281386  -0.496963  -0.000812  2.227179  0.0
O  O51  1  0.73311544  0.74105810  0.62739185  1  -0.555673  -0.000199  2.10959  0.0  -0.502277  -0.000187  2.329282  0.0  -0.525653  -1.8e-05  2.318304  0.0  -0.335437  -0.486049  -0.000658  2.337021  -0.001
O  O52  1  0.26687303  0.25892508  0.37260871  1  -0.555712  -0.000199  2.109564  0.0  -0.502181  -0.000187  2.329146  0.0  -0.525577  -1.7e-05  2.318221  0.0  -0.33541  -0.485954  -0.000658  2.336889  -0.001
