# generated using pymatgen
data_CdH18C22(NO)8
_symmetry_space_group_name_H-M   'P 1'
_cell_length_a   7.79986690
_cell_length_b   8.25563479
_cell_length_c   9.91380668
_cell_angle_alpha   93.52747343
_cell_angle_beta   97.36410422
_cell_angle_gamma   112.67027058
_symmetry_Int_Tables_number   1
_chemical_formula_structural   CdH18C22(NO)8
_chemical_formula_sum   'Cd1 H18 C22 N8 O8'
_cell_volume   579.88944543
_cell_formula_units_Z   1
loop_
 _symmetry_equiv_pos_site_id
 _symmetry_equiv_pos_as_xyz
  1  'x, y, z'
loop_
 _atom_site_type_symbol
 _atom_site_label
 _atom_site_symmetry_multiplicity
 _atom_site_fract_x
 _atom_site_fract_y
 _atom_site_fract_z
 _atom_site_occupancy
 _atom_site_hle17_bader_spin_density
 _atom_site_hle17_ddec_charge
 _atom_site_hle17_ddec_spin_density
 _atom_site_hle17_ddec_sum_bond_order
 _atom_site_hle17_magmom
 _atom_site_hse06_10hf_bader_spin_density
 _atom_site_hse06_10hf_ddec_charge
 _atom_site_hse06_10hf_ddec_spin_density
 _atom_site_hse06_10hf_ddec_sum_bond_order
 _atom_site_hse06_10hf_magmom
 _atom_site_hse06_bader_spin_density
 _atom_site_hse06_ddec_charge
 _atom_site_hse06_ddec_spin_density
 _atom_site_hse06_ddec_sum_bond_order
 _atom_site_hse06_magmom
 _atom_site_pbe_bader_spin_density
 _atom_site_pbe_cm5_charge
 _atom_site_pbe_ddec_charge
 _atom_site_pbe_ddec_spin_density
 _atom_site_pbe_ddec_sum_bond_order
 _atom_site_pbe_magmom
Cd  Cd0  1  0.50000044  0.49999931  0.99999977  1  0  1.029648  0  1.729008  0  0  0.814777  0  2.176255  0  0  0.872241  0  2.131077  0  0  0.785891  0.774822  0  2.206569  0
H  H1  1  0.51787892  0.12665097  0.86321355  1  0  0.078443  0  0.977352  0  0  0.083989  0  1.050556  0  0  0.086376  0  1.048013  0  0  0.110275  0.082009  0  1.052703  0
H  H2  1  0.48211969  0.87334921  0.13678618  1  0  0.07844  0  0.977349  0  0  0.083991  0  1.050547  0  0  0.086377  0  1.048004  0  0  0.110278  0.082009  0  1.052694  0
H  H3  1  0.40915912  0.92722600  0.64034975  1  0  0.114918  0  0.945131  0  0  0.125571  0  1.001893  0  0  0.1283  0  1.001691  0  0  0.110784  0.12357  0  1.002244  0
H  H4  1  0.59083895  0.07277286  0.35964985  1  0  0.114951  0  0.945078  0  0  0.125581  0  1.001867  0  0  0.128309  0  1.001662  0  0  0.110786  0.123579  0  1.002218  0
H  H5  1  0.26345902  0.02074997  0.43751044  1  0  0.111813  0  0.954023  0  0  0.122132  0  1.015337  0  0  0.125207  0  1.013024  0  0  0.111716  0.119743  0  1.017409  0
H  H6  1  0.73654200  0.97925287  0.56248967  1  0  0.111823  0  0.953974  0  0  0.122141  0  1.015295  0  0  0.125216  0  1.012983  0  0  0.11172  0.119753  0  1.017365  0
H  H7  1  0.36130879  0.50382691  0.68703155  1  0  0.094303  0  0.98532  0  0  0.09773  0  1.055863  0  0  0.101122  0  1.053232  0  0  0.113196  0.09529  0  1.057711  0
H  H8  1  0.63869242  0.49617328  0.31296845  1  0  0.0943  0  0.985335  0  0  0.097727  0  1.055875  0  0  0.101115  0  1.053253  0  0  0.113194  0.095288  0  1.057717  0
H  H9  1  0.17384490  0.22622626  0.34572271  1  0  0.291414  0  0.943123  0  0  0.267299  0  1.020018  0  0  0.276068  0  1.012544  0  0  0.302722  0.261093  0  1.025191  0
H  H10  1  0.82615501  0.77377393  0.65427715  1  0  0.291435  0  0.943108  0  0  0.267313  0  1.020015  0  0  0.276083  0  1.012539  0  0  0.302716  0.261108  0  1.025189  0
H  H11  1  0.89958299  0.18205069  0.25760853  1  0  0.105263  0  0.969726  0  0  0.112835  0  1.035217  0  0  0.115854  0  1.034572  0  0  0.109597  0.110821  0  1.03552  0
H  H12  1  0.10041619  0.81795082  0.74239132  1  0  0.105263  0  0.969704  0  0  0.112838  0  1.035198  0  0  0.115859  0  1.03455  0  0  0.109581  0.110822  0  1.035505  0
H  H13  1  0.65542189  0.20083561  0.08182267  1  0  0.081623  0  0.968123  0  0  0.088807  0  1.036144  0  0  0.091152  0  1.033652  0  0  0.11408  0.086937  0  1.038347  0
H  H14  1  0.34457820  0.79916194  0.91817708  1  0  0.081623  0  0.968123  0  0  0.088809  0  1.036142  0  0  0.091154  0  1.033651  0  0  0.114088  0.08694  0  1.038343  0
H  H15  1  0.93315233  0.74634459  0.10479617  1  0  0.085853  0  0.94864  0  0  0.089275  0  1.019142  0  0  0.092349  0  1.016314  0  0  0.112903  0.086976  0  1.021259  0
H  H16  1  0.06684832  0.25365428  0.89520472  1  0  0.08584  0  0.948666  0  0  0.089256  0  1.019173  0  0  0.09233  0  1.016346  0  0  0.112895  0.086957  0  1.021291  0
H  H17  1  0.18146422  0.75129398  0.29038240  1  0  0.10892  0  0.967168  0  0  0.1137  0  1.038133  0  0  0.117437  0  1.036187  0  0  0.107367  0.111101  0  1.039539  0
H  H18  1  0.81853513  0.24870489  0.70961835  1  0  0.108901  0  0.967177  0  0  0.113676  0  1.038151  0  0  0.117413  0  1.036205  0  0  0.107362  0.111077  0  1.039557  0
C  C19  1  0.45612430  0.16429161  0.77212860  1  0  0.106256  0  3.722828  0  0  0.070474  0  3.98062  0  0  0.076105  0  4.000505  0  0  0.034508  0.067263  0  3.966764  0
C  C20  1  0.54387562  0.83570858  0.22787126  1  0  0.106295  0  3.722905  0  0  0.070515  0  3.980689  0  0  0.076147  0  4.000573  0  0  0.034529  0.067302  0  3.96683  0
C  C21  1  0.39597719  0.05395116  0.64818549  1  0  -0.105023  0  3.75471  0  0  -0.116571  0  4.009103  0  0  -0.121928  0  4.030342  0  0  -0.084559  -0.113314  0  3.994742  0
C  C22  1  0.60402272  0.94604903  0.35181437  1  0  -0.105092  0  3.754747  0  0  -0.116624  0  4.009144  0  0  -0.121977  0  4.030379  0  0  -0.084585  -0.113368  0  3.994784  0
C  C23  1  0.31491058  0.10555643  0.53512305  1  0  -0.096761  0  3.666637  0  0  -0.121931  0  3.913704  0  0  -0.121236  0  3.930443  0  0  -0.069844  -0.122001  0  3.902582  0
C  C24  1  0.68509064  0.89444376  0.46487493  1  0  -0.09672  0  3.666681  0  0  -0.121896  0  3.913736  0  0  -0.121201  0  3.930475  0  0  -0.069843  -0.121967  0  3.902614  0
C  C25  1  0.30030972  0.27017367  0.54668468  1  0  0.224091  0  3.763234  0  0  0.223343  0  4.006527  0  0  0.228228  0  4.027907  0  0  0.10712  0.219808  0  3.992162  0
C  C26  1  0.69968947  0.72982784  0.45331416  1  0  0.224014  0  3.763217  0  0  0.223284  0  4.006482  0  0  0.228168  0  4.027864  0  0  0.107115  0.219749  0  3.992118  0
C  C27  1  0.36720805  0.37469443  0.67444973  1  0  0.030643  0  3.662048  0  0  -0.008776  0  3.915964  0  0  -0.004653  0  3.933647  0  0  0.033903  -0.011647  0  3.90418  0
C  C28  1  0.63279316  0.62530576  0.32555027  1  0  0.030655  0  3.662049  0  0  -0.008759  0  3.915947  0  0  -0.004635  0  3.933628  0  0  0.033897  -0.011632  0  3.904163  0
C  C29  1  0.19088231  0.47180242  0.41864078  1  0  0.543089  0  3.798839  0  0  0.49921  0  4.082545  0  0  0.527676  0  4.081561  0  0  0.246406  0.479926  0  4.082691  0
C  C30  1  0.80911703  0.52819645  0.58136097  1  0  0.543129  0  3.798808  0  0  0.499228  0  4.082528  0  0  0.527693  0  4.081543  0  0  0.246378  0.479943  0  4.082676  0
C  C31  1  0.06031873  0.46709271  0.29164991  1  0  0.015001  0  3.709715  0  0  0.028608  0  3.945993  0  0  0.028973  0  3.96392  0  0  0.011618  0.028288  0  3.934414  0
C  C32  1  0.93968246  0.53290748  0.70835110  1  0  0.014912  0  3.709798  0  0  0.028588  0  3.945992  0  0  0.028953  0  3.96392  0  0  0.011617  0.028271  0  3.934408  0
C  C33  1  0.91410170  0.31046024  0.22742209  1  0  -0.109972  0  3.687514  0  0  -0.135318  0  3.941194  0  0  -0.13952  0  3.959397  0  0  -0.075259  -0.132507  0  3.929121  0
C  C34  1  0.08590081  0.68953996  0.77257703  1  0  -0.109956  0  3.68749  0  0  -0.135329  0  3.941157  0  0  -0.139532  0  3.959362  0  0  -0.075251  -0.132518  0  3.929084  0
C  C35  1  0.77680179  0.31956304  0.12769084  1  0  0.128612  0  3.69364  0  0  0.097722  0  3.948247  0  0  0.104409  0  3.965859  0  0  0.045181  0.093126  0  3.936535  0
C  C36  1  0.22319943  0.68043716  0.87230815  1  0  0.128619  0  3.693636  0  0  0.097719  0  3.948268  0  0  0.104407  0  3.965881  0  0  0.045167  0.093124  0  3.936552  0
C  C37  1  0.93014222  0.62355324  0.14116187  1  0  0.129249  0  3.700994  0  0  0.097054  0  3.958501  0  0  0.103503  0  3.976978  0  0  0.043067  0.092751  0  3.946282  0
C  C38  1  0.06985714  0.37644563  0.85883787  1  0  0.129239  0  3.700945  0  0  0.097057  0  3.958446  0  0  0.103506  0  3.976924  0  0  0.043078  0.092753  0  3.946226  0
C  C39  1  0.06963347  0.62604151  0.24457453  1  0  -0.110496  0  3.679356  0  0  -0.134975  0  3.933029  0  0  -0.139921  0  3.951987  0  0  -0.074661  -0.131979  0  3.920784  0
C  C40  1  0.93036588  0.37395736  0.75542622  1  0  -0.110378  0  3.679365  0  0  -0.134878  0  3.933014  0  0  -0.139823  0  3.951972  0  0  -0.074621  -0.13189  0  3.920787  0
N  N41  1  0.43961839  0.32037144  0.78450613  1  0  -0.318943  0  3.275486  0  0  -0.2383  0  3.538764  0  0  -0.258113  0  3.560766  0  0  -0.326579  -0.224819  0  3.523253  0
N  N42  1  0.56038153  0.67962875  0.21549273  1  0  -0.318932  0  3.275444  0  0  -0.2383  0  3.538729  0  0  -0.258114  0  3.560731  0  0  -0.32657  -0.224818  0  3.523212  0
N  N43  1  0.21457464  0.31733667  0.43228402  1  0  -0.438876  0  3.362685  0  0  -0.383089  0  3.597545  0  0  -0.406376  0  3.607545  0  0  -0.392779  -0.367236  0  3.590295  0
N  N44  1  0.78542731  0.68266221  0.56771599  1  0  -0.438892  0  3.362519  0  0  -0.383114  0  3.5974  0  0  -0.406402  0  3.6074  0  0  -0.392754  -0.367257  0  3.590141  0
N  N45  1  0.78197290  0.47339293  0.08658670  1  0  -0.340131  0  3.256962  0  0  -0.261037  0  3.520267  0  0  -0.281173  0  3.54071  0  0  -0.33517  -0.247211  0  3.506346  0
N  N46  1  0.21802701  0.52660726  0.91341316  1  0  -0.340154  0  3.256907  0  0  -0.261067  0  3.520215  0  0  -0.281202  0  3.540655  0  0  -0.335182  -0.247238  0  3.506289  0
N  N47  1  0.25695760  0.12551945  0.13017651  1  0  0.697477  0  4.140606  0  0  0.730763  0  4.428183  0  0  0.759146  0  4.434111  0  0  0.101482  0.711727  0  4.423577  0
N  N48  1  0.74304232  0.87448074  0.86982335  1  0  0.697467  0  4.140646  0  0  0.730737  0  4.428246  0  0  0.759122  0  4.434173  0  0  0.101476  0.711701  0  4.423641  0
O  O49  1  0.26085607  0.60518497  0.50461356  1  0  -0.528537  0  1.915504  0  0  -0.486883  0  2.131773  0  0  -0.507774  0  2.129649  0  0  -0.283569  -0.472096  0  2.132909  0
O  O50  1  0.73914385  0.39481523  0.49538631  1  0  -0.528544  0  1.915475  0  0  -0.486888  0  2.131747  0  0  -0.507778  0  2.129624  0  0  -0.283561  -0.4721  0  2.132884  0
O  O51  1  0.31388306  0.29454496  0.13986445  1  0  -0.501386  0  1.837904  0  0  -0.478568  0  2.086729  0  0  -0.498497  0  2.080068  0  0  -0.205715  -0.464558  0  2.090475  0
O  O52  1  0.68611556  0.70545523  0.86013527  1  0  -0.501369  0  1.837922  0  0  -0.478556  0  2.086751  0  0  -0.498483  0  2.080085  0  0  -0.205716  -0.464546  0  2.090498  0
O  O53  1  0.14619886  0.04477028  0.21017917  1  0  -0.463767  0  1.753242  0  0  -0.447415  0  1.957299  0  0  -0.461909  0  1.95095  0  0  -0.184206  -0.437008  0  1.961394  0
O  O54  1  0.85379920  0.95522858  0.78982043  1  0  -0.463785  0  1.753312  0  0  -0.447404  0  1.957357  0  0  -0.461899  0  1.951001  0  0  -0.184198  -0.436996  0  1.961452  0
O  O55  1  0.30982037  0.04384186  0.04524468  1  0  -0.447901  0  1.766318  0  0  -0.443032  0  1.982772  0  0  -0.456925  0  1.977378  0  0  -0.176533  -0.433458  0  1.986449  0
O  O56  1  0.69017955  0.95615833  0.95475518  1  0  -0.447905  0  1.766323  0  0  -0.443035  0  1.982784  0  0  -0.456929  0  1.977389  0  0  -0.176537  -0.43346  0  1.986461  0
