# generated using pymatgen
data_LaH2C4N3O5
_symmetry_space_group_name_H-M   'P 1'
_cell_length_a   8.78346165
_cell_length_b   8.78351713
_cell_length_c   10.16575929
_cell_angle_alpha   90.00517863
_cell_angle_beta   89.99477371
_cell_angle_gamma   119.99853356
_symmetry_Int_Tables_number   1
_chemical_formula_structural   LaH2C4N3O5
_chemical_formula_sum   'La3 H6 C12 N9 O15'
_cell_volume   679.22088390
_cell_formula_units_Z   3
loop_
 _symmetry_equiv_pos_site_id
 _symmetry_equiv_pos_as_xyz
  1  'x, y, z'
loop_
 _atom_site_type_symbol
 _atom_site_label
 _atom_site_symmetry_multiplicity
 _atom_site_fract_x
 _atom_site_fract_y
 _atom_site_fract_z
 _atom_site_occupancy
 _atom_site_hle17_bader_spin_density
 _atom_site_hle17_ddec_charge
 _atom_site_hle17_ddec_spin_density
 _atom_site_hle17_ddec_sum_bond_order
 _atom_site_hle17_magmom
 _atom_site_hse06_10hf_bader_spin_density
 _atom_site_hse06_10hf_ddec_charge
 _atom_site_hse06_10hf_ddec_spin_density
 _atom_site_hse06_10hf_ddec_sum_bond_order
 _atom_site_hse06_10hf_magmom
 _atom_site_hse06_bader_spin_density
 _atom_site_hse06_ddec_charge
 _atom_site_hse06_ddec_spin_density
 _atom_site_hse06_ddec_sum_bond_order
 _atom_site_hse06_magmom
 _atom_site_pbe_bader_spin_density
 _atom_site_pbe_cm5_charge
 _atom_site_pbe_ddec_charge
 _atom_site_pbe_ddec_spin_density
 _atom_site_pbe_ddec_sum_bond_order
 _atom_site_pbe_magmom
La  La0  1  0.77985105  0.00000187  0.16668754  1  0  1.949413  0  1.998391  0  0  1.781093  0  2.572869  0  0  1.879199  0  2.479283  0  0  1.448419  1.708392  0  2.637426  0
La  La1  1  0.00000106  0.77984811  0.83331721  1  0  1.949481  0  1.998348  0  0  1.781197  0  2.57282  0  0  1.879305  0  2.479232  0  0  1.44843  1.708478  0  2.63741  0
La  La2  1  0.22011531  0.22011628  0.49999800  1  0  1.949676  0  1.998509  0  0  1.781608  0  2.572763  0  0  1.879679  0  2.479209  0  0  1.449312  1.708855  0  2.63747  0
H  H3  1  0.91420424  0.28044842  0.37536827  1  0  0.465538  0  0.765122  0  0  0.444703  0  0.819549  0  0  0.455371  0  0.808447  0  0  0.355044  0.436882  0  0.82776  0
H  H4  1  0.71932910  0.63352288  0.04194801  1  0  0.465374  0  0.766222  0  0  0.444584  0  0.820481  0  0  0.455243  0  0.809423  0  0  0.35509  0.436759  0  0.82869  0
H  H5  1  0.36621682  0.08574943  0.70858914  1  0  0.465428  0  0.766318  0  0  0.444677  0  0.820481  0  0  0.455318  0  0.809472  0  0  0.355394  0.436873  0  0.828633  0
H  H6  1  0.63351512  0.71932338  0.95805361  1  0  0.465378  0  0.766236  0  0  0.444541  0  0.820559  0  0  0.455198  0  0.809515  0  0  0.355108  0.436719  0  0.82876  0
H  H7  1  0.08576784  0.36622265  0.29140391  1  0  0.465492  0  0.766151  0  0  0.444718  0  0.820366  0  0  0.455359  0  0.809352  0  0  0.355384  0.43691  0  0.828526  0
H  H8  1  0.28043255  0.91418451  0.62462848  1  0  0.465523  0  0.765169  0  0  0.444691  0  0.81959  0  0  0.455358  0  0.808491  0  0  0.355018  0.436872  0  0.827806  0
C  C9  1  0.52169472  0.61255961  0.33526416  1  0  0.69576  0  3.8982  0  0  0.651601  0  4.195105  0  0  0.689261  0  4.183148  0  0  0.239208  0.625609  0  4.202664  0
C  C10  1  0.38755979  0.90928228  0.00184616  1  0  0.698259  0  3.895526  0  0  0.65292  0  4.193217  0  0  0.690643  0  4.181183  0  0  0.239017  0.626892  0  4.200809  0
C  C11  1  0.09080748  0.47824442  0.66852604  1  0  0.696041  0  3.894841  0  0  0.651566  0  4.19218  0  0  0.689231  0  4.180271  0  0  0.238218  0.625573  0  4.199694  0
C  C12  1  0.90928802  0.38755728  0.99816335  1  0  0.698084  0  3.895693  0  0  0.652783  0  4.19332  0  0  0.690501  0  4.181289  0  0  0.238945  0.626757  0  4.200913  0
C  C13  1  0.47824789  0.09079789  0.33147582  1  0  0.696128  0  3.894839  0  0  0.651608  0  4.192228  0  0  0.689262  0  4.180343  0  0  0.238209  0.625617  0  4.199746  0
C  C14  1  0.61255476  0.52169808  0.66473359  1  0  0.695872  0  3.898102  0  0  0.651745  0  4.194964  0  0  0.689401  0  4.183012  0  0  0.23932  0.625755  0  4.202523  0
C  C15  1  0.66359742  0.69962485  0.43599521  1  0  -0.005125  0  3.694658  0  0  -0.010811  0  3.951641  0  0  -0.01269  0  3.969063  0  0  0.101391  -0.009826  0  3.940128  0
C  C16  1  0.30047275  0.96411989  0.10258109  1  0  -0.008009  0  3.698169  0  0  -0.011505  0  3.952674  0  0  -0.013475  0  3.970246  0  0  0.100873  -0.010456  0  3.941049  0
C  C17  1  0.03605186  0.33642920  0.76934048  1  0  -0.004826  0  3.694511  0  0  -0.010808  0  3.950895  0  0  -0.012764  0  3.968517  0  0  0.102197  -0.009768  0  3.939232  0
C  C18  1  0.96413926  0.30048138  0.89742744  1  0  -0.007989  0  3.698264  0  0  -0.011477  0  3.952747  0  0  -0.013446  0  3.970319  0  0  0.100864  -0.010432  0  3.941122  0
C  C19  1  0.33642498  0.03603541  0.23066538  1  0  -0.004848  0  3.694524  0  0  -0.010765  0  3.950839  0  0  -0.012717  0  3.968465  0  0  0.102224  -0.009727  0  3.939178  0
C  C20  1  0.69961529  0.66360958  0.56400936  1  0  -0.005251  0  3.694862  0  0  -0.010923  0  3.951808  0  0  -0.012798  0  3.969226  0  0  0.101354  -0.00994  0  3.940295  0
N  N21  1  0.80194441  0.85785265  0.40099020  1  0  -0.293773  0  3.163131  0  0  -0.264512  0  3.45416  0  0  -0.277775  0  3.476676  0  0  -0.2558  -0.254706  0  3.438085  0
N  N22  1  0.14222854  0.94421934  0.06760347  1  0  -0.292708  0  3.165271  0  0  -0.264132  0  3.455839  0  0  -0.277342  0  3.478384  0  0  -0.256061  -0.25437  0  3.439744  0
N  N23  1  0.05588097  0.19804495  0.73431866  1  0  -0.293658  0  3.164014  0  0  -0.264551  0  3.455193  0  0  -0.277757  0  3.477731  0  0  -0.255873  -0.254786  0  3.439098  0
N  N24  1  0.94424683  0.14224210  0.93241004  1  0  -0.292717  0  3.165271  0  0  -0.264144  0  3.45585  0  0  -0.277353  0  3.478396  0  0  -0.256023  -0.254378  0  3.439753  0
N  N25  1  0.19803866  0.05585769  0.26569117  1  0  -0.293668  0  3.164063  0  0  -0.264585  0  3.455233  0  0  -0.277793  0  3.47777  0  0  -0.255861  -0.25482  0  3.439139  0
N  N26  1  0.85784100  0.80196111  0.59901919  1  0  -0.293783  0  3.163361  0  0  -0.264534  0  3.454379  0  0  -0.277797  0  3.476893  0  0  -0.255834  -0.254726  0  3.438301  0
N  N27  1  0.91624972  0.91627010  0.50000565  1  0  -0.13878  0  3.183527  0  0  -0.114046  0  3.493394  0  0  -0.12409  0  3.517083  0  0  -0.165283  -0.106539  0  3.476201  0
N  N28  1  0.08376057  0.00001784  0.16666008  1  0  -0.138602  0  3.183461  0  0  -0.113896  0  3.49354  0  0  -0.123955  0  3.5172  0  0  -0.164576  -0.106378  0  3.476368  0
N  N29  1  0.00005210  0.08377461  0.83335669  1  0  -0.138593  0  3.183361  0  0  -0.113897  0  3.493452  0  0  -0.123958  0  3.517114  0  0  -0.164578  -0.106382  0  3.476283  0
O  O30  1  0.54403915  0.69640953  0.22852885  1  0  -0.666377  0  1.99491  0  0  -0.625411  0  2.240663  0  0  -0.655589  0  2.227678  0  0  -0.380867  -0.603753  0  2.248843  0
O  O31  1  0.30375813  0.84779982  0.89509269  1  0  -0.667475  0  1.994092  0  0  -0.626388  0  2.240358  0  0  -0.656555  0  2.227318  0  0  -0.381195  -0.604748  0  2.248578  0
O  O32  1  0.15217162  0.45579170  0.56176040  1  0  -0.666532  0  1.994506  0  0  -0.625499  0  2.240453  0  0  -0.655656  0  2.227474  0  0  -0.381028  -0.603854  0  2.248628  0
O  O33  1  0.84778955  0.30375337  0.10490211  1  0  -0.667299  0  1.994439  0  0  -0.626208  0  2.240666  0  0  -0.656368  0  2.227627  0  0  -0.381097  -0.604567  0  2.248883  0
O  O34  1  0.45580537  0.15219835  0.43823554  1  0  -0.666602  0  1.994276  0  0  -0.625569  0  2.240262  0  0  -0.655727  0  2.227289  0  0  -0.381047  -0.603921  0  2.248438  0
O  O35  1  0.69641407  0.54402911  0.77146690  1  0  -0.666453  0  1.994838  0  0  -0.625507  0  2.240578  0  0  -0.655686  0  2.227597  0  0  -0.380946  -0.603845  0  2.248756  0
O  O36  1  0.99996302  0.25574449  0.33336014  1  0  -0.854731  0  1.901863  0  0  -0.801549  0  2.11883  0  0  -0.830522  0  2.093648  0  0  -0.587502  -0.780577  0  2.136158  0
O  O37  1  0.74399200  0.74399412  0.00000075  1  0  -0.854431  0  1.90218  0  0  -0.800962  0  2.118238  0  0  -0.829932  0  2.093065  0  0  -0.586952  -0.78001  0  2.135573  0
O  O38  1  0.25573922  0.99995625  0.66662872  1  0  -0.854702  0  1.902084  0  0  -0.801555  0  2.119125  0  0  -0.830529  0  2.093934  0  0  -0.587498  -0.78058  0  2.136442  0
O  O39  1  0.38858852  0.46243623  0.35684382  1  0  -0.673943  0  2.046628  0  0  -0.62841  0  2.307895  0  0  -0.66094  0  2.293066  0  0  -0.407274  -0.604923  0  2.317238  0
O  O40  1  0.53766320  0.92629180  0.02350379  1  0  -0.674609  0  2.045436  0  0  -0.628907  0  2.307391  0  0  -0.661466  0  2.292523  0  0  -0.406924  -0.605406  0  2.31676  0
O  O41  1  0.07382742  0.61139572  0.69007880  1  0  -0.67372  0  2.045097  0  0  -0.628071  0  2.306487  0  0  -0.660613  0  2.291672  0  0  -0.406274  -0.604585  0  2.31583  0
O  O42  1  0.92630337  0.53767371  0.97650075  1  0  -0.674612  0  2.04523  0  0  -0.628945  0  2.307195  0  0  -0.661509  0  2.292327  0  0  -0.406956  -0.605441  0  2.316568  0
O  O43  1  0.61138958  0.07382482  0.30992696  1  0  -0.673687  0  2.04537  0  0  -0.62803  0  2.306784  0  0  -0.660564  0  2.291976  0  0  -0.406255  -0.604548  0  2.316127  0
O  O44  1  0.46242903  0.38859861  0.64315599  1  0  -0.673945  0  2.046575  0  0  -0.628438  0  2.307848  0  0  -0.660963  0  2.293018  0  0  -0.407316  -0.604952  0  2.317193  0
