# generated using pymatgen
data_NaZrPH30C25O3
_symmetry_space_group_name_H-M   'P 1'
_cell_length_a   10.35676567
_cell_length_b   16.29674914
_cell_length_c   16.79827691
_cell_angle_alpha   93.52644283
_cell_angle_beta   100.41701297
_cell_angle_gamma   99.10572642
_symmetry_Int_Tables_number   1
_chemical_formula_structural   NaZrPH30C25O3
_chemical_formula_sum   'Na4 Zr4 P4 H120 C100 O12'
_cell_volume   2741.48617457
_cell_formula_units_Z   4
loop_
 _symmetry_equiv_pos_site_id
 _symmetry_equiv_pos_as_xyz
  1  'x, y, z'
loop_
 _atom_site_type_symbol
 _atom_site_label
 _atom_site_symmetry_multiplicity
 _atom_site_fract_x
 _atom_site_fract_y
 _atom_site_fract_z
 _atom_site_occupancy
 _atom_site_pbe_bader_charge
 _atom_site_pbe_bader_spin_density
 _atom_site_pbe_cm5_charge
 _atom_site_pbe_ddec_charge
 _atom_site_pbe_ddec_spin_density
 _atom_site_pbe_ddec_sum_bond_order
 _atom_site_pbe_magmom
Na  Na0  1  0.97381541  0.46068666  0.90187057  1  0.884265  0  0.702202  0.853433  0  0.545128  0
Na  Na1  1  0.02618782  0.53931361  0.09813049  1  0.884263  0  0.702193  0.853432  0  0.545107  0
Na  Na2  1  0.50005502  0.89723741  0.46745573  1  0.885258  0  0.708237  0.855092  0  0.540094  0
Na  Na3  1  0.49994296  0.10276159  0.53254348  1  0.885254  0  0.70824  0.8551  0  0.540082  0
Zr  Zr4  1  0.56094036  0.38120594  0.05740205  1  1.868768  0  1.026892  1.088744  0  3.508613  0
Zr  Zr5  1  0.43906270  0.61879370  0.94259896  1  1.868648  0  1.026898  1.088794  0  3.508521  0
Zr  Zr6  1  0.04487747  0.05952565  0.38218956  1  1.865988  0  1.026478  1.08636  0  3.510138  0
Zr  Zr7  1  0.95512003  0.94047522  0.61780971  1  1.865983  0  1.026495  1.086389  0  3.510109  0
P  P8  1  0.38404456  0.47547225  0.01130213  1  -0.03689  0  -0.362042  -0.580838  0  3.716984  0
P  P9  1  0.61595914  0.52452614  0.98869530  1  -0.036993  0  -0.362059  -0.580807  0  3.716869  0
P  P10  1  0.87993972  0.00260603  0.47511991  1  -0.037296  0  -0.361688  -0.576384  0  3.74289  0
P  P11  1  0.12005859  0.99739423  0.52487942  1  -0.037621  0  -0.361674  -0.576395  0  3.742989  0
H  H12  1  0.66748178  0.27583777  0.20324398  1  0.079884  0  0.097879  0.115076  0  1.05281  0
H  H13  1  0.33252079  0.72416374  0.79675708  1  0.079796  0  0.097874  0.11507  0  1.052804  0
H  H14  1  0.44035301  0.35163391  0.86676358  1  0.064151  0  0.102236  0.120116  0  1.025186  0
H  H15  1  0.55965314  0.64836262  0.13323878  1  0.064029  0  0.102212  0.120051  0  1.02519  0
H  H16  1  0.36296536  0.22449044  0.95265744  1  0.060348  0  0.108881  0.131434  0  1.002029  0
H  H17  1  0.63703800  0.77550671  0.04734524  1  0.060344  0  0.10888  0.131423  0  1.002053  0
H  H18  1  0.48894726  0.36993703  0.23635171  1  0.089385  0  0.103379  0.121974  0  1.023467  0
H  H19  1  0.51105450  0.63006510  0.76364870  1  0.089391  0  0.10338  0.121937  0  1.023554  0
H  H20  1  0.58153212  0.18678876  0.04504447  1  0.068278  0  0.100417  0.118265  0  1.038479  0
H  H21  1  0.41846748  0.81320900  0.95496021  1  0.068395  0  0.100444  0.118299  0  1.038551  0
H  H22  1  0.56710657  0.52587563  0.19782072  1  0.078049  0  0.100021  0.11872  0  1.025565  0
H  H23  1  0.43289502  0.47412588  0.80217904  1  0.078068  0  0.100015  0.118675  0  1.025582  0
H  H24  1  0.85857911  0.37391921  0.14591718  1  0.060857  0  0.104921  0.112721  0  1.034322  0
H  H25  1  0.14142347  0.62608230  0.85408388  1  0.060789  0  0.104914  0.112701  0  1.034368  0
H  H26  1  0.79600929  0.52954295  0.14409994  1  0.090208  0  0.101996  0.110359  0  1.071246  0
H  H27  1  0.20399312  0.47045794  0.85589987  1  0.090234  0  0.102011  0.110394  0  1.071228  0
H  H28  1  0.70763363  0.39179716  0.90533714  1  0.061627  0  0.105504  0.117948  0  1.033788  0
H  H29  1  0.29237218  0.60819812  0.09466690  1  0.062072  0  0.105508  0.117933  0  1.033867  0
H  H30  1  0.79636930  0.28962334  0.01591322  1  0.068093  0  0.105138  0.120472  0  1.022801  0
H  H31  1  0.20363372  0.71037256  0.98409233  1  0.067795  0  0.105169  0.120509  0  1.022812  0
H  H32  1  0.42999807  0.21267886  0.13400490  1  0.019044  0  0.083545  0.067471  0  1.054723  0
H  H33  1  0.57000630  0.78732204  0.86599811  1  0.019101  0  0.083553  0.067496  0  1.054783  0
H  H34  1  0.02112593  0.33783671  0.07316746  1  0.036919  0  0.093256  0.071133  0  1.066212  0
H  H35  1  0.97887827  0.66216356  0.92683252  1  0.036859  0  0.093279  0.071147  0  1.066178  0
H  H36  1  0.22064528  0.13827399  0.16218340  1  0.029551  0  0.089648  0.084147  0  1.030773  0
H  H37  1  0.77935795  0.86172628  0.83781707  1  0.029581  0  0.089619  0.084089  0  1.030816  0
H  H38  1  0.01128604  0.19960365  0.13247116  1  0.028475  0  0.090676  0.084698  0  1.027646  0
H  H39  1  0.98871521  0.80039661  0.86752671  1  0.028436  0  0.090682  0.084667  0  1.027661  0
H  H40  1  0.21123475  0.34119021  0.89678508  1  0.078262  0  0.10094  0.074825  0  1.03211  0
H  H41  1  0.78876373  0.65881067  0.10321370  1  0.07825  0  0.100928  0.074787  0  1.032123  0
H  H42  1  0.17686891  0.28967051  0.79560670  1  0.009529  0  0.088788  0.04686  0  0.980307  0
H  H43  1  0.82312760  0.71033036  0.20439246  1  0.009347  0  0.088769  0.046822  0  0.980286  0
H  H44  1  0.92380003  0.26630402  0.72816864  1  0.048034  0  0.090495  0.053277  0  0.986182  0
H  H45  1  0.07619844  0.73369685  0.27183015  1  0.048043  0  0.090503  0.053312  0  0.986164  0
H  H46  1  0.82390887  0.31242720  0.78902540  1  0.069919  0  0.103009  0.061197  0  1.023053  0
H  H47  1  0.17608747  0.68757304  0.21097490  1  0.069962  0  0.103032  0.061238  0  1.023055  0
H  H48  1  0.68176438  0.51855629  0.81464359  1  0.090984  0  0.103123  0.077723  0  1.028812  0
H  H49  1  0.31823668  0.48143960  0.18535697  1  0.09097  0  0.103143  0.077776  0  1.028754  0
H  H50  1  0.64119512  0.45308033  0.72055556  1  0.030545  0  0.087599  0.040587  0  0.98905  0
H  H51  1  0.35880726  0.54691682  0.27944522  1  0.030665  0  0.087598  0.040615  0  0.989019  0
H  H52  1  0.85838846  0.44228787  0.65861454  1  0.037812  0  0.089167  0.044796  0  0.986271  0
H  H53  1  0.14161181  0.55771239  0.34138441  1  0.037847  0  0.089165  0.044799  0  0.986252  0
H  H54  1  0.01000847  0.48765831  0.72743764  1  0.061833  0  0.10647  0.078601  0  0.998305  0
H  H55  1  0.98999278  0.51234195  0.27256082  1  0.061844  0  0.106464  0.078588  0  0.998317  0
H  H56  1  0.09028588  0.22373878  0.94615492  1  0.041918  0  0.088181  0.091543  0  1.031057  0
H  H57  1  0.90971063  0.77626209  0.05384424  1  0.041904  0  0.088198  0.091584  0  1.031046  0
H  H58  1  0.11397798  0.16698953  0.85776520  1  0.015562  0  0.087893  0.09038  0  1.021108  0
H  H59  1  0.88602164  0.83301198  0.14223554  1  0.015532  0  0.087949  0.090471  0  1.021074  0
H  H60  1  0.88143135  0.15111084  0.80761745  1  0.05828  0  0.090693  0.105375  0  1.021352  0
H  H61  1  0.11856778  0.84888879  0.19238133  1  0.058258  0  0.090696  0.105387  0  1.021367  0
H  H62  1  0.86432098  0.21699486  0.89193569  1  0.023581  0  0.087059  0.083613  0  1.008809  0
H  H63  1  0.13567716  0.78300476  0.10806357  1  0.023576  0  0.087041  0.083581  0  1.008816  0
H  H64  1  0.66010391  0.57622525  0.65414191  1  0.007987  0  0.088587  0.083527  0  0.995719  0
H  H65  1  0.33989373  0.42377251  0.34585957  1  0.007961  0  0.088597  0.083521  0  0.99576  0
H  H66  1  0.74033682  0.63888464  0.74517570  1  0.053031  0  0.091865  0.096425  0  1.018774  0
H  H67  1  0.25966081  0.36111312  0.25482638  1  0.053059  0  0.091839  0.096422  0  1.018771  0
H  H68  1  0.87800412  0.58617274  0.62219493  1  0.039416  0  0.093105  0.095294  0  0.98468  0
H  H69  1  0.12199337  0.41382814  0.37780553  1  0.039411  0  0.093098  0.095274  0  0.984687  0
H  H70  1  0.95281047  0.62620815  0.72332852  1  0.047638  0  0.092398  0.093393  0  0.995547  0
H  H71  1  0.04718767  0.37379148  0.27667254  1  0.047621  0  0.09242  0.093424  0  0.9956  0
H  H72  1  0.12542536  0.20826232  0.27500879  1  0.056562  0  0.098311  0.113096  0  1.059537  0
H  H73  1  0.87457133  0.79173918  0.72498983  1  0.056587  0  0.09833  0.113148  0  1.05953  0
H  H74  1  0.88059174  0.11670875  0.21017657  1  0.030471  0  0.083441  0.068336  0  1.043333  0
H  H75  1  0.11940738  0.88329087  0.78982221  1  0.030476  0  0.08346  0.068376  0  1.043349  0
H  H76  1  0.03256596  0.20484565  0.51818946  1  0.045005  0  0.099585  0.11895  0  1.024331  0
H  H77  1  0.96743350  0.79515523  0.48180944  1  0.044999  0  0.099604  0.118967  0  1.024326  0
H  H78  1  0.85282883  0.94070435  0.23431147  1  0.094272  0  0.10662  0.12606  0  1.018779  0
H  H79  1  0.14717130  0.05929902  0.76568645  1  0.094266  0  0.10664  0.126042  0  1.018776  0
H  H80  1  0.68724347  0.78560910  0.29695118  1  0.006823  0  0.087445  0.044358  0  0.983356  0
H  H81  1  0.31275450  0.21438990  0.70304922  1  0.006947  0  0.087462  0.044374  0  0.983369  0
H  H82  1  0.72717554  0.89029350  0.34589353  1  0.093088  0  0.097942  0.072072  0  1.043868  0
H  H83  1  0.27282456  0.10970613  0.65410536  1  0.093058  0  0.097937  0.072064  0  1.043898  0
H  H84  1  0.33177195  0.16324174  0.37433494  1  0.045419  0  0.105262  0.114516  0  1.028982  0
H  H85  1  0.66822767  0.83675976  0.62566281  1  0.045416  0  0.105276  0.114529  0  1.029009  0
H  H86  1  0.94200187  0.23572224  0.36379056  1  0.110504  0  0.10455  0.123987  0  1.020508  0
H  H87  1  0.05799742  0.76427801  0.63620946  1  0.110522  0  0.104539  0.124002  0  1.020563  0
H  H88  1  0.22413108  0.91783433  0.39560005  1  0.104644  0  0.105864  0.126023  0  1.038586  0
H  H89  1  0.77586871  0.08216780  0.60439955  1  0.104616  0  0.105842  0.125962  0  1.038679  0
H  H90  1  0.28176858  0.03021968  0.29102530  1  0.071035  0  0.103469  0.118797  0  1.030722  0
H  H91  1  0.71823220  0.96978245  0.70897560  1  0.07115  0  0.103429  0.118729  0  1.03076  0
H  H92  1  0.50375082  0.06949524  0.35621985  1  0.03314  0  0.095383  0.069447  0  1.066208  0
H  H93  1  0.49624552  0.93050501  0.64377806  1  0.033127  0  0.095385  0.069457  0  1.066222  0
H  H94  1  0.17721604  0.71243191  0.45694545  1  0.019315  0  0.088664  0.042485  0  0.986265  0
H  H95  1  0.82278159  0.28756585  0.54305544  1  0.018993  0  0.088677  0.042463  0  0.986263  0
H  H96  1  0.21724667  0.81060860  0.51824000  1  0.090798  0  0.106679  0.082084  0  1.019604  0
H  H97  1  0.78274916  0.18938978  0.48176013  1  0.090801  0  0.106674  0.082043  0  1.019652  0
H  H98  1  0.95832570  0.86118057  0.35980296  1  0.074685  0  0.101144  0.119504  0  1.022074  0
H  H99  1  0.04167409  0.13882155  0.64019485  1  0.074623  0  0.101132  0.1195  0  1.022024  0
H  H100  1  0.62107609  0.84663739  0.17581341  1  0.041382  0  0.086575  0.08806  0  1.025332  0
H  H101  1  0.37892368  0.15336100  0.82418537  1  0.041415  0  0.086581  0.088047  0  1.025366  0
H  H102  1  0.61047600  0.94253250  0.22851728  1  0.052371  0  0.08781  0.091804  0  1.040565  0
H  H103  1  0.38952491  0.05746651  0.77148107  1  0.052351  0  0.087809  0.091775  0  1.040591  0
H  H104  1  0.27438885  0.16365444  0.52618236  1  0.072993  0  0.101398  0.11003  0  1.063902  0
H  H105  1  0.72561176  0.83634706  0.47381610  1  0.072954  0  0.101416  0.110038  0  1.063827  0
H  H106  1  0.46624918  0.11458647  0.21465137  1  0.07159  0  0.092209  0.089518  0  1.032571  0
H  H107  1  0.53374994  0.88541315  0.78534563  1  0.071653  0  0.092235  0.089524  0  1.032615  0
H  H108  1  0.05151579  0.04538750  0.19195312  1  0.065163  0  0.103363  0.122285  0  1.022493  0
H  H109  1  0.94848630  0.95461588  0.80804741  1  0.065222  0  0.103399  0.122245  0  1.022571  0
H  H110  1  0.19088637  0.65206777  0.58274128  1  0.024703  0  0.0915  0.090077  0  0.984574  0
H  H111  1  0.80911178  0.34793186  0.41725977  1  0.024744  0  0.091467  0.090025  0  0.984558  0
H  H112  1  0.28678027  0.74455695  0.63839251  1  0.045178  0  0.092492  0.096074  0  1.016178  0
H  H113  1  0.71321689  0.25544267  0.36160724  1  0.045166  0  0.092489  0.096042  0  1.016217  0
H  H114  1  0.33732351  0.79416275  0.31880728  1  0.028232  0  0.104222  0.063862  0  1.013603  0
H  H115  1  0.66267612  0.20583875  0.68119227  1  0.028189  0  0.104211  0.063856  0  1.013554  0
H  H116  1  0.42921510  0.72631672  0.27301617  1  0.020426  0  0.091174  0.05262  0  0.984516  0
H  H117  1  0.57078124  0.27368353  0.72698353  1  0.020419  0  0.091181  0.052621  0  0.984506  0
H  H118  1  0.54170434  0.71050126  0.49385625  1  0.055043  0  0.106361  0.078729  0  0.995738  0
H  H119  1  0.45829316  0.28949962  0.50614362  1  0.055002  0  0.106366  0.078727  0  0.995718  0
H  H120  1  0.38746990  0.64533736  0.44589079  1  0.031479  0  0.089688  0.046047  0  0.985506  0
H  H121  1  0.61252858  0.35466351  0.55410978  1  0.031473  0  0.089701  0.046071  0  0.985472  0
H  H122  1  0.65901163  0.13521886  0.14247742  1  0.028148  0  0.089094  0.080199  0  1.043353  0
H  H123  1  0.34098963  0.86478140  0.85752163  1  0.028198  0  0.089124  0.080248  0  1.043345  0
H  H124  1  0.38445485  0.89996798  0.22781236  1  0.024194  0  0.089541  0.087399  0  1.002138  0
H  H125  1  0.61554559  0.10003290  0.77218664  1  0.024238  0  0.08954  0.087403  0  1.002153  0
H  H126  1  0.38710252  0.81100325  0.16169320  1  0.054833  0  0.09104  0.103953  0  1.020774  0
H  H127  1  0.61289562  0.18899637  0.83830607  1  0.054865  0  0.091045  0.103949  0  1.020757  0
H  H128  1  0.48627143  0.70089456  0.62704424  1  0.034835  0  0.092937  0.092392  0  0.996895  0
H  H129  1  0.51372590  0.29910569  0.37295556  1  0.034822  0  0.092946  0.092418  0  0.996921  0
H  H130  1  0.39607177  0.60237757  0.58197932  1  0.055072  0  0.091574  0.090013  0  0.989446  0
H  H131  1  0.60392638  0.39762206  0.41802114  1  0.055075  0  0.091557  0.090029  0  0.989439  0
C  C132  1  0.67089890  0.34150596  0.19426563  1  -0.183455  0  -0.16683  -0.183468  0  4.032473  0
C  C133  1  0.32910385  0.65849617  0.80573490  1  -0.183597  0  -0.166781  -0.183431  0  4.03253  0
C  C134  1  0.50543313  0.32127268  0.90885538  1  -0.187575  0  -0.158068  -0.178856  0  4.038484  0
C  C135  1  0.49457074  0.67872634  0.09114747  1  -0.187563  0  -0.158102  -0.178801  0  4.038411  0
C  C136  1  0.35004486  0.31814819  0.08573636  1  -0.257816  0  -0.174107  -0.349998  0  3.831148  0
C  C137  1  0.64995935  0.68185207  0.91426422  1  -0.257774  0  -0.174126  -0.350065  0  3.831252  0
C  C138  1  0.46455585  0.25479588  0.95431252  1  -0.137053  0  -0.148431  -0.149437  0  4.037041  0
C  C139  1  0.53544524  0.74520376  0.04568946  1  -0.137077  0  -0.148401  -0.14941  0  4.037022  0
C  C140  1  0.57723535  0.39127216  0.21215411  1  -0.121066  0  -0.148084  -0.140391  0  4.015281  0
C  C141  1  0.42276641  0.60872997  0.78784689  1  -0.120622  0  -0.148115  -0.140335  0  4.015367  0
C  C142  1  0.58013826  0.23533921  0.00371581  1  -0.153985  0  -0.164732  -0.190414  0  4.053027  0
C  C143  1  0.41986249  0.76465918  0.99628725  1  -0.153962  0  -0.164767  -0.190519  0  4.053175  0
C  C144  1  0.61880004  0.47347195  0.19236946  1  -0.196777  0  -0.162969  -0.178098  0  4.031263  0
C  C145  1  0.38120172  0.52653017  0.80762916  1  -0.196793  0  -0.162954  -0.178059  0  4.031202  0
C  C146  1  0.77176219  0.39343754  0.16411151  1  -0.216664  0  -0.162938  -0.195141  0  4.07783  0
C  C147  1  0.22823875  0.60656521  0.83588945  1  -0.216727  0  -0.162964  -0.195164  0  4.077906  0
C  C148  1  0.73962593  0.47494035  0.16301678  1  -0.209864  0  -0.159674  -0.176568  0  4.07209  0
C  C149  1  0.26037434  0.52505991  0.83698277  1  -0.209962  0  -0.159675  -0.176592  0  4.071955  0
C  C150  1  0.64694755  0.34274158  0.92968524  1  -0.13516  0  -0.154597  -0.169632  0  4.052631  0
C  C151  1  0.35305614  0.65725681  0.07031695  1  -0.135693  0  -0.154624  -0.169657  0  4.052736  0
C  C152  1  0.69308137  0.28948006  0.98823396  1  -0.229681  0  -0.158687  -0.189372  0  4.076444  0
C  C153  1  0.30692216  0.71051772  0.01176878  1  -0.229299  0  -0.158668  -0.189347  0  4.076557  0
C  C154  1  0.22913941  0.43144897  0.03251628  1  0.155335  0  0.073754  0.275288  0  4.116234  0
C  C155  1  0.77086445  0.56855005  0.96748359  1  0.155617  0  0.073813  0.275393  0  4.1162  0
C  C156  1  0.23005007  0.35113497  0.06991164  1  -0.028131  0  -0.030016  0.052677  0  4.004276  0
C  C157  1  0.76995298  0.64886467  0.93008937  1  -0.028105  0  -0.030023  0.052644  0  4.004327  0
C  C158  1  0.34081549  0.24123069  0.11976235  1  -0.09552  0  -0.117812  -0.077662  0  4.099174  0
C  C159  1  0.65918675  0.75876957  0.88023920  1  -0.095383  0  -0.117811  -0.077669  0  4.099239  0
C  C160  1  0.11009430  0.30912407  0.08736839  1  -0.139582  0  -0.099484  -0.121492  0  3.991206  0
C  C161  1  0.88990943  0.69087807  0.91263105  1  -0.13956  0  -0.099505  -0.121551  0  3.991241  0
C  C162  1  0.22181896  0.19830105  0.13644625  1  -0.079928  0  -0.107095  -0.100415  0  4.038504  0
C  C163  1  0.77818327  0.80169921  0.86355351  1  -0.079959  0  -0.107053  -0.100315  0  4.038407  0
C  C164  1  0.10499430  0.23244306  0.12012189  1  -0.058455  0  -0.112695  -0.114175  0  4.081932  0
C  C165  1  0.89500794  0.76755720  0.87987728  1  -0.058515  0  -0.112695  -0.114108  0  4.08192  0
C  C166  1  0.13466957  0.30158918  0.85035236  1  0.383278  0  -0.074093  0.043258  0  3.839146  0
C  C167  1  0.86532908  0.69841232  0.14964707  1  0.383452  0  -0.074113  0.043334  0  3.83906  0
C  C168  1  0.91378893  0.28428757  0.79106554  1  0.351003  0  -0.075443  0.029808  0  3.901847  0
C  C169  1  0.08621053  0.71571330  0.20893394  1  0.350853  0  -0.075499  0.029674  0  3.901989  0
C  C170  1  0.71422512  0.50453420  0.75740340  1  0.353816  0  -0.073231  0.037118  0  3.848769  0
C  C171  1  0.28577546  0.49546356  0.24259722  1  0.353757  0  -0.073308  0.036921  0  3.848861  0
C  C172  1  0.90419658  0.49149336  0.70863597  1  0.381628  0  -0.072043  0.032831  0  3.905407  0
C  C173  1  0.09580353  0.50850627  0.29136351  1  0.381612  0  -0.072044  0.032835  0  3.905374  0
C  C174  1  0.07227306  0.21988833  0.87960712  1  -0.013005  0  -0.172543  -0.185438  0  3.876463  0
C  C175  1  0.92772738  0.78011255  0.12039248  1  -0.012998  0  -0.17259  -0.185579  0  3.876438  0
C  C176  1  0.92154092  0.21110103  0.84351613  1  -0.031813  0  -0.168474  -0.180248  0  3.880033  0
C  C177  1  0.07845918  0.78889860  0.15648335  1  -0.031693  0  -0.168456  -0.180183  0  3.880059  0
C  C178  1  0.73864776  0.58054470  0.70850048  1  -0.025119  0  -0.167296  -0.181381  0  3.880608  0
C  C179  1  0.26134987  0.41945305  0.29150160  1  -0.025149  0  -0.167269  -0.181327  0  3.880619  0
C  C180  1  0.87672625  0.57732647  0.68629710  1  -0.043806  0  -0.167307  -0.180946  0  3.917358  0
C  C181  1  0.12327287  0.42267316  0.31370346  1  -0.043837  0  -0.167307  -0.180949  0  3.917503  0
C  C182  1  0.82385734  0.07892848  0.32225396  1  -0.277562  0  -0.174229  -0.352248  0  3.826988  0
C  C183  1  0.17614063  0.92107053  0.67774406  1  -0.277537  0  -0.17427  -0.352294  0  3.82694  0
C  C184  1  0.72568739  0.03302694  0.44164606  1  0.168614  0  0.073666  0.270133  0  4.130765  0
C  C185  1  0.27430780  0.96697268  0.55835228  1  0.168644  0  0.073608  0.270108  0  4.130799  0
C  C186  1  0.71208343  0.06640725  0.36085364  1  -0.039768  0  -0.029188  0.052068  0  4.008515  0
C  C187  1  0.28791159  0.93359174  0.63914465  1  -0.040128  0  -0.029199  0.052072  0  4.008471  0
C  C188  1  0.13219942  0.20124266  0.33938224  1  -0.128881  0  -0.166345  -0.181578  0  4.039385  0
C  C189  1  0.86779825  0.79875884  0.66061768  1  -0.128915  0  -0.166328  -0.181603  0  4.039328  0
C  C190  1  0.79905329  0.10534051  0.24364958  1  -0.110978  0  -0.115181  -0.070358  0  4.090215  0
C  C191  1  0.20094746  0.89465788  0.75635109  1  -0.110903  0  -0.115145  -0.070331  0  4.09017  0
C  C192  1  0.08395517  0.20035823  0.46766045  1  -0.151827  0  -0.164192  -0.181701  0  4.03287  0
C  C193  1  0.91604429  0.79964265  0.53233844  1  -0.151842  0  -0.164164  -0.181648  0  4.032859  0
C  C194  1  0.95729521  0.94863895  0.26239680  1  -0.181205  0  -0.146628  -0.148038  0  4.037136  0
C  C195  1  0.04270689  0.05136443  0.73760134  1  -0.181002  0  -0.146608  -0.147953  0  4.036912  0
C  C196  1  0.64835208  0.84397094  0.30751628  1  0.374859  0  -0.075772  0.04117  0  3.846026  0
C  C197  1  0.35164606  0.15602868  0.69248299  1  0.374754  0  -0.07573  0.041216  0  3.84596  0
C  C198  1  0.24133411  0.17756675  0.39206240  1  -0.227108  0  -0.163485  -0.197172  0  4.075722  0
C  C199  1  0.75866436  0.82243413  0.60793519  1  -0.227685  0  -0.163505  -0.197244  0  4.0758  0
C  C200  1  0.03588076  0.21597376  0.38634811  1  -0.171146  0  -0.148987  -0.144236  0  4.02838  0
C  C201  1  0.96411985  0.78402774  0.61365154  1  -0.171022  0  -0.149073  -0.144405  0  4.028513  0
C  C202  1  0.15307650  0.93618837  0.34709604  1  -0.16811  0  -0.155613  -0.172064  0  4.041809  0
C  C203  1  0.84692543  0.06381439  0.65290383  1  -0.168408  0  -0.155616  -0.172023  0  4.042076  0
C  C204  1  0.18320765  0.99659446  0.29277903  1  -0.22005  0  -0.163034  -0.19353  0  4.082835  0
C  C205  1  0.81679363  0.00340954  0.70722025  1  -0.219645  0  -0.162958  -0.193457  0  4.082958  0
C  C206  1  0.58565895  0.08071938  0.32312599  1  -0.121425  0  -0.099216  -0.124259  0  3.996718  0
C  C207  1  0.41433705  0.91927962  0.67687002  1  -0.119846  0  -0.099199  -0.124235  0  3.996524  0
C  C208  1  0.24986324  0.75085094  0.50711119  1  0.374929  0  -0.072524  0.035264  0  3.858193  0
C  C209  1  0.75013277  0.24914806  0.49288899  1  0.375431  0  -0.07251  0.035402  0  3.858254  0
C  C210  1  0.01303097  0.90653032  0.32807050  1  -0.177096  0  -0.158172  -0.177002  0  4.037883  0
C  C211  1  0.98696865  0.09347118  0.67192786  1  -0.177141  0  -0.158147  -0.177007  0  4.037784  0
C  C212  1  0.58584561  0.87449896  0.22714652  1  -0.059781  0  -0.173576  -0.186394  0  3.874815  0
C  C213  1  0.41415531  0.12550006  0.77285362  1  -0.059793  0  -0.173593  -0.186345  0  3.874795  0
C  C214  1  0.21165859  0.17726944  0.47134023  1  -0.181998  0  -0.157028  -0.173427  0  4.07167  0
C  C215  1  0.78834185  0.82273144  0.52865937  1  -0.181494  0  -0.157017  -0.173328  0  4.071733  0
C  C216  1  0.56489338  0.10538765  0.24458538  1  -0.107189  0  -0.110853  -0.11417  0  4.073252  0
C  C217  1  0.43510361  0.89461135  0.75541491  1  -0.108587  0  -0.110857  -0.11417  0  4.073172  0
C  C218  1  0.06209065  0.00473207  0.24067203  1  -0.177897  0  -0.167075  -0.199774  0  4.06092  0
C  C219  1  0.93791243  0.99527131  0.75932801  1  -0.178269  0  -0.167172  -0.199753  0  4.06087  0
C  C220  1  0.27438861  0.70279042  0.58280792  1  -0.030816  0  -0.165933  -0.179232  0  3.884217  0
C  C221  1  0.72561035  0.29720859  0.41719319  1  -0.030912  0  -0.165934  -0.179187  0  3.884191  0
C  C222  1  0.42508782  0.79217419  0.29112396  1  0.419569  0  -0.075432  0.03124  0  3.905009  0
C  C223  1  0.57491147  0.20782606  0.70887607  1  0.419629  0  -0.075424  0.03125  0  3.904937  0
C  C224  1  0.43534635  0.69452137  0.49553041  1  0.387424  0  -0.072128  0.032193  0  3.898006  0
C  C225  1  0.56465196  0.30547888  0.50446951  1  0.387391  0  -0.072109  0.032203  0  3.898033  0
C  C226  1  0.67277025  0.11718463  0.20452954  1  -0.062807  0  -0.10741  -0.100739  0  4.047743  0
C  C227  1  0.32722789  0.88281499  0.79546794  1  -0.062942  0  -0.107477  -0.100851  0  4.04803  0
C  C228  1  0.43402546  0.84601248  0.22030376  1  -0.026185  0  -0.168314  -0.179968  0  3.882141  0
C  C229  1  0.56597349  0.15398653  0.77969557  1  -0.02625  0  -0.168318  -0.17997  0  3.882134  0
C  C230  1  0.40555785  0.66991221  0.57769600  1  -0.049911  0  -0.167258  -0.184477  0  3.916407  0
C  C231  1  0.59444046  0.33008804  0.42230451  1  -0.049855  0  -0.16724  -0.184549  0  3.916458  0
O  O232  1  0.12114675  0.46254895  0.01780300  1  -1.237885  0  -0.519636  -0.671192  0  2.285494  0
O  O233  1  0.87885860  0.53745194  0.98219715  1  -1.238015  0  -0.519704  -0.671265  0  2.285555  0
O  O234  1  0.02635730  0.34730125  0.82869639  1  -1.060623  0  -0.30464  -0.316075  0  2.463737  0
O  O235  1  0.97364101  0.65269900  0.17130353  1  -1.060577  0  -0.304602  -0.316049  0  2.463753  0
O  O236  1  0.84102482  0.47664089  0.77752782  1  -1.050751  0  -0.302684  -0.311572  0  2.468642  0
O  O237  1  0.15897807  0.52335813  0.22247194  1  -1.050745  0  -0.302636  -0.311492  0  2.468621  0
O  O238  1  0.62751010  0.02527428  0.47965557  1  -1.238192  0  -0.519352  -0.664336  0  2.301852  0
O  O239  1  0.37248608  0.97472534  0.52034289  1  -1.238149  0  -0.519315  -0.664309  0  2.301838  0
O  O240  1  0.54149416  0.82647122  0.35221370  1  -1.060101  0  -0.306796  -0.317855  0  2.462155  0
O  O241  1  0.45850513  0.17352904  0.64778573  1  -1.060121  0  -0.306832  -0.31791  0  2.462118  0
O  O242  1  0.37697418  0.76839592  0.48211659  1  -1.047223  0  -0.302384  -0.309707  0  2.470245  0
O  O243  1  0.62302298  0.23160370  0.51788376  1  -1.047303  0  -0.302408  -0.309742  0  2.47034  0
