# generated using pymatgen
data_AlHC8O5F4
_symmetry_space_group_name_H-M   'P 1'
_cell_length_a   6.66457064
_cell_length_b   8.86436216
_cell_length_c   11.24260176
_cell_angle_alpha   81.70628261
_cell_angle_beta   72.19001194
_cell_angle_gamma   75.66627137
_symmetry_Int_Tables_number   1
_chemical_formula_structural   AlHC8O5F4
_chemical_formula_sum   'Al2 H2 C16 O10 F8'
_cell_volume   610.97304628
_cell_formula_units_Z   2
loop_
 _symmetry_equiv_pos_site_id
 _symmetry_equiv_pos_as_xyz
  1  'x, y, z'
loop_
 _atom_site_type_symbol
 _atom_site_label
 _atom_site_symmetry_multiplicity
 _atom_site_fract_x
 _atom_site_fract_y
 _atom_site_fract_z
 _atom_site_occupancy
 _atom_site_pbe_bader_charge
 _atom_site_pbe_bader_spin_density
 _atom_site_pbe_cm5_charge
 _atom_site_pbe_ddec_charge
 _atom_site_pbe_ddec_spin_density
 _atom_site_pbe_ddec_sum_bond_order
 _atom_site_pbe_magmom
Al  Al0  1  0.48036504  0.52408195  0.49426818  1  2.503046  0  0.401974  1.646417  0  2.563343  0
Al  Al1  1  0.97989049  0.52232712  0.49606050  1  2.503718  0  0.401771  1.650193  0  2.566039  0
H  H2  1  0.71508229  0.70398543  0.41089147  1  0.629831  0  0.359165  0.442287  0  0.837735  0
H  H3  1  0.24598250  0.34502470  0.58441217  1  0.656219  0  0.355736  0.440001  0  0.84381  0
C  C4  1  0.35474289  0.51005350  0.27011283  1  1.64424  0  0.267788  0.661674  0  4.115257  0
C  C5  1  0.12998240  0.80149229  0.49971727  1  1.669606  0  0.271272  0.615957  0  4.136893  0
C  C6  1  0.60811397  0.51622633  0.72152063  1  1.584719  0  0.269508  0.664117  0  4.11599  0
C  C7  1  0.82702274  0.24403869  0.49317373  1  1.668562  0  0.266082  0.603849  0  4.160754  0
C  C8  1  0.88251292  0.07038547  0.49400649  1  0.583909  0  0.104257  0.054586  0  3.966132  0
C  C9  1  0.07284791  0.97486089  0.50176816  1  0.545885  0  0.104801  0.051727  0  3.964527  0
C  C10  1  0.42912397  0.49423125  0.13040972  1  0.127678  0  -0.00971  -0.143785  0  3.927957  0
C  C11  1  0.39740825  0.37216755  0.07241268  1  0.053396  0  -0.005537  -0.014513  0  4.010781  0
C  C12  1  0.52287234  0.60929529  0.05459550  1  0.460705  0  0.103388  0.169083  0  4.069301  0
C  C13  1  0.31956765  0.24257456  0.14373458  1  0.503226  0  0.092134  0.131198  0  4.076846  0
C  C14  1  0.27460678  0.12927728  0.08986286  1  0.627621  0  0.084662  0.080088  0  4.145874  0
C  C15  1  0.54391901  0.50041352  0.86296062  1  0.114892  0  -0.009718  -0.144838  0  3.924931  0
C  C16  1  0.58069693  0.61164386  0.92288864  1  0.564045  0  0.105209  0.172631  0  4.069059  0
C  C17  1  0.45115273  0.37635999  0.93742308  1  0.097446  0  -0.006754  -0.015606  0  4.001186  0
C  C18  1  0.41452223  0.25231528  0.88547425  1  0.582944  0  0.091083  0.12806  0  4.061391  0
C  C19  1  0.32164159  0.13488010  0.95878456  1  0.531286  0  0.086131  0.082714  0  4.149469  0
O  O20  1  0.50109845  0.50622251  0.32124668  1  -1.239919  0  -0.229424  -0.576786  0  2.332011  0
O  O21  1  0.97812333  0.73405060  0.50959985  1  -1.236231  0  -0.223554  -0.570498  0  2.3771  0
O  O22  1  0.80856929  0.50504180  0.66963025  1  -1.242173  0  -0.231044  -0.581855  0  2.329985  0
O  O23  1  0.63264076  0.30923977  0.49869344  1  -1.233933  0  -0.225188  -0.56696  0  2.376867  0
O  O24  1  0.45919473  0.53956072  0.66877658  1  -1.224994  0  -0.232171  -0.579119  0  2.331937  0
O  O25  1  0.97775115  0.31028716  0.48778492  1  -1.23704  0  -0.224502  -0.57514  0  2.430459  0
O  O26  1  0.15281143  0.53275333  0.32142109  1  -1.236642  0  -0.232166  -0.582022  0  2.318779  0
O  O27  1  0.32738387  0.73792597  0.48679985  1  -1.235843  0  -0.222828  -0.562488  0  2.336446  0
O  O28  1  0.73511509  0.59454686  0.44085058  1  -1.429361  0  -0.446582  -0.989466  0  2.177573  0
O  O29  1  0.22644297  0.45251508  0.54938592  1  -1.454663  0  -0.448194  -0.993572  0  2.189453  0
F  F30  1  0.72181824  0.00918343  0.48612409  1  -0.605496  0  -0.071767  -0.070915  0  1.438185  0
F  F31  1  0.23350035  0.03562760  0.51002873  1  -0.603335  0  -0.070102  -0.069247  0  1.452891  0
F  F32  1  0.66717404  0.73124811  0.85674577  1  -0.613274  0  -0.083078  -0.102566  0  1.367  0
F  F33  1  0.55506666  0.72839991  0.10419704  1  -0.61396  0  -0.084716  -0.105749  0  1.373432  0
F  F34  1  0.47512460  0.24156776  0.76000354  1  -0.616955  0  -0.072794  -0.089432  0  1.44094  0
F  F35  1  0.28342418  0.02183024  0.90593678  1  -0.605962  0  -0.084232  -0.089902  0  1.377512  0
F  F36  1  0.19382956  0.01023262  0.16078441  1  -0.609098  0  -0.084072  -0.091384  0  1.386352  0
F  F37  1  0.29361162  0.22350716  0.26835727  1  -0.614099  0  -0.066826  -0.078742  0  1.459088  0
