# generated using pymatgen
data_Zn2H3C22N8(ClF)7
_symmetry_space_group_name_H-M   'P 1'
_cell_length_a   14.90663799
_cell_length_b   15.03025382
_cell_length_c   15.09512015
_cell_angle_alpha   110.09001480
_cell_angle_beta   109.22183611
_cell_angle_gamma   108.51590340
_symmetry_Int_Tables_number   1
_chemical_formula_structural   Zn2H3C22N8(ClF)7
_chemical_formula_sum   'Zn4 H6 C44 N16 Cl14 F14'
_cell_volume   2621.80192045
_cell_formula_units_Z   2
loop_
 _symmetry_equiv_pos_site_id
 _symmetry_equiv_pos_as_xyz
  1  'x, y, z'
loop_
 _atom_site_type_symbol
 _atom_site_label
 _atom_site_symmetry_multiplicity
 _atom_site_fract_x
 _atom_site_fract_y
 _atom_site_fract_z
 _atom_site_occupancy
 _atom_site_pbe_bader_charge
 _atom_site_pbe_bader_spin_density
 _atom_site_pbe_cm5_charge
 _atom_site_pbe_ddec_charge
 _atom_site_pbe_ddec_spin_density
 _atom_site_pbe_ddec_sum_bond_order
 _atom_site_pbe_magmom
Zn  Zn0  1  0.36477011  0.50370934  0.88570615  1  1.217218  0  0.748538  0.69077  0  2.428079  0
Zn  Zn1  1  0.47739010  0.33544397  0.83167456  1  1.202336  0  0.745017  0.687322  0  2.390764  0
Zn  Zn2  1  0.62885636  0.48527959  0.07439471  1  1.214215  0  0.768072  0.73038  0  2.303367  0
Zn  Zn3  1  0.49630731  0.63400447  0.16327624  1  1.212563  0  0.748511  0.667233  0  2.464757  0
H  H4  1  0.24346670  0.94575376  0.85082270  1  0.091736  0  0.103962  0.099769  0  0.987127  0
H  H5  1  0.22252549  0.90549612  0.01511921  1  0.088235  0  0.112163  0.122176  0  0.973151  0
H  H6  1  0.56832070  0.09247948  0.03042133  1  0.092939  0  0.10759  0.119261  0  0.973415  0
H  H7  1  0.40161024  0.87632336  0.86980829  1  0.063004  0  0.097241  0.092714  0  0.994001  0
H  H8  1  0.68232328  0.85811968  0.23401687  1  0.148854  0  0.123249  0.120213  0  0.999833  0
H  H9  1  0.67047741  0.52499691  0.40170685  1  0.109013  0  0.112844  0.109448  0  1.001975  0
C  C10  1  0.55950172  0.62831728  0.87859693  1  0.630508  0  0.12514  0.221301  0  4.081807  0
C  C11  1  0.19883207  0.34813975  0.00837446  1  0.068282  0  -0.055833  -0.266623  0  4.115428  0
C  C12  1  0.76450892  0.30320053  0.93728509  1  0.155172  0  -0.053895  -0.260511  0  4.113331  0
C  C13  1  0.38294920  0.80913874  0.03036343  1  0.094137  0  -0.05072  -0.261536  0  4.098905  0
C  C14  1  0.41861652  0.18539662  0.00377054  1  0.087266  0  -0.046522  -0.25635  0  4.086389  0
C  C15  1  0.47867075  0.02711321  0.11546714  1  0.590663  0  0.098384  0.189898  0  3.736099  0
C  C16  1  0.39058885  0.06511321  0.10481714  1  0.590517  0  0.099778  0.190197  0  3.73431  0
C  C17  1  0.29530128  0.24504547  0.61284362  1  0.607977  0  0.116542  0.203489  0  4.109024  0
C  C18  1  0.49093058  0.04914356  0.02568688  1  -0.069121  0  -0.083991  -0.157135  0  3.649075  0
C  C19  1  0.29891616  0.94659267  0.01723978  1  -0.041704  0  -0.081049  -0.155981  0  3.638168  0
C  C20  1  0.40307938  0.08919882  0.01444705  1  0.031306  0  -0.005446  0.067168  0  3.718461  0
C  C21  1  0.38676224  0.90670339  0.02782823  1  0.03234  0  -0.004793  0.070092  0  3.713724  0
C  C22  1  0.31112386  0.96903159  0.92675461  1  -0.031595  0  -0.075712  -0.07129  0  3.641275  0
C  C23  1  0.39856633  0.93107643  0.93724049  1  -0.019068  0  -0.079186  -0.073313  0  3.649016  0
C  C24  1  0.00957396  0.12536879  0.42603269  1  0.17288  0  -0.010486  -0.028782  0  4.082294  0
C  C25  1  0.66533835  0.58922891  0.69945549  1  0.126769  0  -0.004831  -0.00875  0  4.064791  0
C  C26  1  0.11400463  0.17463838  0.44823810  1  0.127688  0  0.007946  0.100158  0  4.052676  0
C  C27  1  0.68778571  0.65752934  0.79969986  1  0.152717  0  0.001322  0.085183  0  4.064309  0
C  C28  1  0.92215438  0.02113827  0.33270336  1  0.531667  0  0.065795  0.13566  0  4.077738  0
C  C29  1  0.67871721  0.61555175  0.61910139  1  0.513079  0  0.053885  0.114534  0  4.067485  0
C  C30  1  0.80693209  0.71464021  0.20371476  1  0.623583  0  0.11235  0.184745  0  4.077394  0
C  C31  1  0.56116426  0.68272214  0.39951604  1  0.603603  0  0.102658  0.190414  0  4.090115  0
C  C32  1  0.91684712  0.92404511  0.31414104  1  0.143127  0  0.004671  0.02527  0  4.063949  0
C  C33  1  0.81864183  0.81975416  0.24451247  1  0.072914  0  -0.040841  -0.085275  0  4.067892  0
C  C34  1  0.61693859  0.64557543  0.55966508  1  0.163729  0  0.008416  0.046425  0  4.064134  0
C  C35  1  0.93350158  0.29109536  0.02146022  1  0.228072  0  -0.019139  -0.036677  0  4.105463  0
C  C36  1  0.04809405  0.34061133  0.05004539  1  0.184114  0  -0.018195  -0.041072  0  4.092161  0
C  C37  1  0.86064549  0.29606166  0.94382936  1  0.501602  0  0.085491  0.220911  0  4.053769  0
C  C38  1  0.09451613  0.29401107  0.00042989  1  0.540703  0  0.091717  0.236185  0  4.059804  0
C  C39  1  0.60788735  0.63948966  0.45937083  1  0.008691  0  -0.053793  -0.111247  0  4.081754  0
C  C40  1  0.66521965  0.27141391  0.84926128  1  0.605393  0  0.123147  0.225762  0  4.102354  0
C  C41  1  0.21597713  0.34702563  0.92147128  1  0.62985  0  0.116477  0.212289  0  4.101536  0
C  C42  1  0.43493145  0.79356386  0.11541689  1  1.078992  0  0.207841  0.349895  0  4.126751  0
C  C43  1  0.49152025  0.29534111  0.08125285  1  1.10412  0  0.212163  0.359776  0  4.090179  0
C  C44  1  0.76183598  0.37236996  0.02578198  1  1.09445  0  0.216223  0.37636  0  4.111841  0
C  C45  1  0.29964450  0.43268798  0.09841436  1  1.099453  0  0.212557  0.367256  0  4.086088  0
C  C46  1  0.33616416  0.70550298  0.94186650  1  1.048867  0  0.198103  0.33313  0  4.171058  0
C  C47  1  0.38214135  0.19183594  0.90924292  1  1.00804  0  0.203619  0.349676  0  4.111298  0
C  C48  1  0.71111866  0.79975241  0.21658394  1  0.443822  0  0.026886  -0.005559  0  3.906976  0
C  C49  1  0.63393288  0.57455439  0.38890501  1  0.514639  0  0.007942  -0.017549  0  4.000889  0
C  C50  1  0.65430865  0.54518983  0.89339822  1  1.007837  0  0.203406  0.350203  0  4.08311  0
C  C51  1  0.22448346  0.35174591  0.63693388  1  1.089247  0  0.20999  0.354684  0  4.119811  0
C  C52  1  0.64427659  0.61912043  0.86100962  1  0.132173  0  -0.049878  -0.207719  0  4.106146  0
C  C53  1  0.20621329  0.25539722  0.55638233  1  0.150838  0  -0.049176  -0.208803  0  4.083999  0
N  N54  1  0.52156177  0.56388243  0.91540281  1  -0.790846  0  -0.282047  -0.244223  0  3.509057  0
N  N55  1  0.31576370  0.42528060  0.95804713  1  -0.852008  0  -0.286396  -0.240208  0  3.576185  0
N  N56  1  0.61038482  0.31706417  0.88426642  1  -0.764343  0  -0.278699  -0.245507  0  3.530588  0
N  N57  1  0.42193040  0.69356735  0.08154538  1  -0.821602  0  -0.287743  -0.284426  0  3.549738  0
N  N58  1  0.49688943  0.35990871  0.03800554  1  -0.796246  0  -0.293839  -0.296948  0  3.560387  0
N  N59  1  0.67281028  0.38176697  0.99599476  1  -0.832234  0  -0.288172  -0.301348  0  3.556595  0
N  N60  1  0.36862841  0.47933203  0.06957815  1  -0.74706  0  -0.276187  -0.272225  0  3.509973  0
N  N61  1  0.35788559  0.32666560  0.71590303  1  -0.7801  0  -0.283961  -0.231827  0  3.57906  0
N  N62  1  0.35848299  0.63662131  0.96941255  1  -0.808424  0  -0.290644  -0.293287  0  3.546107  0
N  N63  1  0.42703121  0.29304465  0.92712301  1  -0.805155  0  -0.301863  -0.31219  0  3.551961  0
N  N64  1  0.64307580  0.69322126  0.16612915  1  -0.77123  0  -0.264254  -0.157086  0  3.544762  0
N  N65  1  0.60529601  0.57801171  0.29735206  1  -0.720653  0  -0.268678  -0.228104  0  3.299864  0
N  N66  1  0.58004933  0.50821556  0.92352375  1  -0.812363  0  -0.295918  -0.330238  0  3.50662  0
N  N67  1  0.31284685  0.39418201  0.73146860  1  -0.812469  0  -0.2798  -0.283275  0  3.533679  0
N  N68  1  0.70238789  0.64076927  0.15927739  1  -0.79594  0  -0.285503  -0.236436  0  3.650296  0
N  N69  1  0.56065287  0.64563130  0.30463276  1  -0.806332  0  -0.30056  -0.26244  0  3.671482  0
Cl  Cl70  1  0.50392869  0.70442980  0.85072980  1  -0.159314  0  0.046453  -0.018714  0  1.618383  0
Cl  Cl71  1  0.75750407  0.79604662  0.85375245  1  -0.164072  0  -0.005753  -0.057631  0  1.505428  0
Cl  Cl72  1  0.14529316  0.13011347  0.34644022  1  -0.167641  0  0.001344  -0.049985  0  1.517958  0
Cl  Cl73  1  0.03242307  0.92476908  0.39189285  1  -0.172826  0  -0.005447  -0.059512  0  1.624542  0
Cl  Cl74  1  0.53244985  0.68137036  0.60197941  1  -0.195204  0  -0.019838  -0.077564  0  1.610469  0
Cl  Cl75  1  0.89886118  0.24848798  0.10415854  1  -0.183109  0  -0.016974  -0.055573  0  1.483646  0
Cl  Cl76  1  0.12089546  0.47785953  0.14619726  1  -0.179577  0  -0.013171  -0.055034  0  1.504861  0
Cl  Cl77  1  0.32876214  0.14639630  0.57061272  1  -0.154674  0  0.031662  -0.036272  0  1.588869  0
Cl  Cl78  1  0.89841462  0.67153051  0.19797114  1  -0.155883  0  0.019688  -0.0452  0  1.591437  0
Cl  Cl79  1  0.51158063  0.77048830  0.42915691  1  -0.189574  0  -0.023232  -0.095477  0  1.52191  0
Cl  Cl80  1  0.61487170  0.18872687  0.71547965  1  -0.145444  0  0.026961  -0.031561  0  1.49042  0
Cl  Cl81  1  0.12690180  0.26388516  0.78675458  1  -0.146317  0  0.02216  -0.040141  0  1.624099  0
Cl  Cl82  1  0.97275703  0.17491108  0.52282217  1  -0.167558  0  0.002385  -0.032292  0  1.552583  0
Cl  Cl83  1  0.60178161  0.44905955  0.65010724  1  -0.188381  0  -0.017543  -0.063224  0  1.490479  0
F  F84  1  0.56462193  0.05835239  0.21083808  1  -0.631104  0  -0.12524  -0.167096  0  1.307308  0
F  F85  1  0.03203800  0.18670872  0.92328575  1  -0.612962  0  -0.104002  -0.131833  0  1.329967  0
F  F86  1  0.88989600  0.31831520  0.87360005  1  -0.611843  0  -0.105268  -0.132692  0  1.324729  0
F  F87  1  0.49361788  0.86512649  0.22189232  1  -0.635886  0  -0.080039  -0.128137  0  1.376824  0
F  F88  1  0.55453515  0.33662941  0.18717680  1  -0.630546  0  -0.069228  -0.109409  0  1.363945  0
F  F89  1  0.83736759  0.42847655  0.13005654  1  -0.63311  0  -0.075361  -0.12379  0  1.427639  0
F  F90  1  0.33038599  0.46622766  0.20272017  1  -0.628518  0  -0.070625  -0.109021  0  1.401663  0
F  F91  1  0.38548644  0.13184154  0.18937732  1  -0.631861  0  -0.127798  -0.168769  0  1.287734  0
F  F92  1  0.27617539  0.67224634  0.83679743  1  -0.634107  0  -0.08533  -0.130596  0  1.360412  0
F  F93  1  0.31195461  0.10972437  0.80702914  1  -0.635899  0  -0.085706  -0.134573  0  1.341907  0
F  F94  1  0.72707259  0.51113944  0.89708449  1  -0.629689  0  -0.068449  -0.102519  0  1.431173  0
F  F95  1  0.16654617  0.40316905  0.62863994  1  -0.637984  0  -0.076996  -0.119585  0  1.379903  0
F  F96  1  0.83008486  0.02167354  0.27392473  1  -0.61438  0  -0.100739  -0.12267  0  1.349522  0
F  F97  1  0.74539607  0.58453351  0.58719300  1  -0.614985  0  -0.1058  -0.127138  0  1.348952  0
