# generated using pymatgen
data_ZnH15C18(NO2)2
_symmetry_space_group_name_H-M   'P 1'
_cell_length_a   10.25146500
_cell_length_b   12.40775093
_cell_length_c   16.56882392
_cell_angle_alpha   89.99998840
_cell_angle_beta   89.99923037
_cell_angle_gamma   111.97643019
_symmetry_Int_Tables_number   1
_chemical_formula_structural   ZnH15C18(NO2)2
_chemical_formula_sum   'Zn4 H60 C72 N8 O16'
_cell_volume   1954.37852779
_cell_formula_units_Z   4
loop_
 _symmetry_equiv_pos_site_id
 _symmetry_equiv_pos_as_xyz
  1  'x, y, z'
loop_
 _atom_site_type_symbol
 _atom_site_label
 _atom_site_symmetry_multiplicity
 _atom_site_fract_x
 _atom_site_fract_y
 _atom_site_fract_z
 _atom_site_occupancy
 _atom_site_pbe_bader_charge
 _atom_site_pbe_bader_spin_density
 _atom_site_pbe_cm5_charge
 _atom_site_pbe_ddec_charge
 _atom_site_pbe_ddec_spin_density
 _atom_site_pbe_ddec_sum_bond_order
 _atom_site_pbe_magmom
Zn  Zn0  1  0.80430393  0.72442889  0.72886365  1  1.241586  0  0.68658  0.742145  0  2.360442  0
Zn  Zn1  1  0.19571187  0.77557355  0.22885845  1  1.24148  0  0.686567  0.742151  0  2.360495  0
Zn  Zn2  1  0.19569660  0.27557225  0.27113910  1  1.241539  0  0.686533  0.742113  0  2.360542  0
Zn  Zn3  1  0.80430191  0.22442194  0.77113766  1  1.241331  0  0.686609  0.742113  0  2.360533  0
H  H4  1  0.95366190  0.67539430  0.46155438  1  0.074303  0  0.10382  0.107822  0  1.011318  0
H  H5  1  0.04636992  0.82462834  0.96155561  1  0.074325  0  0.103809  0.107815  0  1.011189  0
H  H6  1  0.04632366  0.32461073  0.53843148  1  0.074336  0  0.103817  0.107754  0  1.011145  0
H  H7  1  0.95365720  0.17538040  0.03845076  1  0.07459  0  0.1038  0.107751  0  1.011157  0
H  H8  1  0.38684752  0.77034880  0.09693580  1  0.161556  0  0.125428  0.110066  0  0.984295  0
H  H9  1  0.61316263  0.72965188  0.59694621  1  0.161587  0  0.125383  0.110029  0  0.984361  0
H  H10  1  0.61314996  0.22963336  0.90306031  1  0.16138  0  0.125384  0.110051  0  0.984507  0
H  H11  1  0.38683441  0.27035260  0.40306741  1  0.161176  0  0.125408  0.110083  0  0.984336  0
H  H12  1  0.56079093  0.73322200  0.82333184  1  0.134356  0  0.119162  0.103664  0  1.03699  0
H  H13  1  0.43921790  0.76678042  0.32333004  1  0.134436  0  0.119146  0.103628  0  1.036879  0
H  H14  1  0.43921693  0.26677333  0.17666428  1  0.134364  0  0.119136  0.103697  0  1.036851  0
H  H15  1  0.56078855  0.23322089  0.67667210  1  0.134423  0  0.119147  0.103602  0  1.036946  0
H  H16  1  0.04939348  0.32295027  0.93030659  1  0.04113  0  0.093611  0.093182  0  1.001496  0
H  H17  1  0.95060999  0.17704546  0.43030478  1  0.041097  0  0.093591  0.09315  0  1.001547  0
H  H18  1  0.95059852  0.67705149  0.06968409  1  0.0407  0  0.093608  0.093197  0  1.001547  0
H  H19  1  0.04938981  0.82295394  0.56969918  1  0.041274  0  0.093549  0.093082  0  1.001512  0
H  H20  1  0.14122859  0.47095999  0.91151729  1  0.009674  0  0.084582  0.068472  0  1.021373  0
H  H21  1  0.85877079  0.02903663  0.41151688  1  0.009725  0  0.084588  0.068444  0  1.021407  0
H  H22  1  0.85878192  0.52904400  0.08848183  1  0.00976  0  0.084612  0.068485  0  1.021379  0
H  H23  1  0.14123000  0.97096280  0.58848527  1  0.009712  0  0.084596  0.06843  0  1.021475  0
H  H24  1  0.32287842  0.59673611  0.86499301  1  0.082661  0  0.108171  0.116389  0  1.008094  0
H  H25  1  0.67712292  0.90326922  0.36499343  1  0.082637  0  0.108182  0.116422  0  1.00814  0
H  H26  1  0.67712491  0.40326940  0.13500491  1  0.082591  0  0.108168  0.116402  0  1.008184  0
H  H27  1  0.32287870  0.09673452  0.63501052  1  0.082701  0  0.108164  0.116359  0  1.008091  0
H  H28  1  0.05006578  0.51639798  0.20917271  1  0.11588  0  0.12227  0.09557  0  0.988288  0
H  H29  1  0.94994074  0.98360693  0.70917604  1  0.115823  0  0.122272  0.095583  0  0.988205  0
H  H30  1  0.94991875  0.48359757  0.79082099  1  0.115945  0  0.122238  0.095501  0  0.988303  0
H  H31  1  0.05006180  0.01640371  0.29083093  1  0.115919  0  0.122199  0.095499  0  0.98827  0
H  H32  1  0.22629983  0.30808461  0.01727062  1  0.082318  0  0.097928  0.107858  0  0.988864  0
H  H33  1  0.77370017  0.19191149  0.51727306  1  0.082383  0  0.097897  0.107831  0  0.988842  0
H  H34  1  0.77367375  0.69189175  0.98272428  1  0.082373  0  0.097938  0.107957  0  0.988847  0
H  H35  1  0.22628893  0.80808332  0.48272727  1  0.082323  0  0.097907  0.107867  0  0.98878  0
H  H36  1  0.36262188  0.42301952  0.96889945  1  0.024409  0  0.090172  0.086169  0  1.018796  0
H  H37  1  0.63738322  0.07697512  0.46890569  1  0.024528  0  0.090161  0.086147  0  1.018814  0
H  H38  1  0.63737020  0.57695907  0.03110391  1  0.024301  0  0.090193  0.086183  0  1.018744  0
H  H39  1  0.36261467  0.92301736  0.53109525  1  0.024545  0  0.090163  0.086195  0  1.01878  0
H  H40  1  0.06535330  0.36185214  0.11840581  1  0.118035  0  0.110223  0.130658  0  1.01187  0
H  H41  1  0.93465609  0.13814605  0.61840269  1  0.11783  0  0.110218  0.130699  0  1.011875  0
H  H42  1  0.93462178  0.63813714  0.88159091  1  0.118315  0  0.110156  0.130596  0  1.011931  0
H  H43  1  0.06535135  0.86185528  0.38159161  1  0.118134  0  0.110212  0.130657  0  1.011856  0
H  H44  1  0.42402710  0.62463330  0.00533410  1  0.053033  0  0.107381  0.115328  0  1.008106  0
H  H45  1  0.57598283  0.87536203  0.50534178  1  0.053271  0  0.107358  0.115379  0  1.007923  0
H  H46  1  0.57596685  0.37534275  0.99466623  1  0.052814  0  0.107304  0.115204  0  1.008185  0
H  H47  1  0.42401958  0.12463658  0.49466278  1  0.052982  0  0.107343  0.115377  0  1.007923  0
H  H48  1  0.41863345  0.32167145  0.75162249  1  0.090253  0  0.107781  0.113369  0  1.007793  0
H  H49  1  0.58136867  0.17833501  0.25163039  1  0.090201  0  0.107779  0.113343  0  1.007743  0
H  H50  1  0.58136537  0.67832793  0.24837483  1  0.090301  0  0.107778  0.113357  0  1.007812  0
H  H51  1  0.41862916  0.82166434  0.74837357  1  0.090181  0  0.107746  0.113301  0  1.007793  0
H  H52  1  0.64781762  0.47058322  0.70908259  1  0.181743  0  0.120574  0.106638  0  1.048053  0
H  H53  1  0.35218718  0.02942276  0.20908700  1  0.181811  0  0.120565  0.10659  0  1.047997  0
H  H54  1  0.35217750  0.52941433  0.29091473  1  0.181778  0  0.120549  0.106568  0  1.047997  0
H  H55  1  0.64781397  0.97057754  0.79091636  1  0.181738  0  0.120553  0.1066  0  1.04807  0
H  H56  1  0.21646292  0.27086625  0.84284043  1  0.065012  0  0.101515  0.111979  0  0.962079  0
H  H57  1  0.78353840  0.22913608  0.34284905  1  0.065233  0  0.101549  0.112003  0  0.962032  0
H  H58  1  0.78353267  0.72913476  0.15715085  1  0.065232  0  0.101547  0.111964  0  0.962014  0
H  H59  1  0.21645719  0.77086492  0.65715853  1  0.064987  0  0.101525  0.111999  0  0.962103  0
H  H60  1  0.13141968  0.34811607  0.79023958  1  0.105322  0  0.10464  0.125055  0  0.982067  0
H  H61  1  0.86857372  0.15188557  0.29024147  1  0.105195  0  0.104613  0.125022  0  0.982178  0
H  H62  1  0.86857746  0.65189099  0.20975533  1  0.105209  0  0.104642  0.125053  0  0.982144  0
H  H63  1  0.13142847  0.84812420  0.70976309  1  0.105299  0  0.104637  0.125085  0  0.982032  0
C  C64  1  0.97392817  0.59821441  0.47857965  1  0.023521  0  -0.082318  -0.124588  0  3.961243  0
C  C65  1  0.02609704  0.90180964  0.97858405  1  0.024006  0  -0.082439  -0.12469  0  3.961365  0
C  C66  1  0.02605582  0.40180087  0.52140922  1  0.024064  0  -0.082383  -0.124636  0  3.961489  0
C  C67  1  0.97393773  0.09820103  0.02142292  1  0.023563  0  -0.08244  -0.124632  0  3.961565  0
C  C68  1  0.84471710  0.59703624  0.60539607  1  1.569638  0  0.194705  0.568105  0  4.248307  0
C  C69  1  0.15530395  0.90297928  0.10539963  1  1.569856  0  0.194763  0.568013  0  4.248473  0
C  C70  1  0.15527792  0.40297506  0.39459703  1  1.568821  0  0.194708  0.567954  0  4.248147  0
C  C71  1  0.84473144  0.09703055  0.89460855  1  1.569479  0  0.194845  0.568071  0  4.247949  0
C  C72  1  0.34870164  0.44527677  0.81199398  1  -0.014289  0  0.018564  0.177412  0  3.933919  0
C  C73  1  0.65130155  0.05472841  0.31199770  1  -0.01536  0  0.01851  0.177309  0  3.933784  0
C  C74  1  0.65130133  0.55472787  0.18800455  1  -0.014272  0  0.018591  0.177357  0  3.933924  0
C  C75  1  0.34870095  0.94527278  0.68800264  1  -0.014863  0  0.018604  0.177372  0  3.933793  0
C  C76  1  0.32014232  0.67851104  0.10028092  1  0.449556  0  0.05026  0.103123  0  3.945566  0
C  C77  1  0.67986369  0.82148692  0.60028955  1  0.44958  0  0.050313  0.103154  0  3.945871  0
C  C78  1  0.67985651  0.32147202  0.89971640  1  0.449521  0  0.050194  0.10287  0  3.946063  0
C  C79  1  0.32013102  0.17851664  0.39972105  1  0.45014  0  0.050218  0.103113  0  3.945839  0
C  C80  1  0.94646886  0.44246039  0.57281941  1  -0.051944  0  -0.013709  -0.047719  0  3.960721  0
C  C81  1  0.05353508  0.05754571  0.07282510  1  -0.051903  0  -0.013715  -0.047847  0  3.961156  0
C  C82  1  0.05352210  0.55754821  0.42716885  1  -0.051585  0  -0.01386  -0.048078  0  3.960569  0
C  C83  1  0.94649724  0.94246145  0.92717464  1  -0.051447  0  -0.013783  -0.047944  0  3.960522  0
C  C84  1  0.52185093  0.64151115  0.80693253  1  0.439387  0  0.040163  0.077154  0  3.965467  0
C  C85  1  0.47815645  0.85849392  0.30693342  1  0.439161  0  0.040123  0.077094  0  3.965424  0
C  C86  1  0.47815822  0.35849195  0.19306298  1  0.439149  0  0.04008  0.077022  0  3.965445  0
C  C87  1  0.52184839  0.14150819  0.69306813  1  0.438509  0  0.040126  0.077181  0  3.965291  0
C  C88  1  0.92144797  0.54287652  0.55160255  1  -0.006654  0  -0.004505  -0.019091  0  3.928824  0
C  C89  1  0.07856124  0.95713820  0.05160735  1  -0.007487  0  -0.004468  -0.018877  0  3.928881  0
C  C90  1  0.07854211  0.45713463  0.44838933  1  -0.007628  0  -0.004494  -0.01891  0  3.928538  0
C  C91  1  0.92146490  0.04287051  0.94839841  1  -0.007387  0  -0.004411  -0.019011  0  3.928546  0
C  C92  1  0.24422774  0.48068847  0.05182157  1  -0.023397  0  0.014908  0.175289  0  3.945945  0
C  C93  1  0.75577949  0.01931272  0.55182479  1  -0.023452  0  0.014901  0.175498  0  3.945574  0
C  C94  1  0.75576392  0.51929611  0.94818179  1  -0.022764  0  0.014839  0.175192  0  3.945975  0
C  C95  1  0.24421906  0.98068836  0.44817796  1  -0.023288  0  0.0149  0.175487  0  3.945717  0
C  C96  1  0.87418481  0.37145907  0.64429613  1  1.555886  0  0.19891  0.557664  0  4.232492  0
C  C97  1  0.12579493  0.12853725  0.14431206  1  1.555402  0  0.199129  0.557988  0  4.232202  0
C  C98  1  0.12580138  0.62854511  0.35568972  1  1.556198  0  0.198996  0.557765  0  4.232447  0
C  C99  1  0.87421241  0.87146150  0.85569914  1  1.555624  0  0.199016  0.557833  0  4.232951  0
C  C100  1  0.15488916  0.38751840  0.91788704  1  0.000268  0  -0.159523  -0.128927  0  3.908335  0
C  C101  1  0.84511374  0.11247999  0.41788853  1  0.000182  0  -0.159478  -0.128854  0  3.908355  0
C  C102  1  0.84511028  0.61248013  0.08210968  1  0.000292  0  -0.159532  -0.129035  0  3.908453  0
C  C103  1  0.15488751  0.88752289  0.58211482  1  3.6e-05  0  -0.15946  -0.128694  0  3.908266  0
C  C104  1  0.39057907  0.56379582  0.83055697  1  0.0031  0  -0.090919  -0.195634  0  3.963535  0
C  C105  1  0.60942511  0.93620985  0.33056158  1  0.003097  0  -0.090925  -0.19567  0  3.963552  0
C  C106  1  0.60942909  0.43620725  0.16943673  1  0.003251  0  -0.090929  -0.195637  0  3.963657  0
C  C107  1  0.39058181  0.06379490  0.66943997  1  0.003109  0  -0.090939  -0.195622  0  3.963499  0
C  C108  1  0.12886652  0.53734454  0.16145022  1  0.437959  0  0.052212  0.107141  0  3.942491  0
C  C109  1  0.87114319  0.96266081  0.66145422  1  0.438541  0  0.052225  0.107225  0  3.942475  0
C  C110  1  0.87112471  0.46264604  0.83854830  1  0.437903  0  0.052174  0.107087  0  3.942405  0
C  C111  1  0.12885910  0.03735155  0.33855276  1  0.438352  0  0.05227  0.107346  0  3.942518  0
C  C112  1  0.25337054  0.39477955  0.99043372  1  -0.035484  0  -0.159008  -0.207672  0  3.916874  0
C  C113  1  0.74663365  0.10521405  0.49043724  1  -0.035534  0  -0.158905  -0.207644  0  3.916847  0
C  C114  1  0.74661914  0.60520498  0.00956662  1  -0.035703  0  -0.158994  -0.207734  0  3.916866  0
C  C115  1  0.25336569  0.89478191  0.50956370  1  -0.035488  0  -0.158973  -0.20786  0  3.916731  0
C  C116  1  0.13844611  0.45143663  0.11070790  1  -0.000626  0  -0.086068  -0.191509  0  3.919321  0
C  C117  1  0.86156321  0.04856333  0.61071084  1  -0.000853  0  -0.086174  -0.191785  0  3.919502  0
C  C118  1  0.86153946  0.54855208  0.88928881  1  -0.000741  0  -0.086038  -0.191458  0  3.919334  0
C  C119  1  0.13843877  0.95144128  0.38929130  1  -0.001127  0  -0.086147  -0.191712  0  3.919335  0
C  C120  1  0.33789316  0.59681941  0.04881794  1  -0.005256  0  -0.08971  -0.199513  0  3.960549  0
C  C121  1  0.66211612  0.90317902  0.54882429  1  -0.005257  0  -0.089624  -0.199606  0  3.960224  0
C  C122  1  0.66210161  0.40316096  0.95118361  1  -0.005208  0  -0.08948  -0.199157  0  3.96041  0
C  C123  1  0.33788253  0.09682464  0.45118209  1  -0.00546  0  -0.089558  -0.199575  0  3.96036  0
C  C124  1  0.44415747  0.41255410  0.76756859  1  -0.119722  0  -0.083064  -0.182145  0  3.927615  0
C  C125  1  0.55584227  0.08745217  0.26757732  1  -0.118816  0  -0.083087  -0.182079  0  3.927558  0
C  C126  1  0.55584405  0.58744706  0.23242572  1  -0.120261  0  -0.083111  -0.182113  0  3.927649  0
C  C127  1  0.44415852  0.91254726  0.73242483  1  -0.119196  0  -0.083041  -0.181983  0  3.927425  0
C  C128  1  0.57301573  0.49495797  0.74405521  1  0.487015  0  0.051472  0.106306  0  3.903894  0
C  C129  1  0.42699141  0.00504610  0.24405900  1  0.487103  0  0.051487  0.106337  0  3.903934  0
C  C130  1  0.42698621  0.50503720  0.25593909  1  0.487639  0  0.051564  0.106432  0  3.903824  0
C  C131  1  0.57301421  0.99495088  0.75594376  1  0.487117  0  0.051513  0.106323  0  3.904014  0
C  C132  1  0.20908076  0.35692822  0.83845933  1  -0.04974  0  -0.15534  -0.211202  0  3.929602  0
C  C133  1  0.79092004  0.14307498  0.33846368  1  -0.049851  0  -0.155339  -0.211119  0  3.92961  0
C  C134  1  0.79092418  0.64307647  0.16153497  1  -0.049733  0  -0.155368  -0.211069  0  3.929602  0
C  C135  1  0.20908184  0.85692705  0.66153907  1  -0.049727  0  -0.155352  -0.211252  0  3.929681  0
N  N136  1  0.61228330  0.60810371  0.76426166  1  -1.274185  0  -0.334065  -0.237411  0  3.590652  0
N  N137  1  0.38772443  0.89189997  0.26426389  1  -1.273777  0  -0.334009  -0.237327  0  3.590548  0
N  N138  1  0.38771884  0.39189662  0.23573325  1  -1.274167  0  -0.333985  -0.237394  0  3.59063  0
N  N139  1  0.61228623  0.10809973  0.73573705  1  -1.273363  0  -0.334033  -0.237391  0  3.59052  0
N  N140  1  0.21605693  0.64954875  0.15541140  1  -1.284287  0  -0.332589  -0.238374  0  3.593768  0
N  N141  1  0.78394862  0.85045567  0.65541735  1  -1.284732  0  -0.332618  -0.23842  0  3.593971  0
N  N142  1  0.78393582  0.35043844  0.84458652  1  -1.284236  0  -0.332551  -0.238158  0  3.593861  0
N  N143  1  0.21604494  0.14955215  0.34459385  1  -1.284421  0  -0.332569  -0.238456  0  3.593906  0
O  O144  1  0.90353299  0.63325363  0.67532836  1  -1.165074  0  -0.342108  -0.564066  0  2.270916  0
O  O145  1  0.09647886  0.86674823  0.17532880  1  -1.165415  0  -0.342121  -0.564076  0  2.270986  0
O  O146  1  0.09646197  0.36674821  0.32466353  1  -1.164534  0  -0.342035  -0.563964  0  2.271006  0
O  O147  1  0.90352385  0.13325812  0.82467817  1  -1.164978  0  -0.342135  -0.563971  0  2.2712  0
O  O148  1  0.75425369  0.36849805  0.66282239  1  -1.178954  0  -0.308885  -0.547025  0  2.230608  0
O  O149  1  0.24572682  0.13151276  0.16284154  1  -1.179076  0  -0.308815  -0.547013  0  2.230787  0
O  O150  1  0.24572901  0.63150947  0.33716528  1  -1.179064  0  -0.308809  -0.546918  0  2.230772  0
O  O151  1  0.75428264  0.86849807  0.83717811  1  -1.179043  0  -0.308886  -0.547077  0  2.231191  0
O  O152  1  0.73797705  0.61119504  0.57977429  1  -1.167285  0  -0.327456  -0.553246  0  2.120402  0
O  O153  1  0.26203622  0.88882389  0.07977939  1  -1.166954  0  -0.327488  -0.55325  0  2.120723  0
O  O154  1  0.26200934  0.38881430  0.42022363  1  -1.166736  0  -0.327502  -0.553232  0  2.120154  0
O  O155  1  0.73797184  0.11117660  0.92023785  1  -1.166937  0  -0.327659  -0.553394  0  2.119848  0
O  O156  1  0.93629138  0.31202044  0.68203000  1  -1.170781  0  -0.335649  -0.558234  0  2.267332  0
O  O157  1  0.06367951  0.18797537  0.18204342  1  -1.170167  0  -0.335874  -0.558523  0  2.267114  0
O  O158  1  0.06369247  0.68798282  0.31795646  1  -1.171008  0  -0.335773  -0.558361  0  2.267241  0
O  O159  1  0.93631770  0.81202482  0.81796597  1  -1.170436  0  -0.335738  -0.558336  0  2.267347  0
