# generated using pymatgen
data_TbAgH12C14N2O11
_symmetry_space_group_name_H-M   'P 1'
_cell_length_a   7.29953560
_cell_length_b   13.91593146
_cell_length_c   19.33393941
_cell_angle_alpha   103.10799146
_cell_angle_beta   90.00055197
_cell_angle_gamma   89.99901686
_symmetry_Int_Tables_number   1
_chemical_formula_structural   TbAgH12C14N2O11
_chemical_formula_sum   'Tb4 Ag4 H48 C56 N8 O44'
_cell_volume   1912.76671494
_cell_formula_units_Z   4
loop_
 _symmetry_equiv_pos_site_id
 _symmetry_equiv_pos_as_xyz
  1  'x, y, z'
loop_
 _atom_site_type_symbol
 _atom_site_label
 _atom_site_symmetry_multiplicity
 _atom_site_fract_x
 _atom_site_fract_y
 _atom_site_fract_z
 _atom_site_occupancy
 _atom_site_pbe_bader_charge
 _atom_site_pbe_bader_spin_density
 _atom_site_pbe_cm5_charge
 _atom_site_pbe_ddec_charge
 _atom_site_pbe_ddec_spin_density
 _atom_site_pbe_ddec_sum_bond_order
 _atom_site_pbe_magmom
Tb  Tb0  1  0.56280534  0.70086142  0.85629241  1  2.16163  0  1.495133  1.98065  0  2.167082  0
Tb  Tb1  1  0.06280608  0.79913651  0.64370735  1  2.161591  0  1.49514  1.980697  0  2.167131  0
Tb  Tb2  1  0.43717817  0.29913272  0.14370758  1  2.161444  0  1.495121  1.980676  0  2.167044  0
Tb  Tb3  1  0.93719935  0.20086943  0.35629426  1  2.16156  0  1.495215  1.980702  0  2.167126  0
Ag  Ag4  1  0.05452326  0.62638562  0.02021581  1  0.63777  0  0.437756  0.504203  0  1.6375  0
Ag  Ag5  1  0.55453133  0.87361476  0.47978766  1  0.637771  0  0.437745  0.504197  0  1.637432  0
Ag  Ag6  1  0.94547395  0.37362121  0.97978903  1  0.637785  0  0.437756  0.504141  0  1.637613  0
Ag  Ag7  1  0.44549876  0.12639805  0.52021956  1  0.637624  0  0.437753  0.504182  0  1.637448  0
H  H8  1  0.68079908  0.89949026  0.13458296  1  0.110651  0  0.112516  0.123296  0  0.988806  0
H  H9  1  0.18084281  0.60049761  0.36542423  1  0.110619  0  0.112603  0.123405  0  0.988673  0
H  H10  1  0.31916114  0.10049757  0.86542237  1  0.110602  0  0.112598  0.123432  0  0.988722  0
H  H11  1  0.81920372  0.39950922  0.63458062  1  0.110851  0  0.112505  0.123302  0  0.988729  0
H  H12  1  0.39719747  0.00544727  0.14946302  1  0.13557  0  0.110946  0.112292  0  1.021266  0
H  H13  1  0.89725304  0.49454109  0.35053496  1  0.135351  0  0.11091  0.112302  0  1.021249  0
H  H14  1  0.60276138  0.99454024  0.85053605  1  0.135556  0  0.1109  0.112265  0  1.021172  0
H  H15  1  0.10280718  0.50545732  0.64946251  1  0.135438  0  0.11096  0.112356  0  1.021332  0
H  H16  1  0.17581196  0.98568769  0.04625610  1  0.160542  0  0.115827  0.134999  0  1.017356  0
H  H17  1  0.67583614  0.51430802  0.45373193  1  0.160872  0  0.115868  0.135046  0  1.017339  0
H  H18  1  0.82415922  0.01430334  0.95374035  1  0.160873  0  0.115839  0.134987  0  1.017434  0
H  H19  1  0.32419668  0.48569219  0.54625803  1  0.160456  0  0.115825  0.134988  0  1.017369  0
H  H20  1  0.92532167  0.33945520  0.80785676  1  0.168988  0  0.116267  0.131161  0  0.985648  0
H  H21  1  0.42534436  0.16053666  0.69214267  1  0.168918  0  0.116222  0.131005  0  0.985557  0
H  H22  1  0.07465225  0.66054421  0.19214602  1  0.168763  0  0.11628  0.131172  0  0.985491  0
H  H23  1  0.57472956  0.83945389  0.30784440  1  0.169161  0  0.116254  0.131101  0  0.985652  0
H  H24  1  0.68525367  0.24622084  0.86140430  1  0.122282  0  0.111497  0.11435  0  0.989214  0
H  H25  1  0.18524072  0.25377508  0.63860874  1  0.122492  0  0.111527  0.114367  0  0.989322  0
H  H26  1  0.31474080  0.75377744  0.13860506  1  0.122337  0  0.111512  0.114341  0  0.989217  0
H  H27  1  0.81480032  0.74623276  0.36140142  1  0.122663  0  0.111542  0.11434  0  0.98935  0
H  H28  1  0.40517912  0.33961638  0.91740766  1  0.12811  0  0.112294  0.123368  0  1.029612  0
H  H29  1  0.90516654  0.16039277  0.58261155  1  0.127868  0  0.112251  0.123164  0  1.029874  0
H  H30  1  0.59480576  0.66037904  0.08260286  1  0.128411  0  0.112203  0.123112  0  1.029987  0
H  H31  1  0.09484984  0.83962972  0.41741305  1  0.12839  0  0.112267  0.123416  0  1.029694  0
H  H32  1  0.42956357  0.53770869  0.73189879  1  0.585272  0  0.334195  0.410552  0  0.861314  0
H  H33  1  0.92955890  0.96227509  0.76810953  1  0.585047  0  0.334169  0.410496  0  0.86155  0
H  H34  1  0.57042679  0.46227337  0.26810833  1  0.585657  0  0.334141  0.410487  0  0.861505  0
H  H35  1  0.07044653  0.03770503  0.23190250  1  0.584505  0  0.334234  0.410588  0  0.861298  0
H  H36  1  0.23918222  0.55734073  0.77294906  1  0.665876  0  0.296801  0.402675  0  0.933769  0
H  H37  1  0.73917903  0.94265292  0.72705142  1  0.6659  0  0.2967  0.402602  0  0.933898  0
H  H38  1  0.76080539  0.44265488  0.22705114  1  0.665924  0  0.296703  0.402614  0  0.933845  0
H  H39  1  0.26084283  0.05734388  0.27294324  1  0.665818  0  0.29675  0.402509  0  0.933972  0
H  H40  1  0.64549409  0.72964442  0.70668679  1  0.658605  0  0.300485  0.399342  0  0.938577  0
H  H41  1  0.14549497  0.77034758  0.79330990  1  0.658506  0  0.300469  0.399341  0  0.938575  0
H  H42  1  0.35450586  0.27035106  0.29331079  1  0.658414  0  0.30047  0.399286  0  0.938647  0
H  H43  1  0.85449812  0.22964061  0.20668824  1  0.658572  0  0.30046  0.39934  0  0.938612  0
H  H44  1  0.47550112  0.80216673  0.73508696  1  0.640151  0  0.302077  0.401606  0  0.933447  0
H  H45  1  0.97549843  0.69782444  0.76491561  1  0.64007  0  0.301972  0.401525  0  0.933542  0
H  H46  1  0.52450431  0.19782823  0.26491469  1  0.640088  0  0.302034  0.401591  0  0.933456  0
H  H47  1  0.02449193  0.30216965  0.23508334  1  0.640149  0  0.301968  0.401478  0  0.933577  0
H  H48  1  0.88542890  0.85474885  0.88239221  1  0.647951  0  0.296964  0.402662  0  0.933816  0
H  H49  1  0.38543179  0.64525444  0.61760438  1  0.647883  0  0.296966  0.402664  0  0.933794  0
H  H50  1  0.11456146  0.14524511  0.11760413  1  0.647881  0  0.296922  0.402598  0  0.933891  0
H  H51  1  0.61457364  0.35475486  0.38239149  1  0.647958  0  0.296923  0.402603  0  0.933897  0
H  H52  1  0.78234386  0.84412638  0.80957725  1  0.661505  0  0.300284  0.387907  0  0.953349  0
H  H53  1  0.28235576  0.65586904  0.69042133  1  0.661457  0  0.300318  0.387916  0  0.953333  0
H  H54  1  0.21763143  0.15586113  0.19042183  1  0.66132  0  0.300296  0.387937  0  0.953334  0
H  H55  1  0.71764966  0.34413527  0.30957696  1  0.661422  0  0.300313  0.387954  0  0.953312  0
C  C56  1  0.77083557  0.75815239  0.01206561  1  1.591447  0  0.208541  0.554492  0  4.204619  0
C  C57  1  0.27085887  0.74184264  0.48793780  1  1.591589  0  0.208477  0.554272  0  4.205149  0
C  C58  1  0.22913013  0.24184186  0.98793646  1  1.591966  0  0.208302  0.554016  0  4.205246  0
C  C59  1  0.72916574  0.25817441  0.51206638  1  1.590784  0  0.208357  0.554317  0  4.204947  0
C  C60  1  0.61460529  0.83013707  0.02630365  1  0.467706  0  0.120758  0.122185  0  3.974481  0
C  C61  1  0.11463229  0.66985608  0.47369634  1  0.468059  0  0.120723  0.122165  0  3.974246  0
C  C62  1  0.38535219  0.16985787  0.97369748  1  0.467926  0  0.120879  0.12233  0  3.973733  0
C  C63  1  0.88538547  0.33015786  0.52630431  1  0.467702  0  0.12071  0.122127  0  3.974497  0
C  C64  1  0.58295094  0.89548857  0.09151700  1  0.001324  0  -0.067464  -0.119386  0  3.911088  0
C  C65  1  0.08299220  0.60450134  0.40848636  1  0.001074  0  -0.067442  -0.119346  0  3.910694  0
C  C66  1  0.41701065  0.10450052  0.90848436  1  0.001071  0  -0.067443  -0.119454  0  3.910619  0
C  C67  1  0.91704884  0.39550383  0.59151463  1  0.001502  0  -0.067481  -0.119529  0  3.911301  0
C  C68  1  0.42467011  0.95326514  0.09945351  1  -0.058926  0  -0.062564  -0.023311  0  3.926337  0
C  C69  1  0.92470829  0.54672679  0.40054175  1  -0.059156  0  -0.062726  -0.023501  0  3.925837  0
C  C70  1  0.57530107  0.04672755  0.90054680  1  -0.059254  0  -0.062687  -0.023399  0  3.925941  0
C  C71  1  0.07533550  0.45327683  0.59945748  1  -0.058751  0  -0.062613  -0.023353  0  3.926341  0
C  C72  1  0.30264669  0.94356604  0.04263064  1  -0.032115  0  -0.062125  -0.109315  0  3.874336  0
C  C73  1  0.80268057  0.55642969  0.45736285  1  -0.03268  0  -0.062191  -0.109404  0  3.874409  0
C  C74  1  0.69731627  0.05642199  0.95736437  1  -0.032776  0  -0.062239  -0.109448  0  3.874457  0
C  C75  1  0.19735500  0.44357074  0.54263128  1  -0.032198  0  -0.062084  -0.109268  0  3.87438  0
C  C76  1  0.34680555  0.87743319  0.97901877  1  0.519212  0  0.121314  0.111264  0  3.992323  0
C  C77  1  0.84681324  0.62257019  0.52097381  1  0.519148  0  0.121346  0.111179  0  3.99246  0
C  C78  1  0.65317522  0.12256316  0.02098152  1  0.51988  0  0.121382  0.11138  0  3.992234  0
C  C79  1  0.15320178  0.37743824  0.47901936  1  0.51919  0  0.121398  0.111378  0  3.992122  0
C  C80  1  0.22575636  0.86002049  0.91425593  1  1.603709  0  0.229049  0.57163  0  4.200338  0
C  C81  1  0.72575524  0.63998819  0.58573561  1  1.603921  0  0.229018  0.571844  0  4.200084  0
C  C82  1  0.77422715  0.13997652  0.08574290  1  1.603757  0  0.22887  0.571376  0  4.200486  0
C  C83  1  0.27425429  0.36002512  0.41425253  1  1.603917  0  0.229047  0.571526  0  4.200181  0
C  C84  1  0.89675969  0.53552003  0.79819787  1  1.612463  0  0.227357  0.575565  0  4.196224  0
C  C85  1  0.39677641  0.96446894  0.70180669  1  1.611834  0  0.227247  0.575409  0  4.196722  0
C  C86  1  0.10321149  0.46447638  0.20180347  1  1.611773  0  0.227241  0.575335  0  4.19657  0
C  C87  1  0.60325642  0.03552649  0.29818985  1  1.612636  0  0.227403  0.575622  0  4.196072  0
C  C88  1  0.76764786  0.47374458  0.83114198  1  0.527131  0  0.118756  0.113689  0  3.991483  0
C  C89  1  0.26766798  0.02625003  0.66885827  1  0.527372  0  0.118565  0.113481  0  3.991424  0
C  C90  1  0.23232058  0.52625022  0.16885655  1  0.527365  0  0.118629  0.113689  0  3.991514  0
C  C91  1  0.73236759  0.97374753  0.33113701  1  0.527879  0  0.1187  0.113651  0  3.991307  0
C  C92  1  0.80008965  0.37479531  0.83161660  1  -0.077992  0  -0.073129  -0.137077  0  3.955125  0
C  C93  1  0.30009195  0.12519956  0.66837936  1  -0.078242  0  -0.072985  -0.136672  0  3.95504  0
C  C94  1  0.19989385  0.62520320  0.16838295  1  -0.078083  0  -0.072995  -0.136859  0  3.954904  0
C  C95  1  0.69994498  0.87479790  0.33161384  1  -0.078382  0  -0.073112  -0.137012  0  3.955273  0
C  C96  1  0.66742130  0.32420636  0.86185608  1  -0.104315  0  -0.070355  -0.045245  0  3.984279  0
C  C97  1  0.16741328  0.17579513  0.63814874  1  -0.104572  0  -0.070457  -0.045456  0  3.984401  0
C  C98  1  0.33257179  0.67578868  0.13814713  1  -0.104926  0  -0.070468  -0.045387  0  3.984428  0
C  C99  1  0.83260858  0.82420941  0.36185423  1  -0.104773  0  -0.070494  -0.045318  0  3.98419  0
C  C100  1  0.51189391  0.37486617  0.89276358  1  -0.010142  0  -0.067643  -0.106084  0  3.880295  0
C  C101  1  0.01188938  0.12513291  0.60724190  1  -0.00962  0  -0.067554  -0.105802  0  3.880491  0
C  C102  1  0.48809234  0.62512810  0.10723902  1  -0.009613  0  -0.06762  -0.105957  0  3.880675  0
C  C103  1  0.98812975  0.87488462  0.39277167  1  -0.010291  0  -0.067586  -0.106199  0  3.880287  0
C  C104  1  0.49519008  0.47474761  0.89277987  1  0.516626  0  0.125376  0.138426  0  3.955531  0
C  C105  1  0.99518346  0.02525769  0.60722111  1  0.516537  0  0.125324  0.138453  0  3.955671  0
C  C106  1  0.50478657  0.52524590  0.10722211  1  0.516619  0  0.125451  0.138629  0  3.955619  0
C  C107  1  0.00483155  0.97476083  0.39278328  1  0.516276  0  0.125368  0.138688  0  3.95511  0
C  C108  1  0.34483672  0.54011246  0.93022874  1  1.585806  0  0.211837  0.562734  0  4.196811  0
C  C109  1  0.84485305  0.95989290  0.56977341  1  1.586037  0  0.211886  0.562736  0  4.196694  0
C  C110  1  0.65513172  0.45988089  0.06977011  1  1.586021  0  0.211922  0.562866  0  4.197027  0
C  C111  1  0.15516744  0.04012729  0.43023483  1  1.585273  0  0.211862  0.562669  0  4.197172  0
N  N112  1  0.49940789  0.82272916  0.97140601  1  -1.236068  0  -0.380127  -0.354374  0  3.550854  0
N  N113  1  0.99941935  0.67727607  0.52858891  1  -1.235317  0  -0.38  -0.354249  0  3.55054  0
N  N114  1  0.50056877  0.17726851  0.02859136  1  -1.236099  0  -0.380064  -0.354285  0  3.550355  0
N  N115  1  0.00059155  0.32273692  0.47140747  1  -1.23604  0  -0.380079  -0.354232  0  3.550362  0
N  N116  1  0.61815378  0.52171671  0.86086219  1  -1.241104  0  -0.373293  -0.365947  0  3.557256  0
N  N117  1  0.11815235  0.97827854  0.63913674  1  -1.240836  0  -0.373138  -0.365878  0  3.556831  0
N  N118  1  0.38182562  0.47827809  0.13913634  1  -1.241135  0  -0.373278  -0.366096  0  3.557339  0
N  N119  1  0.88185855  0.02172887  0.36086508  1  -1.241191  0  -0.373285  -0.366093  0  3.556852  0
O  O120  1  0.77708503  0.70061784  0.95069862  1  -1.171612  0  -0.375837  -0.627096  0  2.328511  0
O  O121  1  0.27709201  0.79937774  0.54930251  1  -1.171712  0  -0.375776  -0.626947  0  2.328671  0
O  O122  1  0.22289574  0.29937709  0.04930251  1  -1.171584  0  -0.375733  -0.626861  0  2.328614  0
O  O123  1  0.72292027  0.20063784  0.45070147  1  -1.171172  0  -0.375699  -0.626971  0  2.328717  0
O  O124  1  0.88112150  0.75552204  0.06260012  1  -1.126414  0  -0.328286  -0.511234  0  2.250445  0
O  O125  1  0.38114313  0.74446998  0.43740454  1  -1.126494  0  -0.328303  -0.511232  0  2.250779  0
O  O126  1  0.11885515  0.24447291  0.93740154  1  -1.126661  0  -0.32823  -0.511069  0  2.250756  0
O  O127  1  0.61889106  0.25554123  0.56259987  1  -1.12633  0  -0.328314  -0.511229  0  2.250594  0
O  O128  1  0.29055647  0.79973355  0.85897236  1  -1.184882  0  -0.367591  -0.613398  0  2.294771  0
O  O129  1  0.79056749  0.70027191  0.64102355  1  -1.184729  0  -0.367658  -0.613512  0  2.29446  0
O  O130  1  0.70941745  0.20026283  0.14102846  1  -1.185026  0  -0.367605  -0.61334  0  2.294737  0
O  O131  1  0.20942835  0.29973286  0.35896963  1  -1.184896  0  -0.367664  -0.613368  0  2.294625  0
O  O132  1  0.07458170  0.90360902  0.91845981  1  -1.177213  0  -0.302428  -0.522665  0  2.174353  0
O  O133  1  0.57457642  0.59640625  0.58152280  1  -1.177503  0  -0.302354  -0.522707  0  2.174356  0
O  O134  1  0.92541139  0.09638962  0.08152786  1  -1.177169  0  -0.30224  -0.522515  0  2.174275  0
O  O135  1  0.42542627  0.40361288  0.41846459  1  -1.177385  0  -0.302371  -0.522615  0  2.174436  0
O  O136  1  0.83177775  0.61879902  0.79173285  1  -1.18325  0  -0.355058  -0.615896  0  2.282872  0
O  O137  1  0.33176925  0.88119326  0.70826943  1  -1.183091  0  -0.355052  -0.615917  0  2.283157  0
O  O138  1  0.16820301  0.38119820  0.20827015  1  -1.183178  0  -0.355061  -0.615872  0  2.283049  0
O  O139  1  0.66824439  0.11880675  0.29173085  1  -1.183478  0  -0.355071  -0.615919  0  2.282991  0
O  O140  1  0.05321357  0.50100919  0.77998489  1  -1.180839  0  -0.307973  -0.533097  0  2.163196  0
O  O141  1  0.55322403  0.99898155  0.72001585  1  -1.180604  0  -0.307781  -0.532901  0  2.163556  0
O  O142  1  0.94676309  0.49898561  0.22001363  1  -1.180471  0  -0.307806  -0.532949  0  2.163499  0
O  O143  1  0.44681291  0.00101166  0.27996590  1  -1.18075  0  -0.307978  -0.533069  0  2.16308  0
O  O144  1  0.34506432  0.62923755  0.92451169  1  -1.167292  0  -0.372471  -0.636762  0  2.339293  0
O  O145  1  0.84507342  0.87077114  0.57548419  1  -1.167262  0  -0.372503  -0.63677  0  2.339326  0
O  O146  1  0.65490960  0.37075859  0.07548443  1  -1.167169  0  -0.372459  -0.636849  0  2.339653  0
O  O147  1  0.15493474  0.12924717  0.42451603  1  -1.167215  0  -0.372423  -0.636735  0  2.339792  0
O  O148  1  0.23192414  0.50376452  0.96752898  1  -1.123762  0  -0.318745  -0.519011  0  2.377381  0
O  O149  1  0.73192524  0.99623875  0.53247223  1  -1.124085  0  -0.318771  -0.518993  0  2.377049  0
O  O150  1  0.76806348  0.49623276  0.03247507  1  -1.123927  0  -0.318781  -0.518974  0  2.377094  0
O  O151  1  0.26809115  0.00378065  0.46753486  1  -1.12334  0  -0.318756  -0.518956  0  2.377347  0
O  O152  1  0.36091292  0.58834371  0.76461893  1  -1.237508  0  -0.59749  -0.820571  0  2.09473  0
O  O153  1  0.86091314  0.91164446  0.73537894  1  -1.237421  0  -0.597387  -0.820509  0  2.09509  0
O  O154  1  0.63907744  0.41164666  0.23537899  1  -1.238026  0  -0.597345  -0.820463  0  2.094983  0
O  O155  1  0.13910187  0.08834521  0.26461939  1  -1.236762  0  -0.597474  -0.820488  0  2.094934  0
O  O156  1  0.56106189  0.75308502  0.74807334  1  -1.295004  0  -0.663813  -0.855221  0  2.126861  0
O  O157  1  0.06106026  0.74690252  0.75192342  1  -1.294667  0  -0.663669  -0.855147  0  2.127002  0
O  O158  1  0.43893532  0.24690535  0.25192458  1  -1.294643  0  -0.663748  -0.855157  0  2.127021  0
O  O159  1  0.93893146  0.25308704  0.24807283  1  -1.294951  0  -0.663713  -0.855097  0  2.126892  0
O  O160  1  0.76495465  0.83561911  0.85832667  1  -1.301987  0  -0.659649  -0.863316  0  2.162285  0
O  O161  1  0.26495783  0.66437719  0.64167237  1  -1.301843  0  -0.659675  -0.86336  0  2.162338  0
O  O162  1  0.23503023  0.16437432  0.14167374  1  -1.301607  0  -0.659622  -0.863337  0  2.16219  0
O  O163  1  0.73504623  0.33562782  0.35832550  1  -1.301883  0  -0.659649  -0.863378  0  2.162203  0
