# generated using pymatgen
data_KAsH23C10N3
_symmetry_space_group_name_H-M   'P 1'
_cell_length_a   5.84650505
_cell_length_b   10.44396093
_cell_length_c   11.35666761
_cell_angle_alpha   94.41252205
_cell_angle_beta   101.36281731
_cell_angle_gamma   97.24220822
_symmetry_Int_Tables_number   1
_chemical_formula_structural   KAsH23C10N3
_chemical_formula_sum   'K2 As2 H46 C20 N6'
_cell_volume   670.72709310
_cell_formula_units_Z   2
loop_
 _symmetry_equiv_pos_site_id
 _symmetry_equiv_pos_as_xyz
  1  'x, y, z'
loop_
 _atom_site_type_symbol
 _atom_site_label
 _atom_site_symmetry_multiplicity
 _atom_site_fract_x
 _atom_site_fract_y
 _atom_site_fract_z
 _atom_site_occupancy
 _atom_site_hle17_bader_spin_density
 _atom_site_hle17_ddec_charge
 _atom_site_hle17_ddec_spin_density
 _atom_site_hle17_ddec_sum_bond_order
 _atom_site_hle17_magmom
 _atom_site_hse06_10hf_bader_spin_density
 _atom_site_hse06_10hf_ddec_charge
 _atom_site_hse06_10hf_ddec_spin_density
 _atom_site_hse06_10hf_ddec_sum_bond_order
 _atom_site_hse06_10hf_magmom
 _atom_site_hse06_bader_spin_density
 _atom_site_hse06_ddec_charge
 _atom_site_hse06_ddec_spin_density
 _atom_site_hse06_ddec_sum_bond_order
 _atom_site_hse06_magmom
 _atom_site_pbe_bader_spin_density
 _atom_site_pbe_cm5_charge
 _atom_site_pbe_ddec_charge
 _atom_site_pbe_ddec_spin_density
 _atom_site_pbe_ddec_sum_bond_order
 _atom_site_pbe_magmom
K  K0  1  0.74908674  0.05249016  0.91065515  1  0  0.87177  0  0.550385  0  0  0.79088  0  0.763986  0  0  0.807514  0  0.744124  0  0  0.754729  0.778568  0  0.778074  0
K  K1  1  0.25095272  0.94751485  0.08936367  1  0  0.871777  0  0.550383  0  0  0.790875  0  0.763986  0  0  0.807505  0  0.744112  0  0  0.754758  0.778516  0  0.778174  0
As  As2  1  0.19683195  0.13235810  0.76206823  1  0  0.61397  0  3.063405  0  0  0.55221  0  3.493059  0  0  0.571914  0  3.492602  0  0  0.359578  0.538204  0  3.493959  0
As  As3  1  0.80316863  0.86763981  0.23793335  1  0  0.613983  0  3.063401  0  0  0.552203  0  3.493009  0  0  0.571909  0  3.492561  0  0  0.359586  0.538221  0  3.493893  0
H  H4  1  0.30064568  0.80122997  0.78626251  1  0  0.002133  0  0.923778  0  0  0.023864  0  0.984596  0  0  0.022594  0  0.985525  0  0  0.08569  0.024465  0  0.984873  0
H  H5  1  0.69935238  0.19877843  0.21373314  1  0  0.002117  0  0.923661  0  0  0.023795  0  0.984541  0  0  0.022526  0  0.985468  0  0  0.085682  0.024395  0  0.984814  0
H  H6  1  0.96804337  0.78994335  0.90146385  1  0  0.044166  0  0.988482  0  0  0.060708  0  1.058364  0  0  0.061893  0  1.058396  0  0  0.08136  0.059847  0  1.058252  0
H  H7  1  0.03196948  0.21003596  0.09853454  1  0  0.044212  0  0.988583  0  0  0.060732  0  1.058438  0  0  0.061912  0  1.058474  0  0  0.0814  0.059868  0  1.058338  0
H  H8  1  0.78744951  0.83636111  0.77146774  1  0  0.038913  0  0.953952  0  0  0.061657  0  1.017049  0  0  0.061919  0  1.017682  0  0  0.080773  0.061303  0  1.017121  0
H  H9  1  0.21254058  0.16362942  0.22854308  1  0  0.03908  0  0.953921  0  0  0.061777  0  1.017023  0  0  0.062048  0  1.017647  0  0  0.080842  0.061432  0  1.017089  0
H  H10  1  0.03448540  0.59461548  0.77991735  1  0  0.056478  0  0.94524  0  0  0.079793  0  1.003171  0  0  0.07985  0  1.004405  0  0  0.085644  0.079227  0  1.003328  0
H  H11  1  0.96554488  0.40538452  0.22006513  1  0  0.056492  0  0.94535  0  0  0.079708  0  1.003308  0  0  0.079765  0  1.004544  0  0  0.08565  0.079138  0  1.003454  0
H  H12  1  0.73109464  0.59602754  0.77404080  1  0  0.052495  0  0.96122  0  0  0.071245  0  1.025057  0  0  0.071874  0  1.025112  0  0  0.082901  0.070565  0  1.025518  0
H  H13  1  0.26893266  0.40395435  0.22595027  1  0  0.052444  0  0.961256  0  0  0.071169  0  1.025056  0  0  0.071799  0  1.025111  0  0  0.082832  0.07048  0  1.025519  0
H  H14  1  0.81515575  0.53649064  0.56823493  1  0  0.057102  0  0.94693  0  0  0.07701  0  1.006788  0  0  0.077602  0  1.007253  0  0  0.084443  0.076571  0  1.006437  0
H  H15  1  0.18486300  0.46351149  0.43175096  1  0  0.057058  0  0.946942  0  0  0.076952  0  1.006794  0  0  0.077546  0  1.007257  0  0  0.084382  0.076516  0  1.00644  0
H  H16  1  0.67833541  0.67753682  0.57376399  1  0  0.056356  0  0.938124  0  0  0.077673  0  0.997254  0  0  0.078182  0  0.997828  0  0  0.083795  0.076943  0  0.99753  0
H  H17  1  0.32165747  0.32245300  0.42622593  1  0  0.056434  0  0.938122  0  0  0.077689  0  0.997297  0  0  0.0782  0  0.997869  0  0  0.083812  0.076961  0  0.997571  0
H  H18  1  0.00907789  0.71546261  0.46832136  1  0  0.043388  0  0.97987  0  0  0.05122  0  1.065305  0  0  0.052652  0  1.064684  0  0  0.076063  0.050166  0  1.065591  0
H  H19  1  0.99089803  0.28456118  0.53166585  1  0  0.043392  0  0.979827  0  0  0.051179  0  1.06524  0  0  0.052612  0  1.064613  0  0  0.076018  0.050133  0  1.065524  0
H  H20  1  0.20709798  0.66956062  0.59134487  1  0  0.053942  0  0.928836  0  0  0.074682  0  0.98708  0  0  0.075532  0  0.987108  0  0  0.082359  0.073467  0  0.988209  0
H  H21  1  0.79290334  0.33045493  0.40863292  1  0  0.054051  0  0.929019  0  0  0.07475  0  0.987246  0  0  0.075596  0  0.987276  0  0  0.082422  0.073542  0  0.98837  0
H  H22  1  0.24437438  0.90959782  0.59461473  1  0  0.063503  0  0.983095  0  0  0.083341  0  1.044147  0  0  0.083633  0  1.045165  0  0  0.084882  0.083084  0  1.043509  0
H  H23  1  0.75559792  0.09041773  0.40538673  1  0  0.063453  0  0.983079  0  0  0.083422  0  1.044004  0  0  0.083717  0  1.045021  0  0  0.0849  0.083161  0  1.043367  0
H  H24  1  0.94369204  0.90607933  0.59816296  1  0  0.055714  0  0.955978  0  0  0.071277  0  1.028082  0  0  0.071917  0  1.028417  0  0  0.082178  0.070806  0  1.028018  0
H  H25  1  0.05628150  0.09392762  0.40184263  1  0  0.055774  0  0.955846  0  0  0.071297  0  1.028047  0  0  0.071929  0  1.028387  0  0  0.0822  0.070821  0  1.027978  0
H  H26  1  0.99156486  0.35863911  0.80159566  1  0  0.080691  0  0.984959  0  0  0.097615  0  1.05917  0  0  0.098386  0  1.05935  0  0  0.096645  0.09702  0  1.059057  0
H  H27  1  0.00843526  0.64136960  0.19840990  1  0  0.080727  0  0.984935  0  0  0.097634  0  1.059156  0  0  0.098399  0  1.059337  0  0  0.096643  0.097034  0  1.059048  0
H  H28  1  0.27348261  0.44783881  0.86916143  1  0  0.057956  0  0.965457  0  0  0.076768  0  1.036872  0  0  0.077987  0  1.036058  0  0  0.079593  0.075616  0  1.037925  0
H  H29  1  0.72652564  0.55216119  0.13084627  1  0  0.057835  0  0.965586  0  0  0.076675  0  1.036978  0  0  0.0779  0  1.036154  0  0  0.079529  0.075523  0  1.038027  0
H  H30  1  0.06323651  0.40898314  0.95938811  1  0  0.073605  0  0.948108  0  0  0.095308  0  1.012903  0  0  0.096066  0  1.012722  0  0  0.090218  0.094786  0  1.012864  0
H  H31  1  0.93677274  0.59102069  0.04061810  1  0  0.073556  0  0.948109  0  0  0.095272  0  1.01289  0  0  0.096026  0  1.012714  0  0  0.090189  0.094749  0  1.012849  0
H  H32  1  0.47308349  0.17120284  0.02541058  1  0  0.0552  0  1.010716  0  0  0.073656  0  1.085922  0  0  0.075193  0  1.085006  0  0  0.085745  0.072701  0  1.086263  0
H  H33  1  0.52689039  0.82878652  0.97459072  1  0  0.055224  0  1.010825  0  0  0.073692  0  1.086014  0  0  0.075229  0  1.085101  0  0  0.085751  0.072741  0  1.086349  0
H  H34  1  0.40340971  0.32209036  0.07873743  1  0  0.075561  0  0.96439  0  0  0.099217  0  1.029032  0  0  0.099518  0  1.029193  0  0  0.096518  0.098705  0  1.029568  0
H  H35  1  0.59658310  0.67790467  0.92126328  1  0  0.075619  0  0.964313  0  0  0.09928  0  1.028955  0  0  0.099581  0  1.029115  0  0  0.096553  0.098767  0  1.029499  0
H  H36  1  0.58511700  0.31769970  0.97070717  1  0  0.062872  0  0.950358  0  0  0.084947  0  1.016393  0  0  0.085935  0  1.016091  0  0  0.088933  0.084398  0  1.016262  0
H  H37  1  0.41487520  0.68228662  0.02929397  1  0  0.062951  0  0.950416  0  0  0.085023  0  1.016457  0  0  0.086008  0  1.016159  0  0  0.088989  0.08449  0  1.016311  0
H  H38  1  0.55158686  0.39417835  0.79226900  1  0  0.069256  0  0.977119  0  0  0.089756  0  1.043206  0  0  0.090613  0  1.042856  0  0  0.089874  0.089068  0  1.043607  0
H  H39  1  0.44842095  0.60581311  0.20774444  1  0  0.069461  0  0.976946  0  0  0.089869  0  1.04312  0  0  0.090724  0  1.04277  0  0  0.089932  0.089184  0  1.043516  0
H  H40  1  0.37129245  0.34903322  0.64511503  1  0  0.058622  0  0.959577  0  0  0.079883  0  1.027761  0  0  0.080816  0  1.027574  0  0  0.081453  0.079103  0  1.028179  0
H  H41  1  0.62870608  0.65095631  0.35489655  1  0  0.058615  0  0.959537  0  0  0.079917  0  1.027693  0  0  0.080859  0  1.027499  0  0  0.081463  0.079139  0  1.028104  0
H  H42  1  0.68186400  0.35782443  0.66726635  1  0  0.073394  0  0.958527  0  0  0.098624  0  1.019471  0  0  0.099103  0  1.019782  0  0  0.092397  0.098418  0  1.019025  0
H  H43  1  0.31814073  0.64216888  0.33274335  1  0  0.073263  0  0.958736  0  0  0.098513  0  1.019671  0  0  0.098988  0  1.019987  0  0  0.092351  0.098315  0  1.019213  0
H  H44  1  0.56224285  0.01372576  0.64934215  1  0  0.064581  0  0.97391  0  0  0.085836  0  1.040077  0  0  0.087189  0  1.038739  0  0  0.088705  0.084771  0  1.041242  0
H  H45  1  0.43776550  0.98626978  0.35064773  1  0  0.06459  0  0.973941  0  0  0.08587  0  1.040085  0  0  0.08722  0  1.038747  0  0  0.088727  0.084809  0  1.041238  0
H  H46  1  0.72906982  0.15070160  0.60906429  1  0  0.055671  0  1.023385  0  0  0.06951  0  1.106748  0  0  0.069464  0  1.108828  0  0  0.084778  0.069473  0  1.105427  0
H  H47  1  0.27093603  0.84930901  0.39094102  1  0  0.055721  0  1.023326  0  0  0.06953  0  1.106726  0  0  0.069477  0  1.108812  0  0  0.084749  0.069492  0  1.105398  0
H  H48  1  0.41954229  0.11430267  0.54713427  1  0  0.06431  0  0.948064  0  0  0.086322  0  1.013618  0  0  0.087479  0  1.013096  0  0  0.080671  0.085377  0  1.014134  0
H  H49  1  0.58046642  0.88571186  0.45287325  1  0  0.064314  0  0.948018  0  0  0.086297  0  1.013608  0  0  0.08745  0  1.013091  0  0  0.080681  0.085351  0  1.014122  0
C  C50  1  0.15690687  0.86190953  0.76569910  1  0  0.207444  0  3.730636  0  0  0.198261  0  3.969679  0  0  0.204187  0  3.987977  0  0  -0.023942  0.194382  0  3.956621  0
C  C51  1  0.84308328  0.13808846  0.23430237  1  0  0.207547  0  3.73045  0  0  0.198426  0  3.969427  0  0  0.204354  0  3.987718  0  0  -0.023907  0.194554  0  3.956362  0
C  C52  1  0.94176252  0.78684753  0.80248262  1  0  -0.164498  0  3.687606  0  0  -0.202862  0  3.933433  0  0  -0.205547  0  3.949208  0  0  -0.17867  -0.200656  0  3.922085  0
C  C53  1  0.05824406  0.21314060  0.19751733  1  0  -0.164979  0  3.687873  0  0  -0.203333  0  3.933615  0  0  -0.206016  0  3.949376  0  0  -0.178868  -0.201118  0  3.922245  0
C  C54  1  0.88525496  0.64593322  0.74568708  1  0  -0.099507  0  3.690831  0  0  -0.137602  0  3.946927  0  0  -0.138789  0  3.962972  0  0  -0.169028  -0.136825  0  3.936008  0
C  C55  1  0.11474814  0.35406232  0.25430142  1  0  -0.099213  0  3.69075  0  0  -0.137099  0  3.946519  0  0  -0.138286  0  3.96256  0  0  -0.168828  -0.136328  0  3.935634  0
C  C56  1  0.84250311  0.63818943  0.60797936  1  0  -0.107153  0  3.696036  0  0  -0.144097  0  3.951374  0  0  -0.145146  0  3.966566  0  0  -0.169908  -0.143054  0  3.940572  0
C  C57  1  0.15749706  0.36180808  0.39200983  1  0  -0.107279  0  3.69604  0  0  -0.144194  0  3.951172  0  0  -0.145248  0  3.96636  0  0  -0.169919  -0.143156  0  3.940371  0
C  C58  1  0.04714795  0.71623734  0.56732592  1  0  -0.101796  0  3.704112  0  0  -0.139726  0  3.964907  0  0  -0.140773  0  3.979621  0  0  -0.171644  -0.138623  0  3.954442  0
C  C59  1  0.95283513  0.28378063  0.43266258  1  0  -0.101899  0  3.704369  0  0  -0.13969  0  3.965033  0  0  -0.140748  0  3.979779  0  0  -0.17163  -0.138609  0  3.95457  0
C  C60  1  0.09849896  0.85647710  0.62679411  1  0  -0.18015  0  3.679517  0  0  -0.218048  0  3.923839  0  0  -0.220519  0  3.939102  0  0  -0.174577  -0.216175  0  3.913015  0
C  C61  1  0.90149136  0.14353442  0.37320624  1  0  -0.180146  0  3.679315  0  0  -0.21814  0  3.923608  0  0  -0.220609  0  3.938869  0  0  -0.174678  -0.216277  0  3.912825  0
C  C62  1  0.13373577  0.37142025  0.88226667  1  0  -0.159688  0  3.779887  0  0  -0.253108  0  4.03883  0  0  -0.250311  0  4.049329  0  0  -0.154737  -0.254583  0  4.031161  0
C  C63  1  0.86626829  0.62858362  0.11773992  1  0  -0.159551  0  3.779881  0  0  -0.252951  0  4.038781  0  0  -0.250161  0  4.049305  0  0  -0.154613  -0.254423  0  4.031105  0
C  C64  1  0.42975431  0.26523097  0.99796981  1  0  -0.144649  0  3.772408  0  0  -0.237258  0  4.021443  0  0  -0.234568  0  4.032913  0  0  -0.156515  -0.238994  0  4.013113  0
C  C65  1  0.57023280  0.73476220  0.00203204  1  0  -0.144851  0  3.772712  0  0  -0.23748  0  4.021727  0  0  -0.234791  0  4.033205  0  0  -0.156615  -0.239226  0  4.013388  0
C  C66  1  0.53025191  0.32943199  0.70874730  1  0  -0.144333  0  3.766396  0  0  -0.230677  0  4.016025  0  0  -0.228358  0  4.027283  0  0  -0.156808  -0.232137  0  4.008224  0
C  C67  1  0.46976033  0.67055655  0.29126643  1  0  -0.144294  0  3.766161  0  0  -0.230672  0  4.015761  0  0  -0.228351  0  4.027038  0  0  -0.156827  -0.232127  0  4.007944  0
C  C68  1  0.55771141  0.11519410  0.63006003  1  0  -0.171999  0  3.812331  0  0  -0.258945  0  4.067339  0  0  -0.256717  0  4.077988  0  0  -0.171593  -0.260215  0  4.059934  0
C  C69  1  0.44229471  0.88481151  0.36994067  1  0  -0.172017  0  3.812367  0  0  -0.258998  0  4.067423  0  0  -0.25678  0  4.078148  0  0  -0.171632  -0.26027  0  4.060034  0
N  N70  1  0.23607549  0.98843622  0.83823888  1  0  -0.941421  0  2.81715  0  0  -0.877016  0  3.117853  0  0  -0.903503  0  3.129289  0  0  -0.649172  -0.857703  0  3.108721  0
N  N71  1  0.76389111  0.01156481  0.16176225  1  0  -0.941437  0  2.817108  0  0  -0.877032  0  3.117774  0  0  -0.903522  0  3.12921  0  0  -0.649268  -0.857722  0  3.108628  0
N  N72  1  0.21594430  0.24784622  0.90476844  1  0  -0.369564  0  3.222917  0  0  -0.273386  0  3.49042  0  0  -0.289663  0  3.508203  0  0  -0.414526  -0.26159  0  3.477927  0
N  N73  1  0.78404112  0.75215369  0.09523179  1  0  -0.369498  0  3.222847  0  0  -0.273426  0  3.490615  0  0  -0.289712  0  3.508408  0  0  -0.4145  -0.261629  0  3.478118  0
N  N74  1  0.52196465  0.19437613  0.73487830  1  0  -0.424345  0  3.113601  0  0  -0.338559  0  3.389511  0  0  -0.355131  0  3.407628  0  0  -0.488775  -0.326472  0  3.376603  0
N  N75  1  0.47804585  0.80561910  0.26513204  1  0  -0.424514  0  3.113551  0  0  -0.338508  0  3.389071  0  0  -0.355041  0  3.407047  0  0  -0.488782  -0.326459  0  3.376253  0
