# generated using pymatgen
data_CuH14C11I(BrN2)2
_symmetry_space_group_name_H-M   'P 1'
_cell_length_a   4.26225550
_cell_length_b   8.92500395
_cell_length_c   20.27085582
_cell_angle_alpha   89.99977256
_cell_angle_beta   89.99976366
_cell_angle_gamma   94.31410331
_symmetry_Int_Tables_number   1
_chemical_formula_structural   CuH14C11I(BrN2)2
_chemical_formula_sum   'Cu2 H28 C22 I2 Br4 N8'
_cell_volume   768.93162904
_cell_formula_units_Z   2
loop_
 _symmetry_equiv_pos_site_id
 _symmetry_equiv_pos_as_xyz
  1  'x, y, z'
loop_
 _atom_site_type_symbol
 _atom_site_label
 _atom_site_symmetry_multiplicity
 _atom_site_fract_x
 _atom_site_fract_y
 _atom_site_fract_z
 _atom_site_occupancy
 _atom_site_hle17_bader_spin_density
 _atom_site_hle17_ddec_charge
 _atom_site_hle17_ddec_spin_density
 _atom_site_hle17_ddec_sum_bond_order
 _atom_site_hle17_magmom
 _atom_site_hse06_10hf_bader_spin_density
 _atom_site_hse06_10hf_ddec_charge
 _atom_site_hse06_10hf_ddec_spin_density
 _atom_site_hse06_10hf_ddec_sum_bond_order
 _atom_site_hse06_10hf_magmom
 _atom_site_hse06_bader_spin_density
 _atom_site_hse06_ddec_charge
 _atom_site_hse06_ddec_spin_density
 _atom_site_hse06_ddec_sum_bond_order
 _atom_site_hse06_magmom
 _atom_site_pbe_bader_spin_density
 _atom_site_pbe_cm5_charge
 _atom_site_pbe_ddec_charge
 _atom_site_pbe_ddec_spin_density
 _atom_site_pbe_ddec_sum_bond_order
 _atom_site_pbe_magmom
Cu  Cu0  1  0.02185275  0.58693642  0.25000027  1  0  0.316346  0  2.140629  0  0  0.216457  0  2.642499  0  0  0.222668  0  2.594878  0  0  0.340346  0.214538  0  2.673771  0
Cu  Cu1  1  0.97814988  0.41306339  0.74999962  1  0  0.316163  0  2.140573  0  0  0.216393  0  2.642486  0  0  0.222569  0  2.594852  0  0  0.340319  0.214504  0  2.67373  0
H  H2  1  0.78331755  0.64809447  0.38859788  1  0  0.124112  0  0.959268  0  0  0.141218  0  1.025292  0  0  0.144708  0  1.022147  0  0  0.086433  0.138656  0  1.027555  0
H  H3  1  0.21667743  0.35190397  0.88859898  1  0  0.124107  0  0.959245  0  0  0.141214  0  1.025269  0  0  0.144705  0  1.022121  0  0  0.08643  0.138653  0  1.02753  0
H  H4  1  0.21667402  0.35190981  0.61140200  1  0  0.124169  0  0.959197  0  0  0.141267  0  1.025223  0  0  0.144758  0  1.022075  0  0  0.086466  0.138705  0  1.027487  0
H  H5  1  0.78332234  0.64809246  0.11140337  1  0  0.124169  0  0.959219  0  0  0.141243  0  1.025269  0  0  0.144734  0  1.022122  0  0  0.086453  0.138681  0  1.027534  0
H  H6  1  0.78914823  0.55361320  0.46640622  1  0  0.109809  0  0.967618  0  0  0.126043  0  1.038393  0  0  0.127581  0  1.038204  0  0  0.083746  0.124987  0  1.038489  0
H  H7  1  0.21085398  0.44638113  0.96640766  1  0  0.109796  0  0.96763  0  0  0.126029  0  1.038403  0  0  0.127567  0  1.038214  0  0  0.083744  0.124973  0  1.038499  0
H  H8  1  0.21085389  0.44638324  0.53359218  1  0  0.109792  0  0.967629  0  0  0.12603  0  1.03839  0  0  0.127563  0  1.038206  0  0  0.083738  0.124974  0  1.038486  0
H  H9  1  0.78914797  0.55361418  0.03359470  1  0  0.109816  0  0.967651  0  0  0.126037  0  1.038429  0  0  0.127577  0  1.038238  0  0  0.083757  0.124983  0  1.038523  0
H  H10  1  0.45840140  0.52591253  0.41378355  1  0  0.123657  0  0.955589  0  0  0.142656  0  1.018516  0  0  0.144014  0  1.019175  0  0  0.090188  0.141646  0  1.018145  0
H  H11  1  0.54159288  0.47408455  0.91378416  1  0  0.123661  0  0.955606  0  0  0.142659  0  1.018532  0  0  0.144017  0  1.019192  0  0  0.090201  0.141648  0  1.018162  0
H  H12  1  0.54159235  0.47409064  0.58621683  1  0  0.12372  0  0.955518  0  0  0.142701  0  1.018462  0  0  0.144059  0  1.019119  0  0  0.090196  0.141691  0  1.018091  0
H  H13  1  0.45840237  0.52591300  0.08621721  1  0  0.12367  0  0.95556  0  0  0.142669  0  1.018481  0  0  0.144027  0  1.019139  0  0  0.090198  0.141658  0  1.018111  0
H  H14  1  0.98724636  0.96510427  0.31523406  1  0  0.121521  0  0.98522  0  0  0.138423  0  1.052782  0  0  0.141165  0  1.051898  0  0  0.076452  0.136215  0  1.053781  0
H  H15  1  0.01275573  0.03490052  0.81523540  1  0  0.121532  0  0.985258  0  0  0.138425  0  1.052823  0  0  0.141163  0  1.051943  0  0  0.076438  0.136217  0  1.053821  0
H  H16  1  0.01274974  0.03489890  0.68476730  1  0  0.121479  0  0.98525  0  0  0.138364  0  1.052826  0  0  0.141104  0  1.051946  0  0  0.076427  0.136157  0  1.053827  0
H  H17  1  0.98724690  0.96509929  0.18476449  1  0  0.121496  0  0.985268  0  0  0.138392  0  1.052844  0  0  0.141128  0  1.051964  0  0  0.076433  0.136183  0  1.053841  0
H  H18  1  0.05634723  0.97612042  0.40131420  1  0  0.116066  0  0.974096  0  0  0.13277  0  1.043036  0  0  0.135432  0  1.040989  0  0  0.083793  0.130844  0  1.04453  0
H  H19  1  0.94365017  0.02388015  0.90131475  1  0  0.116106  0  0.974034  0  0  0.132785  0  1.042987  0  0  0.135444  0  1.040939  0  0  0.083788  0.13086  0  1.044477  0
H  H20  1  0.94364401  0.02388162  0.59868717  1  0  0.116091  0  0.974077  0  0  0.132792  0  1.043003  0  0  0.135452  0  1.040958  0  0  0.083819  0.130865  0  1.044499  0
H  H21  1  0.05635028  0.97612077  0.09868464  1  0  0.116097  0  0.974014  0  0  0.132782  0  1.042968  0  0  0.135442  0  1.040922  0  0  0.083805  0.130857  0  1.044462  0
H  H22  1  0.36882365  0.02116088  0.34519640  1  0  0.119835  0  0.960513  0  0  0.137307  0  1.026715  0  0  0.139354  0  1.026459  0  0  0.085002  0.135839  0  1.026822  0
H  H23  1  0.63117695  0.97883800  0.84519703  1  0  0.119877  0  0.960514  0  0  0.137341  0  1.026714  0  0  0.139389  0  1.026457  0  0  0.08501  0.135873  0  1.02682  0
H  H24  1  0.63116959  0.97883892  0.65480546  1  0  0.119833  0  0.960468  0  0  0.137294  0  1.026679  0  0  0.139341  0  1.026421  0  0  0.084987  0.135825  0  1.026789  0
H  H25  1  0.36883003  0.02115957  0.15480187  1  0  0.119826  0  0.960488  0  0  0.137293  0  1.026697  0  0  0.13934  0  1.02644  0  0  0.084994  0.135823  0  1.026809  0
H  H26  1  0.49051990  0.37203290  0.25000025  1  0  0.093229  0  0.937166  0  0  0.089422  0  1.029057  0  0  0.093425  0  1.023342  0  0  0.1256  0.086292  0  1.033306  0
H  H27  1  0.50949178  0.62796468  0.74999963  1  0  0.093198  0  0.937151  0  0  0.089393  0  1.029051  0  0  0.093393  0  1.023329  0  0  0.125615  0.086261  0  1.0333  0
H  H28  1  0.40092241  0.17116519  0.25000146  1  0  0.105509  0  0.898308  0  0  0.121272  0  0.956312  0  0  0.121824  0  0.956145  0  0  0.140266  0.120735  0  0.956638  0
H  H29  1  0.59908257  0.82883462  0.75000041  1  0  0.105509  0  0.898292  0  0  0.121271  0  0.956308  0  0  0.121818  0  0.956138  0  0  0.140273  0.120735  0  0.956629  0
C  C30  1  0.71623662  0.54286963  0.41457076  1  0  -0.364116  0  3.743167  0  0  -0.443991  0  3.983053  0  0  -0.447395  0  3.989088  0  0  -0.248814  -0.441434  0  3.978818  0
C  C31  1  0.28375798  0.45712969  0.91457162  1  0  -0.364071  0  3.743255  0  0  -0.443955  0  3.983096  0  0  -0.447362  0  3.989129  0  0  -0.2488  -0.441397  0  3.978854  0
C  C32  1  0.28375730  0.45713466  0.58542765  1  0  -0.364285  0  3.743272  0  0  -0.444133  0  3.983131  0  0  -0.447535  0  3.989164  0  0  -0.248855  -0.441573  0  3.978894  0
C  C33  1  0.71623962  0.54286787  0.08543024  1  0  -0.364209  0  3.743254  0  0  -0.444035  0  3.983123  0  0  -0.447439  0  3.989156  0  0  -0.248857  -0.441476  0  3.978879  0
C  C34  1  0.86071778  0.41581815  0.38215037  1  0  0.236425  0  3.762031  0  0  0.227753  0  4.035593  0  0  0.23791  0  4.052026  0  0  0.093054  0.221108  0  4.024461  0
C  C35  1  0.13928169  0.58417812  0.88215163  1  0  0.236298  0  3.762163  0  0  0.227707  0  4.035622  0  0  0.237874  0  4.052044  0  0  0.093015  0.22106  0  4.024499  0
C  C36  1  0.13928284  0.58418390  0.61784705  1  0  0.236624  0  3.762118  0  0  0.227992  0  4.035644  0  0  0.238161  0  4.052061  0  0  0.093169  0.221342  0  4.024521  0
C  C37  1  0.86071791  0.41581719  0.11785023  1  0  0.23648  0  3.762051  0  0  0.227825  0  4.035578  0  0  0.237978  0  4.052021  0  0  0.093077  0.22118  0  4.024448  0
C  C38  1  0.87044476  0.26542187  0.40351714  1  0  -0.163101  0  3.740535  0  0  -0.15733  0  4.032156  0  0  -0.163621  0  4.052621  0  0  -0.054587  -0.153638  0  4.018615  0
C  C39  1  0.12955259  0.73457868  0.90351814  1  0  -0.163112  0  3.740505  0  0  -0.157314  0  4.032087  0  0  -0.163609  0  4.052553  0  0  -0.054602  -0.153623  0  4.018546  0
C  C40  1  0.12954916  0.73458242  0.59647880  1  0  -0.163182  0  3.740437  0  0  -0.157377  0  4.032089  0  0  -0.163672  0  4.052552  0  0  -0.054606  -0.153687  0  4.018553  0
C  C41  1  0.87044752  0.26542000  0.09648274  1  0  -0.163192  0  3.740445  0  0  -0.157433  0  4.032076  0  0  -0.163723  0  4.052542  0  0  -0.054631  -0.153744  0  4.018541  0
C  C42  1  0.03496042  0.18859639  0.35655063  1  0  0.18553  0  3.748279  0  0  0.16257  0  4.027956  0  0  0.174077  0  4.046038  0  0  0.089364  0.155119  0  4.015434  0
C  C43  1  0.96505385  0.81140128  0.85655028  1  0  0.185672  0  3.748053  0  0  0.162627  0  4.027808  0  0  0.174134  0  4.045894  0  0  0.089406  0.155175  0  4.015287  0
C  C44  1  0.96505211  0.81140681  0.64344778  1  0  0.185802  0  3.747879  0  0  0.162711  0  4.0277  0  0  0.174217  0  4.045785  0  0  0.089436  0.15526  0  4.015183  0
C  C45  1  0.03496470  0.18859519  0.14344961  1  0  0.185516  0  3.748269  0  0  0.162566  0  4.027928  0  0  0.174074  0  4.046007  0  0  0.089403  0.155114  0  4.01541  0
C  C46  1  0.11678117  0.03039263  0.35402148  1  0  -0.369371  0  3.762301  0  0  -0.444546  0  4.001855  0  0  -0.448712  0  4.007046  0  0  -0.251157  -0.441398  0  3.998262  0
C  C47  1  0.88321724  0.96960840  0.85402241  1  0  -0.369582  0  3.762184  0  0  -0.44469  0  4.001757  0  0  -0.448849  0  4.006945  0  0  -0.251199  -0.441541  0  3.998161  0
C  C48  1  0.88321476  0.96960941  0.64597939  1  0  -0.36944  0  3.762243  0  0  -0.444529  0  4.001796  0  0  -0.448693  0  4.006989  0  0  -0.251172  -0.441367  0  3.998174  0
C  C49  1  0.11678522  0.03039028  0.14597748  1  0  -0.36936  0  3.762318  0  0  -0.444506  0  4.001858  0  0  -0.448664  0  4.007056  0  0  -0.251152  -0.441341  0  3.998239  0
C  C50  1  0.30149123  0.28072503  0.25000042  1  0  0.090114  0  3.593337  0  0  0.00984  0  3.844849  0  0  0.019717  0  3.850773  0  0  0.063934  0.003169  0  3.841403  0
C  C51  1  0.69851844  0.71927479  0.75000046  1  0  0.090266  0  3.593202  0  0  0.009988  0  3.84473  0  0  0.01989  0  3.850623  0  0  0.063943  0.003325  0  3.841271  0
I  I52  1  0.55209574  0.75274267  0.25000039  1  0  -0.477296  0  1.587503  0  0  -0.416464  0  2.032264  0  0  -0.431938  0  1.991542  0  0  -0.215622  -0.404842  0  2.060231  0
I  I53  1  0.44790689  0.24725714  0.74999999  1  0  -0.477204  0  1.587494  0  0  -0.41643  0  2.032323  0  0  -0.431885  0  1.991579  0  0  -0.215628  -0.404827  0  2.060288  0
Br  Br54  1  0.69662825  0.18287099  0.48178729  1  0  -0.009826  0  1.397877  0  0  0.006544  0  1.669862  0  0  0.00247  0  1.664274  0  0  0.071729  0.009166  0  1.674082  0
Br  Br55  1  0.30337145  0.81712431  0.98178750  1  0  -0.009795  0  1.397843  0  0  0.006562  0  1.669821  0  0  0.002488  0  1.664234  0  0  0.07174  0.009182  0  1.674044  0
Br  Br56  1  0.30334673  0.81713215  0.51820915  1  0  -0.009806  0  1.397883  0  0  0.006554  0  1.669892  0  0  0.002481  0  1.664304  0  0  0.071736  0.009174  0  1.674117  0
Br  Br57  1  0.69662816  0.18287100  0.01821239  1  0  -0.009774  0  1.397803  0  0  0.006587  0  1.669793  0  0  0.002514  0  1.664205  0  0  0.071748  0.009206  0  1.674014  0
N  N58  1  0.01331441  0.43173660  0.32416748  1  0  -0.273346  0  3.161367  0  0  -0.237824  0  3.472477  0  0  -0.244824  0  3.47754  0  0  -0.27278  -0.23372  0  3.469074  0
N  N59  1  0.98668664  0.56826248  0.82416902  1  0  -0.273305  0  3.161228  0  0  -0.237867  0  3.472378  0  0  -0.244862  0  3.47743  0  0  -0.272788  -0.233767  0  3.468977  0
N  N60  1  0.98669376  0.56826883  0.67582945  1  0  -0.273337  0  3.161315  0  0  -0.237911  0  3.472493  0  0  -0.244906  0  3.477544  0  0  -0.272876  -0.23381  0  3.469092  0
N  N61  1  0.01331330  0.43173507  0.17583235  1  0  -0.273363  0  3.161334  0  0  -0.237853  0  3.47244  0  0  -0.244853  0  3.477503  0  0  -0.272794  -0.23375  0  3.469037  0
N  N62  1  0.11693271  0.29413162  0.30943754  1  0  -0.021172  0  3.513387  0  0  0.058123  0  3.74341  0  0  0.04497  0  3.769311  0  0  -0.159705  0.066639  0  3.726158  0
N  N63  1  0.88306916  0.70587098  0.80943843  1  0  -0.021153  0  3.513129  0  0  0.058167  0  3.743238  0  0  0.045006  0  3.769137  0  0  -0.159684  0.066681  0  3.725987  0
N  N64  1  0.88307294  0.70587269  0.69056235  1  0  -0.021422  0  3.513216  0  0  0.057939  0  3.74333  0  0  0.04478  0  3.769225  0  0  -0.159692  0.066452  0  3.726081  0
N  N65  1  0.11693582  0.29412883  0.19056293  1  0  -0.021102  0  3.513262  0  0  0.058191  0  3.743292  0  0  0.045039  0  3.769191  0  0  -0.159672  0.066705  0  3.726042  0
