# generated using pymatgen
data_AlH7C16O5F2
_symmetry_space_group_name_H-M   'P 1'
_cell_length_a   6.65196150
_cell_length_b   24.57768240
_cell_length_c   25.04271303
_cell_angle_alpha   89.98126139
_cell_angle_beta   88.52282654
_cell_angle_gamma   87.85480598
_symmetry_Int_Tables_number   1
_chemical_formula_structural   AlH7C16O5F2
_chemical_formula_sum   'Al4 H28 C64 O20 F8'
_cell_volume   4089.99825137
_cell_formula_units_Z   4
loop_
 _symmetry_equiv_pos_site_id
 _symmetry_equiv_pos_as_xyz
  1  'x, y, z'
loop_
 _atom_site_type_symbol
 _atom_site_label
 _atom_site_symmetry_multiplicity
 _atom_site_fract_x
 _atom_site_fract_y
 _atom_site_fract_z
 _atom_site_occupancy
 _atom_site_pbe_bader_charge
 _atom_site_pbe_bader_spin_density
 _atom_site_pbe_cm5_charge
 _atom_site_pbe_ddec_charge
 _atom_site_pbe_ddec_spin_density
 _atom_site_pbe_ddec_sum_bond_order
 _atom_site_pbe_magmom
Al  Al0  1  0.98681849  0.00111653  0.49807672  1  2.501244  0  0.400874  1.647643  0  2.575761  0
Al  Al1  1  0.48654722  0.99957807  0.49960233  1  2.503411  0  0.400702  1.648219  0  2.569201  0
Al  Al2  1  0.01379128  0.50048938  0.00027136  1  2.503229  0  0.400703  1.648305  0  2.569241  0
Al  Al3  1  0.51347287  0.49901541  0.00183120  1  2.501045  0  0.400867  1.648179  0  2.574714  0
H  H4  1  0.22950039  0.06985109  0.51592581  1  0.607225  0  0.354551  0.436524  0  0.846796  0
H  H5  1  0.75048851  0.93181751  0.51788821  1  0.625682  0  0.352455  0.434332  0  0.852587  0
H  H6  1  0.27101668  0.43014486  0.98415505  1  0.609  0  0.354562  0.436756  0  0.846647  0
H  H7  1  0.74997565  0.56830871  0.98204642  1  0.625704  0  0.352127  0.433656  0  0.853768  0
H  H8  1  0.45992010  0.40405173  0.13111443  1  0.145422  0  0.114463  0.124901  0  0.993298  0
H  H9  1  0.44463414  0.33357039  0.20279249  1  0.072356  0  0.105208  0.110635  0  0.999599  0
H  H10  1  0.07939392  0.29553377  0.17490751  1  0.107605  0  0.113759  0.138608  0  0.987544  0
H  H11  1  0.42073082  0.20435884  0.32479459  1  0.110515  0  0.113937  0.138671  0  0.987502  0
H  H12  1  0.04031841  0.09601000  0.36876019  1  0.143858  0  0.114773  0.124696  0  0.994398  0
H  H13  1  0.05558090  0.16644466  0.29701233  1  0.115578  0  0.10572  0.110793  0  0.99977  0
H  H14  1  0.95834408  0.59706955  0.86650516  1  0.132357  0  0.111325  0.119129  0  1.001755  0
H  H15  1  0.94828150  0.66749372  0.79482870  1  0.088433  0  0.105841  0.111129  0  0.995997  0
H  H16  1  0.56517932  0.70328690  0.82760395  1  0.134596  0  0.114537  0.139363  0  0.987345  0
H  H17  1  0.93500946  0.79700307  0.67253609  1  0.089057  0  0.114566  0.139646  0  0.986773  0
H  H18  1  0.54195727  0.90313969  0.63344281  1  0.12636  0  0.111312  0.119079  0  1.002728  0
H  H19  1  0.55210823  0.83277693  0.70516249  1  0.074172  0  0.105773  0.110976  0  0.996159  0
H  H20  1  0.55729764  0.59549096  0.13048830  1  0.152153  0  0.113916  0.12527  0  0.999958  0
H  H21  1  0.56367244  0.66667390  0.20138672  1  0.072224  0  0.104773  0.109362  0  1.001882  0
H  H22  1  0.93113373  0.70326821  0.17706304  1  0.073261  0  0.113472  0.138199  0  0.988506  0
H  H23  1  0.56890080  0.79687369  0.32272139  1  0.075057  0  0.113516  0.138446  0  0.988173  0
H  H24  1  0.94274134  0.90460656  0.36945586  1  0.152329  0  0.113935  0.125145  0  1.000577  0
H  H25  1  0.93625391  0.83344372  0.29855663  1  0.071783  0  0.104865  0.109544  0  1.001783  0
H  H26  1  0.46897413  0.40605760  0.87029083  1  0.118717  0  0.113025  0.12182  0  0.99718  0
H  H27  1  0.45328952  0.33571751  0.79905442  1  0.078801  0  0.105756  0.110901  0  0.997432  0
H  H28  1  0.07859235  0.29087865  0.82516288  1  0.069822  0  0.114806  0.140359  0  0.984055  0
H  H29  1  0.42056258  0.20844413  0.67542073  1  0.098035  0  0.114434  0.139894  0  0.984691  0
H  H30  1  0.03076520  0.09360490  0.63006151  1  0.130534  0  0.112983  0.121674  0  0.997627  0
H  H31  1  0.04580485  0.16361372  0.70161966  1  0.06808  0  0.1058  0.111363  0  0.997682  0
C  C32  1  0.72573866  0.06792960  0.57033283  1  1.601155  0  0.264785  0.65605  0  4.107006  0
C  C33  1  0.72496190  0.06632532  0.42796092  1  1.601652  0  0.268754  0.656329  0  4.108689  0
C  C34  1  0.24688728  0.93446727  0.42776601  1  1.595894  0  0.268592  0.655379  0  4.103454  0
C  C35  1  0.24131050  0.93291755  0.57027438  1  1.586631  0  0.264784  0.654345  0  4.106564  0
C  C36  1  0.77449686  0.43200028  0.92970901  1  1.598336  0  0.26531  0.657182  0  4.106515  0
C  C37  1  0.77534873  0.43374711  0.07191380  1  1.59533  0  0.269429  0.656901  0  4.105893  0
C  C38  1  0.25334808  0.56565563  0.07210843  1  1.596891  0  0.268478  0.654307  0  4.104794  0
C  C39  1  0.25893129  0.56721704  0.92966147  1  1.590455  0  0.265065  0.653938  0  4.106661  0
C  C40  1  0.77574929  0.39136748  0.11454115  1  0.003387  0  -0.019158  -0.155818  0  3.955666  0
C  C41  1  0.59472113  0.38057070  0.14213937  1  -0.028315  0  -0.072061  -0.057797  0  3.976862  0
C  C42  1  0.58592558  0.34108115  0.18159321  1  -0.051649  0  -0.088205  -0.147924  0  3.953292  0
C  C43  1  0.76042436  0.30965369  0.19428299  1  0.178523  0  0.006583  0.172821  0  4.125945  0
C  C44  1  0.94285839  0.31962787  0.16681532  1  0.014606  0  -0.094601  -0.262783  0  3.940292  0
C  C45  1  0.94765421  0.35998195  0.12817279  1  0.448701  0  0.11099  0.286942  0  4.050654  0
C  C46  1  0.75293414  0.26809029  0.23323445  1  -0.320903  0  -0.041008  -0.101912  0  4.102378  0
C  C47  1  0.74702654  0.23184798  0.26651289  1  -0.065646  0  -0.039559  -0.099396  0  4.101471  0
C  C48  1  0.73975210  0.19030019  0.30548877  1  0.12978  0  0.006277  0.172475  0  4.125906  0
C  C49  1  0.55730468  0.18030898  0.33294689  1  0.038344  0  -0.094727  -0.262807  0  3.940983  0
C  C50  1  0.55255420  0.13999008  0.37162761  1  0.44774  0  0.110666  0.286028  0  4.051467  0
C  C51  1  0.72454684  0.10864520  0.38528370  1  0.005777  0  -0.018911  -0.155547  0  3.956294  0
C  C52  1  0.90556471  0.11945709  0.35768990  1  -0.027439  0  -0.072199  -0.056914  0  3.978116  0
C  C53  1  0.91434045  0.15892069  0.31821657  1  -0.097621  0  -0.088725  -0.148569  0  3.954696  0
C  C54  1  0.26417772  0.60925897  0.88657170  1  0.032503  0  -0.0188  -0.155084  0  3.943094  0
C  C55  1  0.09056913  0.62038056  0.85687590  1  -0.026205  0  -0.074454  -0.05758  0  3.982323  0
C  C56  1  0.08461672  0.65976081  0.81725992  1  -0.065139  0  -0.087109  -0.146946  0  3.951769  0
C  C57  1  0.25544403  0.69065356  0.80593205  1  0.168355  0  0.00793  0.174623  0  4.123886  0
C  C58  1  0.43110843  0.68003601  0.83495338  1  0.006733  0  -0.094234  -0.262771  0  3.93901  0
C  C59  1  0.43286950  0.64007418  0.87401405  1  0.41868  0  0.111948  0.291515  0  4.035522  0
C  C60  1  0.25142131  0.73209096  0.76676811  1  -0.296765  0  -0.03984  -0.100602  0  4.098235  0
C  C61  1  0.24896307  0.76826550  0.73335253  1  -0.112632  0  -0.038314  -0.098248  0  4.097803  0
C  C62  1  0.24490919  0.80963266  0.69412520  1  0.159816  0  0.007219  0.173777  0  4.123942  0
C  C63  1  0.06917228  0.82020663  0.66511132  1  0.059438  0  -0.093865  -0.262739  0  3.937728  0
C  C64  1  0.06736427  0.86014631  0.62602686  1  0.419427  0  0.111545  0.291604  0  4.035918  0
C  C65  1  0.23608992  0.89093571  0.61342756  1  0.028868  0  -0.019154  -0.155822  0  3.945084  0
C  C66  1  0.40975090  0.87985048  0.64310680  1  -0.021115  0  -0.074347  -0.056944  0  3.983982  0
C  C67  1  0.41574917  0.84049442  0.68273499  1  -0.047601  0  -0.086926  -0.146581  0  3.952537  0
C  C68  1  0.24437088  0.60796908  0.11490625  1  0.056691  0  -0.019076  -0.158011  0  3.949591  0
C  C69  1  0.42119953  0.61905299  0.14196883  1  -0.057602  0  -0.073021  -0.057953  0  3.979574  0
C  C70  1  0.42493189  0.65887389  0.18104476  1  -0.037083  0  -0.087623  -0.146416  0  3.953919  0
C  C71  1  0.24840167  0.69019555  0.19449790  1  0.146735  0  0.006429  0.172776  0  4.127155  0
C  C72  1  0.06965699  0.67968611  0.16801818  1  0.060334  0  -0.09519  -0.264768  0  3.940259  0
C  C73  1  0.07023432  0.63930798  0.12934228  1  0.432635  0  0.111879  0.290733  0  4.043628  0
C  C74  1  0.24970089  0.73188518  0.23333972  1  -0.308281  0  -0.039464  -0.099665  0  4.100449  0
C  C75  1  0.25006796  0.76825432  0.26651796  1  -0.077515  0  -0.039394  -0.098767  0  4.099212  0
C  C76  1  0.25161242  0.80994841  0.30535055  1  0.072361  0  0.006287  0.172183  0  4.125862  0
C  C77  1  0.43041618  0.82045511  0.33179373  1  0.056638  0  -0.095123  -0.264693  0  3.940302  0
C  C78  1  0.42990431  0.86082111  0.37047060  1  0.434478  0  0.112691  0.29159  0  4.04225  0
C  C79  1  0.25583900  0.89215884  0.38495910  1  0.0418  0  -0.019625  -0.159371  0  3.951235  0
C  C80  1  0.07893878  0.88107203  0.35795067  1  -0.047016  0  -0.072869  -0.057734  0  3.980757  0
C  C81  1  0.07510019  0.84124963  0.31886593  1  0.024847  0  -0.087901  -0.146506  0  3.953289  0
C  C82  1  0.77937351  0.38968102  0.88679322  1  0.019151  0  -0.020253  -0.157339  0  3.946306  0
C  C83  1  0.60169642  0.38091488  0.85919350  1  -0.017838  0  -0.074249  -0.057031  0  3.98426  0
C  C84  1  0.59265974  0.34160129  0.81983561  1  0.036901  0  -0.087412  -0.146346  0  3.95606  0
C  C85  1  0.76430416  0.30825768  0.80665951  1  0.111965  0  0.007376  0.173876  0  4.12592  0
C  C86  1  0.94383429  0.31620632  0.83377485  1  0.004121  0  -0.094504  -0.264099  0  3.936102  0
C  C87  1  0.94851241  0.35632319  0.87264181  1  0.406252  0  0.11048  0.289728  0  4.040072  0
C  C88  1  0.75510911  0.26728129  0.76731227  1  -0.251323  0  -0.039158  -0.098945  0  4.100587  0
C  C89  1  0.74333839  0.23199466  0.73336799  1  -0.096345  0  -0.039106  -0.099758  0  4.100727  0
C  C90  1  0.73465429  0.19107349  0.69394709  1  0.095738  0  0.006962  0.17333  0  4.125955  0
C  C91  1  0.55533423  0.18317670  0.66673438  1  0.040779  0  -0.09392  -0.2631  0  3.938147  0
C  C92  1  0.55098477  0.14321078  0.62772449  1  0.398118  0  0.110263  0.290006  0  4.040757  0
C  C93  1  0.72038891  0.10998631  0.61349269  1  0.020571  0  -0.020045  -0.156764  0  3.943898  0
C  C94  1  0.89789624  0.11866826  0.64121121  1  -0.038665  0  -0.074302  -0.057389  0  3.984034  0
C  C95  1  0.90651974  0.15780935  0.68074985  1  0.059845  0  -0.087191  -0.146213  0  3.956543  0
O  O96  1  0.89997310  0.04844736  0.55689043  1  -1.252658  0  -0.23669  -0.594124  0  2.344534  0
O  O97  1  0.55947968  0.04510560  0.44074121  1  -1.245602  0  -0.231094  -0.579855  0  2.352303  0
O  O98  1  0.40908556  0.94532823  0.45056114  1  -1.249876  0  -0.232189  -0.587273  0  2.368877  0
O  O99  1  0.07659969  0.94558986  0.54794400  1  -1.250031  0  -0.236089  -0.600839  0  2.376088  0
O  O100  1  0.07402154  0.95613976  0.43896117  1  -1.260121  0  -0.23105  -0.577527  0  2.329801  0
O  O101  1  0.41238114  0.95230066  0.55886219  1  -1.255248  0  -0.23634  -0.588897  0  2.320463  0
O  O102  1  0.56032436  0.05510743  0.55018909  1  -1.250839  0  -0.237279  -0.599796  0  2.357249  0
O  O103  1  0.89435045  0.05496753  0.44867041  1  -1.252883  0  -0.231418  -0.584545  0  2.339313  0
O  O104  1  0.23298772  0.03365147  0.50052005  1  -1.404986  0  -0.448293  -0.995667  0  2.202916  0
O  O105  1  0.74215427  0.96705526  0.50049583  1  -1.424246  0  -0.448393  -0.994413  0  2.194768  0
O  O106  1  0.94005269  0.44492877  0.94969452  1  -1.248849  0  -0.237086  -0.599868  0  2.356732  0
O  O107  1  0.60584834  0.44520232  0.05129414  1  -1.251147  0  -0.231658  -0.585171  0  2.338599  0
O  O108  1  0.42629943  0.54403033  0.06090938  1  -1.26066  0  -0.231438  -0.577598  0  2.33084  0
O  O109  1  0.08794963  0.54777448  0.94102903  1  -1.256709  0  -0.23625  -0.588626  0  2.321187  0
O  O110  1  0.09122513  0.55475604  0.04930346  1  -1.251617  0  -0.231778  -0.58679  0  2.368653  0
O  O111  1  0.42367245  0.55452830  0.95197857  1  -1.248401  0  -0.236651  -0.601495  0  2.375939  0
O  O112  1  0.60032607  0.45155342  0.94313202  1  -1.252201  0  -0.237288  -0.594909  0  2.344151  0
O  O113  1  0.94091406  0.45490212  0.05909369  1  -1.247575  0  -0.231527  -0.580001  0  2.351172  0
O  O114  1  0.26733811  0.46644319  0.99933589  1  -1.407213  0  -0.448174  -0.9961  0  2.203446  0
O  O115  1  0.75822685  0.53306243  0.99942671  1  -1.424111  0  -0.44815  -0.993964  0  2.19555  0
F  F116  1  0.12662743  0.36680822  0.10220617  1  -0.63128  0  -0.086821  -0.129454  0  1.366655  0
F  F117  1  0.37361280  0.13315298  0.39759058  1  -0.630425  0  -0.086825  -0.129182  0  1.366902  0
F  F118  1  0.60761704  0.63283731  0.90059430  1  -0.628026  0  -0.089364  -0.135537  0  1.367144  0
F  F119  1  0.89256693  0.86740141  0.59946949  1  -0.628697  0  -0.089086  -0.136548  0  1.368621  0
F  F120  1  0.89307774  0.63196272  0.10517541  1  -0.627304  0  -0.085131  -0.12769  0  1.377012  0
F  F121  1  0.60713473  0.86815916  0.39462757  1  -0.626104  0  -0.085543  -0.12808  0  1.375758  0
F  F122  1  0.12612844  0.36124846  0.89757840  1  -0.633283  0  -0.091467  -0.136669  0  1.361897  0
F  F123  1  0.37352591  0.13834162  0.60270714  1  -0.631836  0  -0.091363  -0.137388  0  1.362978  0
