# generated using pymatgen
data_CuAgH11C12N2O5
_symmetry_space_group_name_H-M   'P 1'
_cell_length_a   7.33153447
_cell_length_b   8.51956282
_cell_length_c   10.78061662
_cell_angle_alpha   98.66163438
_cell_angle_beta   101.52877449
_cell_angle_gamma   107.77768129
_symmetry_Int_Tables_number   1
_chemical_formula_structural   CuAgH11C12N2O5
_chemical_formula_sum   'Cu2 Ag2 H22 C24 N4 O10'
_cell_volume   611.90808297
_cell_formula_units_Z   2
loop_
 _symmetry_equiv_pos_site_id
 _symmetry_equiv_pos_as_xyz
  1  'x, y, z'
loop_
 _atom_site_type_symbol
 _atom_site_label
 _atom_site_symmetry_multiplicity
 _atom_site_fract_x
 _atom_site_fract_y
 _atom_site_fract_z
 _atom_site_occupancy
 _atom_site_hle17_ddec_charge
 _atom_site_hle17_ddec_spin_density
 _atom_site_hle17_ddec_sum_bond_order
 _atom_site_hle17_magmom
 _atom_site_hse06_10hf_ddec_charge
 _atom_site_hse06_10hf_ddec_spin_density
 _atom_site_hse06_10hf_ddec_sum_bond_order
 _atom_site_hse06_10hf_magmom
 _atom_site_hse06_ddec_charge
 _atom_site_hse06_ddec_spin_density
 _atom_site_hse06_ddec_sum_bond_order
 _atom_site_hse06_magmom
 _atom_site_pbe_cm5_charge
 _atom_site_pbe_ddec_charge
 _atom_site_pbe_ddec_spin_density
 _atom_site_pbe_ddec_sum_bond_order
 _atom_site_pbe_magmom
Cu  Cu0  1  0.24994002  0.53475769  0.99607610  1  0.800357  0.708027  1.985773  0.485  0.765484  0.78208  2.409176  0.585  0.846972  0.857009  2.341351  0.662  0.753995  0.715844  0.726543  2.456346  0.533
Cu  Cu1  1  0.75006354  0.46524393  0.00391972  1  0.800333  -0.708015  1.985756  -0.485  0.765475  -0.782083  2.409225  -0.585  0.846891  -0.857011  2.341395  -0.662  0.753998  0.715796  -0.726534  2.456362  -0.533
Ag  Ag2  1  0.33101912  0.84612731  0.81747747  1  0.680066  0.000827  1.159114  0.001  0.553933  -0.000229  1.575322  0.0  0.589724  -0.000145  1.521771  0.0  0.443115  0.52904  -0.000858  1.612648  0.0
Ag  Ag3  1  0.66898900  0.15387562  0.18252935  1  0.68006  -0.000828  1.159128  -0.001  0.553942  0.000222  1.575325  0.0  0.589732  0.000146  1.521768  0.0  0.443133  0.529051  0.000855  1.612655  0.0
H  H4  1  0.20216552  0.09808072  0.00083136  1  0.087182  0.001488  0.937255  0.001  0.10055  0.001164  1.008838  0.001  0.102777  0.000891  1.005429  0.001  0.108294  0.098453  0.001376  1.011747  0.001
H  H5  1  0.79783331  0.90191965  0.99916643  1  0.08716  -0.001487  0.937245  -0.001  0.10052  -0.001164  1.008858  -0.001  0.102752  -0.000891  1.005439  -0.001  0.108281  0.098422  -0.001376  1.011768  -0.001
H  H6  1  0.04738402  0.16046094  0.09297627  1  0.097814  0.000736  0.926899  0.001  0.111554  0.000335  0.995525  0.0  0.113826  0.00032  0.992327  0.0  0.112354  0.109922  0.000325  0.997494  0.0
H  H7  1  0.95261534  0.83954069  0.90702080  1  0.097807  -0.000735  0.926834  -0.001  0.111521  -0.000334  0.995516  0.0  0.113814  -0.000321  0.992294  0.0  0.112333  0.109885  -0.000326  0.99749  0.0
H  H8  1  0.90114016  0.07758430  0.81897204  1  0.082722  0.008313  0.907112  0.01  0.098895  0.005762  0.964327  0.007  0.099985  0.004467  0.960605  0.006  0.123208  0.097526  0.006576  0.96748  0.008
H  H9  1  0.09885685  0.92241863  0.18103134  1  0.082733  -0.008313  0.90705  -0.01  0.09889  -0.005762  0.964281  -0.007  0.099987  -0.004467  0.960558  -0.006  0.12319  0.097525  -0.006577  0.967436  -0.008
H  H10  1  0.69487521  0.60994307  0.24802058  1  0.088323  0.001713  0.959123  0.002  0.099062  0.001333  1.031557  0.001  0.099543  0.001147  1.030982  0.001  0.105472  0.0985  0.001425  1.032284  0.001
H  H11  1  0.30512099  0.39005100  0.75198075  1  0.088298  -0.001713  0.95919  -0.002  0.099059  -0.001333  1.03161  -0.001  0.09951  -0.001147  1.031069  -0.001  0.105466  0.098499  -0.001425  1.032333  -0.001
H  H12  1  0.52039993  0.64788678  0.32978389  1  0.095038  0.000853  0.948777  0.001  0.11437  0.000617  1.006524  0.001  0.114247  0.000525  1.00816  0.001  0.109919  0.114498  0.000667  1.00546  0.001
H  H13  1  0.47959367  0.35211107  0.67021472  1  0.095008  -0.000853  0.948818  -0.001  0.114324  -0.000617  1.006584  -0.001  0.114203  -0.000526  1.008216  -0.001  0.109915  0.114449  -0.000667  1.005517  -0.001
H  H14  1  0.70602423  0.05048258  0.62271097  1  0.090696  0.000318  0.968228  0.0  0.103345  0.00023  1.030759  0.0  0.105894  0.000169  1.029304  0.0  0.101342  0.101412  0.000279  1.032034  0.0
H  H15  1  0.29397137  0.94952035  0.37729407  1  0.090733  -0.000316  0.968193  0.0  0.103375  -0.000229  1.03074  0.0  0.105927  -0.000169  1.029276  0.0  0.101363  0.101441  -0.000279  1.032016  0.0
H  H16  1  0.57474271  0.16486607  0.43745088  1  0.091786  -5e-06  0.975946  0.0  0.101514  2.2e-05  1.042459  0.0  0.104889  1.6e-05  1.039908  0.0  0.09699  0.098897  2.8e-05  1.044709  0.0
H  H17  1  0.42526036  0.83513812  0.56255537  1  0.091839  3e-06  0.97575  0.0  0.101578  -2.2e-05  1.04226  0.0  0.104952  -1.6e-05  1.039711  0.0  0.097026  0.098956  -2.8e-05  1.044509  0.0
H  H18  1  0.68953837  0.47063529  0.45086142  1  0.109091  0.000346  0.968204  0.001  0.116858  0.000154  1.038525  0.0  0.120524  9.4e-05  1.035298  0.0  0.103038  0.114127  0.000218  1.040991  0.0
H  H19  1  0.31046644  0.52936254  0.54913322  1  0.109079  -0.000345  0.968242  -0.001  0.116843  -0.000154  1.038558  0.0  0.120518  -9.5e-05  1.035307  0.0  0.103025  0.11411  -0.000218  1.041039  0.0
H  H20  1  0.96555100  0.91591639  0.59269075  1  0.104731  -1e-06  0.939447  0.0  0.122888  1e-05  1.001788  0.0  0.123674  1e-05  1.001347  0.0  0.105298  0.122135  6e-06  1.002336  0.0
H  H21  1  0.03444260  0.08408146  0.40730878  1  0.104708  -1e-06  0.939546  0.0  0.122923  -1e-05  1.001815  0.0  0.123709  -1e-05  1.001377  0.0  0.105324  0.122169  -6e-06  1.002361  0.0
H  H22  1  0.72428876  0.75304469  0.55318794  1  0.085695  7.1e-05  0.953437  0.0  0.101626  7.3e-05  1.023716  0.0  0.101659  5.9e-05  1.02391  0.0  0.095873  0.10149  8.4e-05  1.023725  0.0
H  H23  1  0.27570763  0.24695316  0.44681106  1  0.085713  -6.8e-05  0.95344  0.0  0.101638  -7.4e-05  1.023736  0.0  0.101672  -5.8e-05  1.023928  0.0  0.095884  0.101502  -8.4e-05  1.023742  0.0
H  H24  1  0.90552164  0.73251745  0.46613195  1  0.077959  0.000141  0.977097  0.0  0.092726  0.000171  1.048939  0.0  0.091809  0.000126  1.05171  0.0  0.092842  0.093533  0.000205  1.046725  0.0
H  H25  1  0.09447663  0.26748167  0.53386932  1  0.077934  -0.000142  0.977098  0.0  0.092695  -0.000171  1.048964  0.0  0.09178  -0.000126  1.051731  0.0  0.092834  0.093503  -0.000205  1.046748  0.0
C  C26  1  0.34705240  0.32608053  0.15168866  1  0.538535  -0.005652  3.869745  -0.006  0.500173  0.000336  4.160744  0.0  0.531176  -0.000723  4.164707  -0.002  0.210708  0.47923  0.001128  4.157072  0.0
C  C27  1  0.65295043  0.67391605  0.84831111  1  0.538441  0.005653  3.869885  0.006  0.500079  -0.000328  4.160865  0.0  0.531081  0.000722  4.164825  0.002  0.210648  0.479137  -0.001128  4.157185  0.0
C  C28  1  0.90682938  0.29489582  0.73804326  1  -0.113082  0.005421  3.836153  0.007  -0.097645  0.002925  4.086226  0.004  -0.111728  0.002483  4.113079  0.004  -0.04038  -0.088431  0.003169  4.068085  0.005
C  C29  1  0.09316801  0.70510456  0.26195804  1  -0.113207  -0.005398  3.836173  -0.007  -0.097738  -0.002927  4.0862  -0.004  -0.111826  -0.002485  4.113069  -0.004  -0.040431  -0.088543  -0.00317  4.068099  -0.005
C  C30  1  0.16633213  0.20646005  0.04484884  1  -0.108457  0.001952  3.676974  0.0  -0.162725  0.002693  3.924793  0.001  -0.161671  0.001893  3.936387  0.0  -0.065809  -0.162579  0.003235  3.916661  0.001
C  C31  1  0.83366481  0.79353905  0.95514760  1  -0.108338  -0.001954  3.67687  0.0  -0.162595  -0.00269  3.924704  -0.001  -0.161553  -0.001893  3.936282  0.0  -0.065741  -0.162454  -0.003236  3.916573  -0.001
C  C32  1  0.97216947  0.21596605  0.83882134  1  0.178074  -0.017042  3.671209  -0.018  0.133684  -0.00464  3.932941  -0.006  0.156511  -0.006292  3.941135  -0.008  0.080362  0.118496  -0.00341  3.92837  -0.005
C  C33  1  0.02783039  0.78403686  0.16117781  1  0.178069  0.017022  3.671121  0.018  0.133695  0.004645  3.932823  0.006  0.15651  0.006291  3.941031  0.008  0.080423  0.118507  0.00341  3.928264  0.005
C  C34  1  0.89457959  0.53444864  0.64053686  1  0.151438  0.0081  3.7734  0.009  0.148418  0.004472  4.018119  0.005  0.152522  0.003671  4.035873  0.005  0.068523  0.145244  0.005013  4.006105  0.006
C  C35  1  0.10542028  0.46555426  0.35946137  1  0.151366  -0.008063  3.773401  -0.009  0.148333  -0.00447  4.018191  -0.005  0.152438  -0.003672  4.035944  -0.005  0.068471  0.145163  -0.005013  4.006174  -0.006
C  C36  1  0.98003755  0.47324483  0.74612950  1  0.23691  -0.004386  3.818376  -0.007  0.216487  -0.000259  4.080777  -0.002  0.233129  -0.000919  4.098313  -0.003  0.08093  0.205239  0.000297  4.068816  -0.002
C  C37  1  0.01996340  0.52675048  0.25386801  1  0.236943  0.004361  3.818586  0.007  0.216515  0.000263  4.081004  0.002  0.233152  0.00092  4.098551  0.003  0.080994  0.205268  -0.000297  4.069048  0.002
C  C38  1  0.54934786  0.62647778  0.23330498  1  -0.113813  0.002332  3.73553  -0.001  -0.16383  0.003333  3.983565  0.0  -0.161485  0.002471  3.995337  0.0  -0.074986  -0.165329  0.003768  3.976175  0.0
C  C39  1  0.45064920  0.37352513  0.76669470  1  -0.1137  -0.002331  3.735549  0.001  -0.163695  -0.003333  3.98346  0.0  -0.161381  -0.002472  3.995349  0.0  -0.074914  -0.165214  -0.003768  3.976123  0.0
C  C40  1  0.75929946  0.18568857  0.62598540  1  -0.101042  -0.004345  3.775081  -0.004  -0.125443  -0.001393  4.025953  -0.001  -0.122995  -0.001581  4.04671  -0.002  -0.099546  -0.127137  -0.00119  4.011993  -0.001
C  C41  1  0.24070067  0.81431183  0.37402000  1  -0.101062  0.004298  3.775182  0.004  -0.125469  0.001393  4.026063  0.001  -0.12302  0.00158  4.046824  0.002  -0.099604  -0.127155  0.001191  4.012103  0.001
C  C42  1  0.68517162  0.24851969  0.52430853  1  -0.083038  0.001306  3.816635  0.002  -0.099902  -2.1e-05  4.078349  0.0  -0.103071  0.000214  4.097094  0.0  -0.107998  -0.097933  -0.00024  4.066091  0.0
C  C43  1  0.31482338  0.75147816  0.47569028  1  -0.083114  -0.001264  3.816638  -0.001  -0.099997  2.1e-05  4.078373  0.0  -0.103171  -0.000214  4.097124  0.0  -0.108026  -0.098019  0.000241  4.066105  0.0
C  C44  1  0.75222595  0.42409598  0.53179798  1  -0.149794  -0.004703  3.740045  -0.004  -0.177095  -0.001603  3.998467  -0.001  -0.175689  -0.001795  4.01418  -0.002  -0.102162  -0.178069  -0.001442  3.988209  -0.001
C  C45  1  0.24778072  0.57590312  0.46820077  1  -0.149727  0.004664  3.739997  0.004  -0.177004  0.001603  3.998423  0.001  -0.175594  0.001795  4.014135  0.002  -0.102128  -0.177986  0.001443  3.988162  0.001
C  C46  1  0.88306454  0.77987403  0.56038510  1  -0.075265  5.1e-05  3.601632  0.0  -0.171947  0.000179  3.857542  0.0  -0.165244  0.000124  3.862947  0.0  -0.143545  -0.176441  0.000243  3.853762  0.0
C  C47  1  0.11693183  0.22012383  0.43961576  1  -0.075252  -5.2e-05  3.601794  0.0  -0.171954  -0.000176  3.857703  0.0  -0.165252  -0.000124  3.863107  0.0  -0.14355  -0.176438  -0.000242  3.853916  0.0
C  C48  1  0.56200427  0.78542678  0.18154169  1  0.669065  -6.6e-05  3.836055  -0.001  0.626821  0.002395  4.123236  0.002  0.660717  0.001672  4.121659  0.001  0.204677  0.603919  0.002896  4.122877  0.002
C  C49  1  0.43799683  0.21457232  0.81845627  1  0.668971  6.5e-05  3.836095  0.001  0.626732  -0.002389  4.123273  -0.002  0.66063  -0.001674  4.121687  -0.001  0.204652  0.603824  -0.002897  4.122907  -0.002
N  N50  1  0.10420820  0.29456681  0.94778432  1  -0.319797  0.110161  3.341404  0.134  -0.267119  0.076797  3.656986  0.099  -0.300776  0.067275  3.674939  0.091  -0.387156  -0.247923  0.080566  3.647782  0.101
N  N51  1  0.89579256  0.70543482  0.05221296  1  -0.319809  -0.110141  3.341298  -0.134  -0.267128  -0.076802  3.656921  -0.099  -0.300771  -0.067275  3.674855  -0.091  -0.387196  -0.247914  -0.080565  3.647699  -0.101
N  N52  1  0.39269464  0.48568451  0.14305950  1  -0.502911  0.115427  3.372976  0.139  -0.467519  0.07689  3.716311  0.097  -0.511145  0.06551  3.735724  0.086  -0.446592  -0.440959  0.081838  3.705627  0.1
N  N53  1  0.60730314  0.51431334  0.85693970  1  -0.502874  -0.115429  3.37313  -0.139  -0.467457  -0.076892  3.716468  -0.097  -0.511058  -0.065507  3.73584  -0.086  -0.446586  -0.440888  -0.081839  3.705764  -0.1
O  O54  1  0.96563059  0.70639189  0.65860511  1  -0.253476  0.00059  2.453925  0.0  -0.164323  0.000482  2.695847  0.0  -0.184427  0.000418  2.700396  0.0  -0.18735  -0.150287  0.000498  2.692033  0.0
O  O55  1  0.03437010  0.29360976  0.34139680  1  -0.253393  -0.000586  2.453906  0.0  -0.164286  -0.000485  2.695898  0.0  -0.18439  -0.000416  2.700443  0.0  -0.187354  -0.150251  -0.000498  2.692082  0.0
O  O56  1  0.43532925  0.77300436  0.07499658  1  -0.642372  0.062067  2.070666  0.08  -0.594159  0.048261  2.36559  0.067  -0.632087  0.04022  2.350581  0.059  -0.334783  -0.568864  0.052812  2.375998  0.071
O  O57  1  0.56467452  0.22699093  0.92499854  1  -0.642329  -0.062069  2.070621  -0.08  -0.594126  -0.048265  2.365567  -0.067  -0.632033  -0.04022  2.350535  -0.059  -0.334763  -0.568819  -0.052815  2.375962  -0.071
O  O58  1  0.11922171  0.58610931  0.84458092  1  -0.587126  0.062997  2.286869  0.081  -0.532199  0.044068  2.614757  0.061  -0.573289  0.036628  2.605872  0.053  -0.354648  -0.504729  0.048308  2.621319  0.065
O  O59  1  0.88077760  0.41389233  0.15541986  1  -0.587059  -0.062995  2.286944  -0.081  -0.532126  -0.044067  2.614868  -0.061  -0.573197  -0.036623  2.605967  -0.053  -0.354613  -0.504642  -0.048303  2.621412  -0.065
O  O60  1  0.43382188  0.26887226  0.23885494  1  -0.61246  0.018128  1.990773  0.022  -0.552617  0.008002  2.25363  0.01  -0.58122  0.003898  2.243473  0.005  -0.33543  -0.530976  0.012618  2.259097  0.015
O  O61  1  0.56617870  0.73112558  0.76114373  1  -0.612508  -0.018132  1.990748  -0.022  -0.552672  -0.008004  2.253592  -0.01  -0.581272  -0.003897  2.243435  -0.005  -0.335456  -0.531024  -0.01262  2.259054  -0.015
O  O62  1  0.69540060  0.92233931  0.24584195  1  -0.602849  0.011009  2.044978  0.013  -0.531881  0.007318  2.303669  0.009  -0.564751  0.004335  2.295222  0.006  -0.316577  -0.50786  0.010315  2.307827  0.013
O  O63  1  0.30459629  0.07765981  0.75415913  1  -0.602821  -0.011012  2.045037  -0.013  -0.531874  -0.007321  2.30374  -0.009  -0.564739  -0.004334  2.295292  -0.006  -0.316573  -0.507847  -0.010317  2.307894  -0.013
