# generated using pymatgen
data_ZnSiH20C24N4(O2F3)2
_symmetry_space_group_name_H-M   'P 1'
_cell_length_a   7.74480075
_cell_length_b   13.85691919
_cell_length_c   13.85687971
_cell_angle_alpha   89.77324592
_cell_angle_beta   86.24395286
_cell_angle_gamma   86.24463982
_symmetry_Int_Tables_number   1
_chemical_formula_structural   ZnSiH20C24N4(O2F3)2
_chemical_formula_sum   'Zn1 Si1 H20 C24 N4 O4 F6'
_cell_volume   1480.72693099
_cell_formula_units_Z   1
loop_
 _symmetry_equiv_pos_site_id
 _symmetry_equiv_pos_as_xyz
  1  'x, y, z'
loop_
 _atom_site_type_symbol
 _atom_site_label
 _atom_site_symmetry_multiplicity
 _atom_site_fract_x
 _atom_site_fract_y
 _atom_site_fract_z
 _atom_site_occupancy
 _atom_site_pbe_bader_charge
 _atom_site_pbe_bader_spin_density
 _atom_site_pbe_cm5_charge
 _atom_site_pbe_ddec_charge
 _atom_site_pbe_ddec_spin_density
 _atom_site_pbe_ddec_sum_bond_order
 _atom_site_pbe_magmom
Zn  Zn0  1  0.49998279  0.49999862  0.49999991  1  1.392262  0  0.706342  0.737548  0  2.347794  0
Si  Si1  1  0.99997897  0.50000109  0.49999693  1  3.159869  0  0.259655  1.722767  0  3.944586  0
H  H2  1  0.25313839  0.49997968  0.33465614  1  0.178436  0  0.116516  0.100568  0  1.042215  0
H  H3  1  0.26241811  0.50001742  0.15752127  1  0.130905  0  0.108818  0.125765  0  1.03768  0
H  H4  1  0.82417009  0.49999192  0.16189402  1  0.006069  0  0.109789  0.100319  0  1.019751  0
H  H5  1  0.78928769  0.49995708  0.33516852  1  0.176755  0  0.117215  0.102805  0  1.041201  0
H  H6  1  0.17580680  0.50000822  0.83810683  1  0.005817  0  0.109747  0.100256  0  1.019763  0
H  H7  1  0.73756759  0.49998489  0.84247492  1  0.131114  0  0.10886  0.125796  0  1.037574  0
H  H8  1  0.74684523  0.50001829  0.66534159  1  0.178516  0  0.116523  0.100639  0  1.042136  0
H  H9  1  0.21068766  0.50004523  0.66482732  1  0.176603  0  0.117283  0.10289  0  1.04145  0
H  H10  1  0.25313771  0.33465315  0.49997717  1  0.178817  0  0.116536  0.100567  0  1.042238  0
H  H11  1  0.26241885  0.15751719  0.50001856  1  0.130813  0  0.108792  0.125755  0  1.037666  0
H  H12  1  0.82417057  0.16189678  0.49999192  1  0.006088  0  0.109747  0.100235  0  1.019767  0
H  H13  1  0.78928957  0.33517142  0.49995392  1  0.176802  0  0.117195  0.102765  0  1.041246  0
H  H14  1  0.17580606  0.83810553  0.50000965  1  0.005846  0  0.109761  0.100301  0  1.019692  0
H  H15  1  0.73756519  0.84247716  0.49998494  1  0.131061  0  0.108851  0.125766  0  1.037563  0
H  H16  1  0.74684763  0.66534121  0.50001907  1  0.178543  0  0.116514  0.100611  0  1.042134  0
H  H17  1  0.21069008  0.66482727  0.50004611  1  0.176612  0  0.117279  0.102875  0  1.04145  0
H  H18  1  0.80933817  0.49999742  0.04515228  1  0.58861  0  0.318485  0.343578  0  0.942312  0
H  H19  1  0.19065132  0.50000561  0.95484666  1  0.588383  0  0.318534  0.343601  0  0.942259  0
H  H20  1  0.80933496  0.04515386  0.49999922  1  0.588484  0  0.318502  0.343652  0  0.942196  0
H  H21  1  0.19065503  0.95484484  0.50000476  1  0.588647  0  0.318545  0.343623  0  0.942189  0
C  C22  1  0.37720864  0.50001530  0.29292249  1  0.474293  0  0.050488  0.100853  0  3.916975  0
C  C23  1  0.38314598  0.50008099  0.19260279  1  -0.063785  0  -0.084886  -0.158026  0  3.912466  0
C  C24  1  0.54362107  0.50004687  0.13797788  1  -0.000862  0  -0.000402  0.063686  0  4.021295  0
C  C25  1  0.69079577  0.50003824  0.19324448  1  -0.023648  0  -0.090734  -0.191692  0  3.964388  0
C  C26  1  0.67472456  0.49999346  0.29358958  1  0.47003  0  0.051663  0.10926  0  3.92294  0
C  C27  1  0.56493873  0.49999543  0.03188896  1  0.490028  0  0.07037  0.134531  0  3.988806  0
C  C28  1  0.43505111  0.50000471  0.96810565  1  0.57628  0  0.070263  0.134142  0  3.988933  0
C  C29  1  0.30918061  0.49996624  0.80675276  1  -0.023663  0  -0.090775  -0.19178  0  3.964362  0
C  C30  1  0.45636109  0.49995255  0.86201701  1  -0.000914  0  -0.000363  0.063741  0  4.021276  0
C  C31  1  0.61683480  0.49991914  0.80739287  1  -0.063494  0  -0.084962  -0.158004  0  3.912388  0
C  C32  1  0.62277231  0.49998339  0.70707389  1  0.474477  0  0.050561  0.100898  0  3.917006  0
C  C33  1  0.32524586  0.50000667  0.70640789  1  0.46987  0  0.051664  0.109382  0  3.923244  0
C  C34  1  0.37720688  0.29292075  0.50001475  1  0.47399  0  0.050498  0.100883  0  3.916866  0
C  C35  1  0.38314709  0.19260161  0.50008262  1  -0.06371  0  -0.084879  -0.158025  0  3.912391  0
C  C36  1  0.54362097  0.13797830  0.50005023  1  -0.000875  0  -0.000384  0.063741  0  4.021136  0
C  C37  1  0.69079647  0.19324652  0.50003880  1  -0.0236  0  -0.090712  -0.191649  0  3.964364  0
C  C38  1  0.67472705  0.29359091  0.49999253  1  0.469899  0  0.051675  0.109332  0  3.922987  0
C  C39  1  0.56493802  0.03188890  0.49999987  1  0.490015  0  0.070295  0.134323  0  3.988911  0
C  C40  1  0.43505248  0.96810546  0.50000700  1  0.576286  0  0.070273  0.134212  0  3.989032  0
C  C41  1  0.30918196  0.80675145  0.49996922  1  -0.023625  0  -0.090755  -0.191774  0  3.964396  0
C  C42  1  0.45636169  0.86201677  0.49995404  1  -0.000892  0  -0.000405  0.063585  0  4.02139  0
C  C43  1  0.61683557  0.80739346  0.49991877  1  -0.063486  0  -0.084897  -0.157842  0  3.912307  0
C  C44  1  0.62277717  0.70707360  0.49998442  1  0.474365  0  0.050517  0.100838  0  3.916918  0
C  C45  1  0.32524872  0.70640778  0.50000765  1  0.469748  0  0.051675  0.109416  0  3.923291  0
N  N46  1  0.51987144  0.49997227  0.34368877  1  -1.260995  0  -0.318602  -0.228219  0  3.507281  0
N  N47  1  0.48010554  0.50002714  0.65630919  1  -1.261166  0  -0.318683  -0.2285  0  3.507679  0
N  N48  1  0.51987019  0.34368801  0.49997121  1  -1.261016  0  -0.3186  -0.228261  0  3.507227  0
N  N49  1  0.48010567  0.65630995  0.50002752  1  -1.261025  0  -0.318685  -0.2285  0  3.50759  0
O  O50  1  0.73275630  0.49995820  0.99217746  1  -1.11099  0  -0.351691  -0.429333  0  2.35098  0
O  O51  1  0.26723474  0.50004266  0.00782143  1  -1.110843  0  -0.351743  -0.429264  0  2.351057  0
O  O52  1  0.73275543  0.99217772  0.49996314  1  -1.110856  0  -0.351663  -0.429305  0  2.350984  0
O  O53  1  0.26723724  0.00782025  0.50004292  1  -1.111121  0  -0.35176  -0.429278  0  2.351015  0
F  F54  1  0.22679394  0.49964461  0.49964999  1  -0.82004  0  -0.19227  -0.495243  0  1.352744  0
F  F55  1  0.77317295  0.50035263  0.50034907  1  -0.820206  0  -0.192294  -0.495349  0  1.352952  0
F  F56  1  0.99999268  0.58700292  0.41298155  1  -0.825927  0  -0.242257  -0.541293  0  1.086597  0
F  F57  1  0.99997724  0.41299638  0.58700972  1  -0.825942  0  -0.242185  -0.541258  0  1.086576  0
F  F58  1  0.01952508  0.41296990  0.41297723  1  -0.82589  0  -0.242403  -0.541421  0  1.087991  0
F  F59  1  0.98045181  0.58703023  0.58701929  1  -0.825767  0  -0.242441  -0.54149  0  1.087914  0
