# generated using pymatgen
data_ZnH22C28(N4O3)2
_symmetry_space_group_name_H-M   'P 1'
_cell_length_a   7.98294858
_cell_length_b   13.82066966
_cell_length_c   14.29500000
_cell_angle_alpha   113.22250874
_cell_angle_beta   90.00000000
_cell_angle_gamma   106.78648229
_symmetry_Int_Tables_number   1
_chemical_formula_structural   ZnH22C28(N4O3)2
_chemical_formula_sum   'Zn2 H44 C56 N16 O12'
_cell_volume   1375.94822418
_cell_formula_units_Z   2
loop_
 _symmetry_equiv_pos_site_id
 _symmetry_equiv_pos_as_xyz
  1  'x, y, z'
loop_
 _atom_site_type_symbol
 _atom_site_label
 _atom_site_symmetry_multiplicity
 _atom_site_fract_x
 _atom_site_fract_y
 _atom_site_fract_z
 _atom_site_occupancy
 _atom_site_hle17_bader_spin_density
 _atom_site_hle17_ddec_charge
 _atom_site_hle17_ddec_spin_density
 _atom_site_hle17_ddec_sum_bond_order
 _atom_site_hle17_magmom
 _atom_site_hse06_10hf_bader_spin_density
 _atom_site_hse06_10hf_ddec_charge
 _atom_site_hse06_10hf_ddec_spin_density
 _atom_site_hse06_10hf_ddec_sum_bond_order
 _atom_site_hse06_10hf_magmom
 _atom_site_hse06_bader_spin_density
 _atom_site_hse06_ddec_charge
 _atom_site_hse06_ddec_spin_density
 _atom_site_hse06_ddec_sum_bond_order
 _atom_site_hse06_magmom
 _atom_site_pbe_bader_charge
 _atom_site_pbe_bader_spin_density
 _atom_site_pbe_cm5_charge
 _atom_site_pbe_ddec_charge
 _atom_site_pbe_ddec_spin_density
 _atom_site_pbe_ddec_sum_bond_order
 _atom_site_pbe_magmom
Zn  Zn0  1  0.44368269  0.99999868  0.75011779  1  0  1.049897  0  1.80589  0  0  0.876803  0  2.246744  0  0  0.924304  0  2.193509  0  1.320684  0  0.664763  0.843552  0  2.283085  0
Zn  Zn1  1  0.55631950  0.00000249  0.24988342  1  0  1.049912  0  1.805879  0  0  0.876826  0  2.246733  0  0  0.924329  0  2.193495  0  1.320686  0  0.664752  0.843572  0  2.283076  0
H  H2  1  0.82341071  0.96060470  0.44511403  1  0  0.082545  0  0.945705  0  0  0.091594  0  1.006128  0  0  0.094271  0  1.004794  0  0.088527  0  0.113765  0.089603  0  1.007315  0
H  H3  1  0.86276629  0.03982193  0.05544602  1  0  0.082917  0  0.94607  0  0  0.092623  0  1.005604  0  0  0.09521  0  1.004392  0  0.091659  0  0.114752  0.090682  0  1.006723  0
H  H4  1  0.17658814  0.03939481  0.55488725  1  0  0.082519  0  0.945709  0  0  0.091575  0  1.006131  0  0  0.094253  0  1.004796  0  0.088489  0  0.113744  0.089583  0  1.007321  0
H  H5  1  0.13724134  0.96017509  0.94455082  1  0  0.082874  0  0.946035  0  0  0.092564  0  1.005595  0  0  0.095151  0  1.004384  0  0.091631  0  0.114736  0.090624  0  1.006716  0
H  H6  1  0.63434800  0.04385264  0.57489306  1  0  0.100735  0  0.971222  0  0  0.105247  0  1.039468  0  0  0.109022  0  1.036213  0  0.142793  0  0.120038  0.102501  0  1.041865  0
H  H7  1  0.59077130  0.95644876  0.92552901  1  0  0.100457  0  0.970175  0  0  0.105139  0  1.038025  0  0  0.108867  0  1.034897  0  0.157314  0  0.119949  0.102403  0  1.040405  0
H  H8  1  0.36564960  0.95614687  0.42510542  1  0  0.100749  0  0.971241  0  0  0.105273  0  1.039474  0  0  0.109047  0  1.03622  0  0.1428  0  0.120046  0.102528  0  1.041867  0
H  H9  1  0.40923798  0.04355158  0.07446700  1  0  0.100474  0  0.970172  0  0  0.105168  0  1.038011  0  0  0.1089  0  1.034876  0  0.157207  0  0.119938  0.102432  0  1.040391  0
H  H10  1  0.57530354  0.79521119  0.67727374  1  0  0.103507  0  0.948243  0  0  0.107393  0  1.016029  0  0  0.111376  0  1.012518  0  0.127903  0  0.12182  0.104509  0  1.018596  0
H  H11  1  0.78059948  0.20461913  0.82265116  1  0  0.103807  0  0.948008  0  0  0.107596  0  1.015962  0  0  0.111488  0  1.012582  0  0.135013  0  0.121813  0.104777  0  1.018436  0
H  H12  1  0.42469447  0.20478915  0.32272856  1  0  0.103523  0  0.948261  0  0  0.107431  0  1.016024  0  0  0.111415  0  1.012508  0  0.127814  0  0.121836  0.104545  0  1.018592  0
H  H13  1  0.21941232  0.79538121  0.17734904  1  0  0.103805  0  0.947962  0  0  0.107602  0  1.015916  0  0  0.111495  0  1.012538  0  0.134964  0  0.121831  0.104784  0  1.018392  0
H  H14  1  0.88556479  0.62621160  0.39429588  1  0  0.133369  0  0.951953  0  0  0.143239  0  1.009824  0  0  0.146369  0  1.009138  0  0.090577  0  0.112304  0.141  0  1.010463  0
H  H15  1  0.25904785  0.37398696  0.10605691  1  0  0.133768  0  0.950804  0  0  0.143194  0  1.009294  0  0  0.146363  0  1.008569  0  0.127057  0  0.112125  0.140951  0  1.009945  0
H  H16  1  0.11442613  0.37378708  0.60570089  1  0  0.133356  0  0.952036  0  0  0.143217  0  1.00992  0  0  0.146377  0  1.009195  0  0.090712  0  0.112309  0.140982  0  1.010557  0
H  H17  1  0.74095807  0.62601919  0.89394481  1  0  0.133679  0  0.950916  0  0  0.143132  0  1.009379  0  0  0.146302  0  1.008652  0  0.126814  0  0.112083  0.140888  0  1.010032  0
H  H18  1  0.83531166  0.43953246  0.43258592  1  0  0.113121  0  0.997308  0  0  0.117538  0  1.069506  0  0  0.12089  0  1.066934  0  0.168365  0  0.119259  0.115084  0  1.071275  0
H  H19  1  0.39567880  0.56056078  0.06756861  1  0  0.115251  0  0.998242  0  0  0.120157  0  1.069552  0  0  0.123607  0  1.066927  0  0.171141  0  0.119972  0.11767  0  1.071305  0
H  H20  1  0.16468177  0.56046623  0.56740945  1  0  0.113063  0  0.997351  0  0  0.117479  0  1.069553  0  0  0.120834  0  1.066975  0  0.168363  0  0.11923  0.115028  0  1.071328  0
H  H21  1  0.60431504  0.43944123  0.93242942  1  0  0.115199  0  0.998203  0  0  0.120128  0  1.069486  0  0  0.123574  0  1.066868  0  0.171237  0  0.119976  0.117642  0  1.071236  0
H  H22  1  0.80453188  0.34441929  0.51755114  1  0  0.112987  0  0.980389  0  0  0.12191  0  1.043683  0  0  0.124985  0  1.042994  0  0.119939  0  0.10617  0.119682  0  1.044346  0
H  H23  1  0.46047950  0.65528995  0.98223875  1  0  0.113182  0  0.981985  0  0  0.122447  0  1.044697  0  0  0.125512  0  1.043989  0  0.101191  0  0.106475  0.120263  0  1.045281  0
H  H24  1  0.19546906  0.65558189  0.48244937  1  0  0.112993  0  0.98038  0  0  0.12192  0  1.043669  0  0  0.124996  0  1.042979  0  0.119948  0  0.106175  0.119691  0  1.044333  0
H  H25  1  0.53951269  0.34470376  0.01776172  1  0  0.113263  0  0.981932  0  0  0.122465  0  1.044714  0  0  0.12553  0  1.044008  0  0.10114  0  0.106477  0.120273  0  1.04532  0
H  H26  1  0.70879828  0.21601957  0.60121059  1  0  0.097226  0  0.953035  0  0  0.108667  0  1.01267  0  0  0.111644  0  1.010265  0  0.101443  0  0.104296  0.106475  0  1.014498  0
H  H27  1  0.49303923  0.78370127  0.89859982  1  0  0.097614  0  0.952745  0  0  0.109449  0  1.011854  0  0  0.112396  0  1.009504  0  0.099186  0  0.104825  0.107292  0  1.013627  0
H  H28  1  0.29120724  0.78398077  0.39879031  1  0  0.097249  0  0.953093  0  0  0.10868  0  1.012732  0  0  0.111658  0  1.010328  0  0.101551  0  0.104309  0.106488  0  1.01456  0
H  H29  1  0.50695963  0.21629326  0.10140097  1  0  0.097605  0  0.952688  0  0  0.109428  0  1.011818  0  0  0.112374  0  1.009464  0  0.099108  0  0.104813  0.107271  0  1.01359  0
H  H30  1  0.41485312  0.41815476  0.79075042  1  0  0.096255  0  0.964529  0  0  0.10305  0  1.029956  0  0  0.10587  0  1.02877  0  0.077642  0  0.102534  0.10101  0  1.030825  0
H  H31  1  0.99697704  0.58155116  0.70911865  1  0  0.096941  0  0.964315  0  0  0.103587  0  1.029586  0  0  0.106529  0  1.028238  0  0.097856  0  0.103306  0.10147  0  1.030582  0
H  H32  1  0.58514865  0.58184558  0.20924908  1  0  0.096283  0  0.96449  0  0  0.103079  0  1.029915  0  0  0.105899  0  1.028729  0  0.077624  0  0.102544  0.101039  0  1.030783  0
H  H33  1  0.00302431  0.41845084  0.29088079  1  0  0.096964  0  0.964295  0  0  0.103573  0  1.029597  0  0  0.106517  0  1.02825  0  0.097886  0  0.103318  0.101453  0  1.030598  0
H  H34  1  0.51276680  0.55016303  0.70774120  1  0  0.107804  0  0.970445  0  0  0.1123  0  1.040124  0  0  0.115508  0  1.039097  0  0.113788  0  0.10503  0.110008  0  1.040994  0
H  H35  1  0.96304885  0.44943838  0.79201458  1  0  0.108764  0  0.968846  0  0  0.11316  0  1.038742  0  0  0.116397  0  1.037722  0  0.128926  0  0.105158  0.110823  0  1.039617  0
H  H36  1  0.48723372  0.44983731  0.29225900  1  0  0.107819  0  0.970422  0  0  0.112322  0  1.040095  0  0  0.115531  0  1.039067  0  0.113795  0  0.105042  0.11003  0  1.040965  0
H  H37  1  0.03694249  0.55056113  0.20798181  1  0  0.108772  0  0.968913  0  0  0.113193  0  1.038777  0  0  0.116428  0  1.037758  0  0.128971  0  0.105175  0.110858  0  1.039649  0
H  H38  1  0.10927184  0.93096820  0.64076950  1  0  0.401111  0  0.850554  0  0  0.384527  0  0.906927  0  0  0.392631  0  0.897757  0  0.592321  0  0.307173  0.378736  0  0.913542  0
H  H39  1  0.17848852  0.06914826  0.85925677  1  0  0.400906  0  0.850841  0  0  0.383897  0  0.907918  0  0  0.392047  0  0.898689  0  0.581206  0  0.306445  0.378068  0  0.914579  0
H  H40  1  0.89072326  0.06902883  0.35923013  1  0  0.401113  0  0.850446  0  0  0.38451  0  0.90686  0  0  0.392615  0  0.897684  0  0.592319  0  0.307152  0.378716  0  0.913481  0
H  H41  1  0.82151576  0.93085208  0.14074553  1  0  0.400932  0  0.850782  0  0  0.383936  0  0.907848  0  0  0.392088  0  0.898613  0  0.581166  0  0.306431  0.378106  0  0.914514  0
H  H42  1  0.18503297  0.83414653  0.63652797  1  0  0.413569  0  0.904235  0  0  0.379385  0  0.972855  0  0  0.392142  0  0.954774  0  0.643951  0  0.279035  0.370451  0  0.985479  0
H  H43  1  0.35123580  0.16597490  0.86366319  1  0  0.412148  0  0.906032  0  0  0.378231  0  0.9743  0  0  0.390989  0  0.956223  0  0.642302  0  0.278147  0.369306  0  0.986906  0
H  H44  1  0.81497172  0.16585464  0.36347324  1  0  0.413549  0  0.904255  0  0  0.379372  0  0.972877  0  0  0.392134  0  0.954787  0  0.64393  0  0.279005  0.370437  0  0.985501  0
H  H45  1  0.64876638  0.83402628  0.13633662  1  0  0.412162  0  0.906021  0  0  0.378241  0  0.974295  0  0  0.390998  0  0.956219  0  0.642301  0  0.278139  0.369316  0  0.986901  0
C  C46  1  0.76790499  0.92212302  0.49631256  1  0  0.080047  0  3.738137  0  0  0.056115  0  4.005167  0  0  0.056999  0  4.022369  0  0.568069  0  0.049622  0.055341  0  3.993695  0
C  C47  1  0.84591420  0.07813359  0.00407705  1  0  0.079571  0  3.740323  0  0  0.055118  0  4.007323  0  0  0.056055  0  4.024543  0  0.536978  0  0.048297  0.054318  0  3.995816  0
C  C48  1  0.23209219  0.07787566  0.50368701  1  0  0.080139  0  3.738007  0  0  0.056203  0  4.005033  0  0  0.057089  0  4.022235  0  0.568069  0  0.049692  0.05543  0  3.993561  0
C  C49  1  0.15409426  0.92186509  0.99592182  1  0  0.079725  0  3.740197  0  0  0.055281  0  4.00718  0  0  0.056216  0  4.024404  0  0.536653  0  0.048323  0.054478  0  3.995676  0
C  C50  1  0.66475402  0.96970200  0.56792173  1  0  0.064716  0  3.655886  0  0  0.03228  0  3.911687  0  0  0.035564  0  3.928479  0  0.428717  0  0.044438  0.03006  0  3.900453  0
C  C51  1  0.69528126  0.03057618  0.93245022  1  0  0.063601  0  3.655478  0  0  0.031333  0  3.911347  0  0  0.034602  0  3.928171  0  0.457649  0  0.04492  0.029105  0  3.900122  0
C  C52  1  0.33524525  0.03029834  0.43207847  1  0  0.064589  0  3.655784  0  0  0.032141  0  3.911642  0  0  0.035424  0  3.928435  0  0.428718  0  0.044364  0.029921  0  3.90041  0
C  C53  1  0.30472594  0.96942251  0.06754795  1  0  0.063587  0  3.65556  0  0  0.031305  0  3.91137  0  0  0.034575  0  3.928193  0  0.457901  0  0.044955  0.029072  0  3.900142  0
C  C54  1  0.62976116  0.83177455  0.62458351  1  0  0.052557  0  3.631844  0  0  0.015445  0  3.880253  0  0  0.018689  0  3.895776  0  0.483713  0  0.056781  0.01324  0  3.870012  0
C  C55  1  0.79837291  0.16817271  0.87545592  1  0  0.052008  0  3.631571  0  0  0.014752  0  3.880419  0  0  0.018042  0  3.896007  0  0.522773  0  0.056772  0.012531  0  3.870131  0
C  C56  1  0.37023686  0.16822579  0.37541739  1  0  0.052543  0  3.631878  0  0  0.015399  0  3.880323  0  0  0.018645  0  3.89584  0  0.483844  0  0.05675  0.013195  0  3.870082  0
C  C57  1  0.20163179  0.83182597  0.12454295  1  0  0.052117  0  3.631656  0  0  0.014836  0  3.880494  0  0  0.018127  0  3.896083  0  0.52279  0  0.056761  0.01261  0  3.870203  0
C  C58  1  0.72893153  0.78215700  0.54944168  1  0  0.145514  0  3.789884  0  0  0.152258  0  4.033411  0  0  0.155843  0  4.051273  0  0.565415  0  0.126377  0.149423  0  4.021564  0
C  C59  1  0.94695063  0.21790306  0.95074358  1  0  0.146168  0  3.789858  0  0  0.152645  0  4.033421  0  0  0.156139  0  4.05135  0  0.508052  0  0.127058  0.149832  0  4.021599  0
C  C60  1  0.27106733  0.21784252  0.45055960  1  0  0.145522  0  3.790004  0  0  0.1523  0  4.033472  0  0  0.155884  0  4.051334  0  0.565429  0  0.126385  0.149469  0  4.021623  0
C  C61  1  0.05305198  0.78209645  0.04925840  1  0  0.146122  0  3.78979  0  0  0.152604  0  4.033388  0  0  0.156102  0  4.05131  0  0.507985  0  0.127055  0.14979  0  4.021567  0
C  C62  1  0.75042098  0.67646197  0.53545019  1  0  0.12269  0  3.826724  0  0  0.113543  0  4.095309  0  0  0.117871  0  4.115436  0  0.484515  0  0.095091  0.111033  0  4.081352  0
C  C63  1  0.07418866  0.32352925  0.96463957  1  0  0.121874  0  3.829543  0  0  0.113135  0  4.097683  0  0  0.1176  0  4.117667  0  0.466561  0  0.095094  0.110546  0  4.083829  0
C  C64  1  0.24957537  0.32353755  0.46454970  1  0  0.122653  0  3.82675  0  0  0.113533  0  4.095291  0  0  0.117859  0  4.115426  0  0.484378  0  0.095089  0.111022  0  4.081334  0
C  C65  1  0.92581144  0.67647275  0.03536336  1  0  0.122017  0  3.829328  0  0  0.113234  0  4.097537  0  0  0.117696  0  4.117522  0  0.466735  0  0.095073  0.110645  0  4.083682  0
C  C66  1  0.82708602  0.60896165  0.45663347  1  0  -0.193719  0  3.723462  0  0  -0.217175  0  3.988479  0  0  -0.224975  0  4.009315  0  0.026281  0  -0.10008  -0.212081  0  3.974248  0
C  C67  1  0.21801992  0.39112494  0.04359199  1  0  -0.192532  0  3.722914  0  0  -0.215766  0  3.988168  0  0  -0.223616  0  4.008952  0  -0.000386  0  -0.099574  -0.210668  0  3.974001  0
C  C68  1  0.17290782  0.39103786  0.54336502  1  0  -0.193791  0  3.723621  0  0  -0.217247  0  3.988615  0  0  -0.225073  0  4.009431  0  0.026292  0  -0.100117  -0.212157  0  3.974389  0
C  C69  1  0.78198434  0.60888038  0.95641151  1  0  -0.192559  0  3.723024  0  0  -0.215794  0  3.988307  0  0  -0.223646  0  4.009091  0  -0.000441  0  -0.099562  -0.210698  0  3.97414  0
C  C70  1  0.80356619  0.51532558  0.47446399  1  0  -0.005238  0  3.635027  0  0  -0.063598  0  3.900699  0  0  -0.058318  0  3.916358  0  0.29694  0  0.018178  -0.066511  0  3.889821  0
C  C71  1  0.28827540  0.48470296  0.02565469  1  0  -0.01059  0  3.638253  0  0  -0.069826  0  3.904037  0  0  -0.064663  0  3.919641  0  0.295933  0  0.016071  -0.072697  0  3.893228  0
C  C72  1  0.19642890  0.48467393  0.52553380  1  0  -0.005075  0  3.63501  0  0  -0.063433  0  3.900701  0  0  -0.058152  0  3.916369  0  0.296886  0  0.018225  -0.066353  0  3.889828  0
C  C73  1  0.71172135  0.51530236  0.97434811  1  0  -0.010493  0  3.638167  0  0  -0.069757  0  3.903968  0  0  -0.064604  0  3.919599  0  0.295949  0  0.016082  -0.072626  0  3.893156  0
C  C74  1  0.66451271  0.45577722  0.60811837  1  0  0.175198  0  3.762628  0  0  0.154465  0  4.007864  0  0  0.161282  0  4.029542  0  0.267493  0  0.104702  0.150092  0  3.99314  0
C  C75  1  0.20912818  0.54394695  0.89170310  1  0  0.177313  0  3.762548  0  0  0.156425  0  4.007582  0  0  0.163266  0  4.029195  0  0.248466  0  0.104533  0.152033  0  3.992902  0
C  C76  1  0.33548989  0.54422478  0.39188107  1  0  0.175219  0  3.762555  0  0  0.154497  0  4.007786  0  0  0.161313  0  4.029465  0  0.267453  0  0.104718  0.150123  0  3.993062  0
C  C77  1  0.79086191  0.45605008  0.10829444  1  0  0.177349  0  3.762498  0  0  0.156425  0  4.007541  0  0  0.163263  0  4.029158  0  0.248214  0  0.104553  0.152034  0  3.992859  0
C  C78  1  0.71956830  0.36141296  0.57755377  1  0  -0.159291  0  3.722361  0  0  -0.177271  0  3.977176  0  0  -0.1839  0  3.999484  0  -0.002992  0  -0.093112  -0.17293  0  3.962051  0
C  C79  1  0.35855446  0.63825812  0.92221808  1  0  -0.159312  0  3.722366  0  0  -0.17763  0  3.977037  0  0  -0.184207  0  3.999277  0  0.040098  0  -0.092749  -0.173324  0  3.962004  0
C  C80  1  0.28043597  0.63858987  0.42244738  1  0  -0.159272  0  3.722362  0  0  -0.177261  0  3.977182  0  0  -0.183889  0  3.99949  0  -0.002967  0  -0.093077  -0.172917  0  3.962055  0
C  C81  1  0.64143606  0.36173724  0.07778093  1  0  -0.159384  0  3.72236  0  0  -0.17763  0  3.977015  0  0  -0.184208  0  3.999254  0  0.040333  0  -0.092732  -0.173328  0  3.961977  0
C  C82  1  0.66493774  0.28882533  0.62480466  1  0  -0.048415  0  3.740988  0  0  -0.071683  0  3.98711  0  0  -0.070069  0  4.008134  0  -0.098151  0  -0.083238  -0.07241  0  3.972707  0
C  C83  1  0.37634294  0.71090630  0.87505253  1  0  -0.048247  0  3.740824  0  0  -0.071841  0  3.986997  0  0  -0.070204  0  4.008054  0  -0.077407  0  -0.083067  -0.07259  0  3.97258  0
C  C84  1  0.33506778  0.71117750  0.37519579  1  0  -0.048402  0  3.741024  0  0  -0.071663  0  3.987153  0  0  -0.07005  0  4.008178  0  -0.098277  0  -0.083265  -0.072392  0  3.972749  0
C  C85  1  0.62365384  0.28908907  0.12494647  1  0  -0.048208  0  3.740797  0  0  -0.071796  0  3.986946  0  0  -0.070154  0  4.007997  0  -0.077395  0  -0.083075  -0.072541  0  3.972521  0
C  C86  1  0.55570595  0.30890258  0.70239694  1  0  -0.085543  0  3.770181  0  0  -0.064807  0  4.005095  0  0  -0.075345  0  4.030249  0  0.010253  0  -0.025259  -0.058049  0  3.988169  0
C  C87  1  0.24701533  0.69085724  0.79749549  1  0  -0.086348  0  3.77398  0  0  -0.065471  0  4.00948  0  0  -0.076006  0  4.034648  0  -0.030935  0  -0.026307  -0.058724  0  3.992562  0
C  C88  1  0.44430125  0.69109859  0.29760428  1  0  -0.08567  0  3.770377  0  0  -0.064934  0  4.005276  0  0  -0.075472  0  4.030431  0  0.010357  0  -0.025286  -0.058174  0  3.988351  0
C  C89  1  0.75298477  0.30914227  0.20250650  1  0  -0.086304  0  3.773873  0  0  -0.065418  0  4.009366  0  0  -0.075951  0  4.03453  0  -0.031228  0  -0.02626  -0.058671  0  3.992451  0
C  C90  1  0.50228517  0.40372796  0.73188444  1  0  -0.046637  0  3.731869  0  0  -0.06635  0  3.97568  0  0  -0.064617  0  3.995894  0  -0.04497  0  -0.078953  -0.067173  0  3.961852  0
C  C91  1  0.09885620  0.59598625  0.76797590  1  0  -0.047246  0  3.73602  0  0  -0.06681  0  3.979675  0  0  -0.065146  0  3.999894  0  0.021793  0  -0.079724  -0.067621  0  3.965899  0
C  C92  1  0.49771660  0.59627238  0.26811646  1  0  -0.046661  0  3.731978  0  0  -0.066373  0  3.975785  0  0  -0.064642  0  3.996002  0  -0.044979  0  -0.078965  -0.067198  0  3.961959  0
C  C93  1  0.90114140  0.40401327  0.23202258  1  0  -0.04723  0  3.735998  0  0  -0.06678  0  3.979662  0  0  -0.065115  0  3.999877  0  0.022044  0  -0.079722  -0.067593  0  3.965888  0
C  C94  1  0.55580428  0.47725444  0.68579943  1  0  -0.142286  0  3.729944  0  0  -0.161251  0  3.983991  0  0  -0.166527  0  4.004372  0  0.030238  0  -0.088763  -0.157873  0  3.970255  0
C  C95  1  0.07893557  0.52240089  0.81400489  1  0  -0.144954  0  3.73072  0  0  -0.163865  0  3.984438  0  0  -0.16921  0  4.004815  0  -0.057404  0  -0.089112  -0.160408  0  3.97072  0
C  C96  1  0.44419791  0.52274673  0.31420179  1  0  -0.142278  0  3.73003  0  0  -0.161258  0  3.984091  0  0  -0.166534  0  4.004474  0  0.030234  0  -0.088773  -0.157879  0  3.970356  0
C  C97  1  0.92105368  0.47759696  0.18599157  1  0  -0.145089  0  3.730855  0  0  -0.163989  0  3.984515  0  0  -0.169329  0  4.00489  0  -0.057228  0  -0.0892  -0.160532  0  3.970795  0
C  C98  1  0.49366709  0.23053262  0.75253198  1  0  0.647984  0  3.897081  0  0  0.597944  0  4.189565  0  0  0.633036  0  4.181407  0  1.541306  0  0.210279  0.574198  0  4.19431  0
C  C99  1  0.26306852  0.76939474  0.74754043  1  0  0.647677  0  3.896902  0  0  0.596596  0  4.190727  0  0  0.631698  0  4.182641  0  1.559229  0  0.20948  0.572843  0  4.195437  0
C  C100  1  0.50633594  0.76946772  0.24746752  1  0  0.648111  0  3.897027  0  0  0.598107  0  4.189467  0  0  0.633199  0  4.181308  0  1.541192  0  0.2103  0.574359  0  4.194217  0
C  C101  1  0.73693451  0.23060561  0.25246117  1  0  0.647647  0  3.896858  0  0  0.596543  0  4.190721  0  0  0.631642  0  4.182635  0  1.559076  0  0.209462  0.57279  0  4.195429  0
N  N102  1  0.80195739  0.82959332  0.48654316  1  0  -0.296901  0  3.014953  0  0  -0.27302  0  3.278426  0  0  -0.278108  0  3.290344  0  -1.170002  0  -0.302349  -0.269319  0  3.27045  0
N  N103  1  0.97246131  0.17063012  0.01378693  1  0  -0.295108  0  3.016018  0  0  -0.271056  0  3.279578  0  0  -0.276074  0  3.291483  0  -1.177885  0  -0.301628  -0.26739  0  3.271616  0
N  N104  1  0.19804147  0.17040619  0.51345742  1  0  -0.296892  0  3.015033  0  0  -0.273014  0  3.278482  0  0  -0.278104  0  3.290404  0  -1.170046  0  -0.302344  -0.269314  0  3.270506  0
N  N105  1  0.02754255  0.82936940  0.98621436  1  0  -0.295257  0  3.015788  0  0  -0.271211  0  3.279356  0  0  -0.276229  0  3.291259  0  -1.177744  0  -0.301707  -0.267545  0  3.271395  0
N  N106  1  0.59822579  0.92454809  0.63337485  1  0  -0.270016  0  3.275331  0  0  -0.196398  0  3.538357  0  0  -0.211003  0  3.556383  0  -1.230073  0  -0.304581  -0.186339  0  3.526025  0
N  N107  1  0.67396437  0.07548129  0.86679172  1  0  -0.26873  0  3.273848  0  0  -0.195118  0  3.536803  0  0  -0.209699  0  3.554827  0  -1.235062  0  -0.304664  -0.185081  0  3.52448  0
N  N108  1  0.40177140  0.07545060  0.36662402  1  0  -0.269982  0  3.275262  0  0  -0.196396  0  3.538356  0  0  -0.210999  0  3.556379  0  -1.230068  0  -0.304571  -0.186339  0  3.526027  0
N  N109  1  0.32604158  0.92451740  0.13320715  1  0  -0.268866  0  3.273957  0  0  -0.195198  0  3.536841  0  0  -0.209783  0  3.554867  0  -1.235016  0  -0.30466  -0.185147  0  3.524505  0
N  N110  1  0.68419999  0.62771358  0.59821998  1  0  -0.280608  0  2.854839  0  0  -0.286371  0  3.119365  0  0  -0.292894  0  3.133369  0  -0.652736  0  -0.221407  -0.281704  0  3.109736  0
N  N111  1  0.05692099  0.37212089  0.90170579  1  0  -0.279509  0  2.854379  0  0  -0.285463  0  3.118421  0  0  -0.291992  0  3.132341  0  -0.636236  0  -0.220909  -0.280795  0  3.108834  0
N  N112  1  0.31580053  0.37228676  0.40178092  1  0  -0.280578  0  2.854827  0  0  -0.286363  0  3.119355  0  0  -0.292888  0  3.133358  0  -0.652704  0  -0.221404  -0.281696  0  3.109724  0
N  N113  1  0.94307411  0.62787863  0.09829759  1  0  -0.279492  0  2.854093  0  0  -0.285449  0  3.118162  0  0  -0.291976  0  3.132081  0  -0.636427  0  -0.220837  -0.280781  0  3.108575  0
N  N114  1  0.71812464  0.52999040  0.56039448  1  0  0.05331  0  3.596471  0  0  0.165314  0  3.779053  0  0  0.157144  0  3.799692  0  -0.826155  0  -0.117128  0.170425  0  3.765137  0
N  N115  1  0.18855501  0.46985319  0.93953337  1  0  0.051963  0  3.595924  0  0  0.164589  0  3.777694  0  0  0.15643  0  3.798288  0  -0.828185  0  -0.118547  0.169697  0  3.76383  0
N  N116  1  0.28187587  0.47000994  0.43960572  1  0  0.053221  0  3.596426  0  0  0.165235  0  3.779001  0  0  0.157064  0  3.799639  0  -0.826106  0  -0.117158  0.170349  0  3.765083  0
N  N117  1  0.81143799  0.53014715  0.06046753  1  0  0.051988  0  3.59581  0  0  0.164637  0  3.777601  0  0  0.156478  0  3.798196  0  -0.827917  0  -0.118525  0.169744  0  3.763737  0
O  O118  1  0.43022693  0.26438977  0.83693811  1  0  -0.61549  0  1.988339  0  0  -0.559603  0  2.205986  0  0  -0.584468  0  2.197095  0  -1.178946  0  -0.315432  -0.542375  0  2.21164  0
O  O119  1  0.16556787  0.73561472  0.66323436  1  0  -0.615995  0  1.988308  0  0  -0.559229  0  2.206135  0  0  -0.584092  0  2.197167  0  -1.181318  0  -0.315185  -0.541977  0  2.211842  0
O  O120  1  0.56977943  0.73561224  0.16306273  1  0  -0.615543  0  1.988369  0  0  -0.559642  0  2.205977  0  0  -0.584508  0  2.197084  0  -1.178884  0  -0.315411  -0.542416  0  2.211632  0
O  O121  1  0.83443682  0.26438645  0.33676685  1  0  -0.615974  0  1.988284  0  0  -0.559164  0  2.206075  0  0  -0.584028  0  2.19711  0  -1.181259  0  -0.315142  -0.541912  0  2.211775  0
O  O122  1  0.50888202  0.13348620  0.70670285  1  0  -0.664213  0  2.091972  0  0  -0.596623  0  2.357951  0  0  -0.626248  0  2.347056  0  -1.187498  0  -0.322204  -0.575834  0  2.364611  0
O  O123  1  0.37520496  0.86645857  0.79340698  1  0  -0.663117  0  2.089654  0  0  -0.595829  0  2.356907  0  0  -0.625411  0  2.345846  0  -1.200325  0  -0.321675  -0.574983  0  2.363505  0
O  O124  1  0.49112142  0.86651497  0.29329697  1  0  -0.66422  0  2.091917  0  0  -0.596656  0  2.35788  0  0  -0.626282  0  2.346983  0  -1.187501  0  -0.322193  -0.575868  0  2.364543  0
O  O125  1  0.62479723  0.13354260  0.20659703  1  0  -0.663138  0  2.089557  0  0  -0.595868  0  2.356862  0  0  -0.625471  0  2.345846  0  -1.200249  0  -0.321717  -0.575021  0  2.363458  0
O  O126  1  0.21581523  0.90949512  0.63042755  1  0  -0.820686  0  1.886336  0  0  -0.766306  0  2.085802  0  0  -0.786705  0  2.055392  0  -1.238179  0  -0.576455  -0.75189  0  2.106824  0
O  O127  1  0.30649176  0.09060723  0.86977103  1  0  -0.81934  0  1.887583  0  0  -0.764737  0  2.086824  0  0  -0.785178  0  2.056423  0  -1.226408  0  -0.574751  -0.750284  0  2.107832  0
O  O128  1  0.78418361  0.09050688  0.36957468  1  0  -0.820681  0  1.886233  0  0  -0.766306  0  2.085662  0  0  -0.786705  0  2.055248  0  -1.238162  0  -0.576413  -0.75189  0  2.106688  0
O  O129  1  0.69351168  0.90939394  0.13022948  1  0  -0.819369  0  1.887519  0  0  -0.764789  0  2.086738  0  0  -0.78523  0  2.056334  0  -1.226393  0  -0.574727  -0.750335  0  2.107746  0
