# generated using pymatgen
data_AgH6C15S4N2(OF)3
_symmetry_space_group_name_H-M   'P 1'
_cell_length_a   11.59168622
_cell_length_b   12.34267935
_cell_length_c   13.93300000
_cell_angle_alpha   80.38809871
_cell_angle_beta   77.89791023
_cell_angle_gamma   64.40456104
_symmetry_Int_Tables_number   1
_chemical_formula_structural   AgH6C15S4N2(OF)3
_chemical_formula_sum   'Ag3 H18 C45 S12 N6 O9 F9'
_cell_volume   1751.24229571
_cell_formula_units_Z   3
loop_
 _symmetry_equiv_pos_site_id
 _symmetry_equiv_pos_as_xyz
  1  'x, y, z'
loop_
 _atom_site_type_symbol
 _atom_site_label
 _atom_site_symmetry_multiplicity
 _atom_site_fract_x
 _atom_site_fract_y
 _atom_site_fract_z
 _atom_site_occupancy
 _atom_site_hle17_bader_spin_density
 _atom_site_hle17_ddec_charge
 _atom_site_hle17_ddec_spin_density
 _atom_site_hle17_ddec_sum_bond_order
 _atom_site_hle17_magmom
 _atom_site_hse06_10hf_bader_spin_density
 _atom_site_hse06_10hf_ddec_charge
 _atom_site_hse06_10hf_ddec_spin_density
 _atom_site_hse06_10hf_ddec_sum_bond_order
 _atom_site_hse06_10hf_magmom
 _atom_site_hse06_bader_spin_density
 _atom_site_hse06_ddec_charge
 _atom_site_hse06_ddec_spin_density
 _atom_site_hse06_ddec_sum_bond_order
 _atom_site_hse06_magmom
 _atom_site_pbe_bader_charge
 _atom_site_pbe_bader_spin_density
 _atom_site_pbe_cm5_charge
 _atom_site_pbe_ddec_charge
 _atom_site_pbe_ddec_spin_density
 _atom_site_pbe_ddec_sum_bond_order
 _atom_site_pbe_magmom
Ag  Ag0  1  0.32905344  0.13686610  0.31668497  1  0  0.706067  0  1.505497  0  0  0.590286  0  1.971696  0  0  0.608425  0  1.925002  0  0.729409  0  0.562228  0.577608  0  2.005127  0
Ag  Ag1  1  0.08961538  0.14638764  0.57752330  1  0  0.702854  0  1.502803  0  0  0.591738  0  1.967568  0  0  0.610044  0  1.917481  0  0.733533  0  0.550956  0.581559  0  2.002857  0
Ag  Ag2  1  0.83229166  0.05558001  0.55934914  1  0  0.678166  0  1.527527  0  0  0.558513  0  1.990805  0  0  0.577035  0  1.946273  0  0.704312  0  0.553569  0.547335  0  2.022498  0
H  H3  1  0.98856421  0.59735801  0.20485539  1  0  0.127308  0  0.920071  0  0  0.139969  0  0.97201  0  0  0.143017  0  0.969423  0  0.119294  0  0.11756  0.137687  0  0.97407  0
H  H4  1  0.86260544  0.72597494  0.05864524  1  0  0.124067  0  0.924737  0  0  0.141734  0  0.971035  0  0  0.144567  0  0.970428  0  0.113368  0  0.114068  0.139587  0  0.971701  0
H  H5  1  0.01524988  0.45037251  0.79581180  1  0  0.130035  0  0.921304  0  0  0.144126  0  0.972664  0  0  0.146946  0  0.971108  0  0.128172  0  0.112556  0.142141  0  0.973773  0
H  H6  1  0.88872660  0.57726350  0.65441346  1  0  0.128013  0  0.943088  0  0  0.13857  0  1.001124  0  0  0.141444  0  0.999372  0  0.131256  0  0.106555  0.136549  0  1.002283  0
H  H7  1  0.63027872  0.97943679  0.77634001  1  0  0.144017  0  0.942926  0  0  0.157486  0  0.995546  0  0  0.160737  0  0.993797  0  0.145823  0  0.112564  0.155143  0  0.996845  0
H  H8  1  0.48516730  0.10663867  0.64011285  1  0  0.13777  0  0.904518  0  0  0.155298  0  0.947743  0  0  0.157577  0  0.946746  0  0.1425  0  0.127267  0.153609  0  0.948533  0
H  H9  1  0.46324531  0.70097944  0.66312070  1  0  0.123641  0  0.918469  0  0  0.139043  0  0.966648  0  0  0.141294  0  0.965641  0  0.115898  0  0.119552  0.1374  0  0.967464  0
H  H10  1  0.59567606  0.55995629  0.80166484  1  0  0.127687  0  0.942667  0  0  0.139925  0  0.998254  0  0  0.143225  0  0.996512  0  0.129741  0  0.105942  0.13745  0  0.999747  0
H  H11  1  0.44786883  0.80531686  0.08372571  1  0  0.127187  0  0.947198  0  0  0.138004  0  1.005477  0  0  0.140787  0  1.003659  0  0.13258  0  0.108899  0.136035  0  1.006677  0
H  H12  1  0.57894971  0.66667612  0.21890736  1  0  0.132034  0  0.932703  0  0  0.144845  0  0.986538  0  0  0.147713  0  0.98473  0  0.150286  0  0.110166  0.142819  0  0.987834  0
H  H13  1  0.86372359  0.28938741  0.06259961  1  0  0.121744  0  0.953738  0  0  0.132239  0  1.012782  0  0  0.135922  0  1.010323  0  0.098224  0  0.102796  0.129579  0  1.01456  0
H  H14  1  0.00494631  0.14575010  0.19719750  1  0  0.144569  0  0.930713  0  0  0.157657  0  0.981267  0  0  0.160836  0  0.978766  0  0.173695  0  0.119917  0.155304  0  0.983202  0
H  H15  1  0.70116323  0.09788633  0.21887367  1  0  0.126779  0  0.91257  0  0  0.145359  0  0.954691  0  0  0.1473  0  0.954127  0  0.119505  0  0.124747  0.143913  0  0.955156  0
H  H16  1  0.57256698  0.23388495  0.07707656  1  0  0.127813  0  0.93574  0  0  0.141144  0  0.988059  0  0  0.144427  0  0.986419  0  0.134573  0  0.109328  0.138783  0  0.989195  0
H  H17  1  0.29716540  0.62915898  0.20489203  1  0  0.128344  0  0.936582  0  0  0.139267  0  0.994223  0  0  0.141838  0  0.992788  0  0.131379  0  0.108113  0.137361  0  0.99541  0
H  H18  1  0.17958725  0.75584707  0.05860567  1  0  0.13063  0  0.926106  0  0  0.144446  0  0.978549  0  0  0.147347  0  0.976925  0  0.12021  0  0.112516  0.142487  0  0.979545  0
H  H19  1  0.33419607  0.47105135  0.80178792  1  0  0.123664  0  0.926311  0  0  0.138783  0  0.975984  0  0  0.141942  0  0.974824  0  0.085572  0  0.112039  0.136604  0  0.976709  0
H  H20  1  0.21120505  0.59152371  0.65398177  1  0  0.147444  0  0.939814  0  0  0.160016  0  0.992167  0  0  0.163081  0  0.989648  0  0.171298  0  0.118603  0.15769  0  0.994185  0
C  C21  1  0.16371171  0.35727355  0.17198054  1  0  0.324433  0  3.803767  0  0  0.302593  0  4.069164  0  0  0.316916  0  4.087786  0  0.829243  0  0.201752  0.292385  0  4.056687  0
C  C22  1  0.08174862  0.44727141  0.11245092  1  0  -0.093867  0  3.896455  0  0  -0.073579  0  4.159532  0  0  -0.079288  0  4.181143  0  -0.04695  0  -0.017597  -0.069457  0  4.144776  0
C  C23  1  0.99846774  0.56459397  0.13452706  1  0  -0.055361  0  3.734724  0  0  -0.086453  0  3.997575  0  0  -0.081701  0  4.013645  0  0.028978  0  -0.077726  -0.089511  0  3.986505  0
C  C24  1  0.93250783  0.63238272  0.05640554  1  0  -0.134262  0  3.738325  0  0  -0.16256  0  4.005514  0  0  -0.168526  0  4.025355  0  0.027871  0  -0.103309  -0.158433  0  3.991807  0
C  C25  1  0.96508933  0.56790698  0.97416891  1  0  0.008346  0  3.806007  0  0  0.015281  0  4.079272  0  0  0.020569  0  4.100597  0  -0.160016  0  -0.005193  0.011612  0  4.064892  0
C  C26  1  0.91712279  0.60846481  0.88195007  1  0  -0.045407  0  3.843389  0  0  -0.038481  0  4.117404  0  0  -0.039797  0  4.140812  0  -0.169277  0  -0.022568  -0.03739  0  4.101443  0
C  C27  1  0.94650346  0.54417032  0.80038632  1  0  -0.092747  0  3.728279  0  0  -0.122693  0  3.996869  0  0  -0.123429  0  4.015976  0  0.024856  0  -0.093937  -0.121929  0  3.983345  0
C  C28  1  0.87785174  0.61288878  0.72370066  1  0  -0.098917  0  3.709911  0  0  -0.127607  0  3.97166  0  0  -0.129369  0  3.991857  0  0.009281  0  -0.097028  -0.125307  0  3.956766  0
C  C29  1  0.79603720  0.73073976  0.74551579  1  0  -0.020047  0  3.797485  0  0  -0.008709  0  4.063495  0  0  -0.010589  0  4.089435  0  -0.195007  0  -0.015604  -0.007241  0  4.045494  0
C  C30  1  0.70982139  0.82591183  0.68685760  1  0  0.011047  0  3.795141  0  0  0.018102  0  4.063964  0  0  0.022359  0  4.086531  0  -0.170302  0  -0.004562  0.01491  0  4.048935  0
C  C31  1  0.62991805  0.94403785  0.70994873  1  0  -0.150036  0  3.753362  0  0  -0.177551  0  4.025612  0  0  -0.182367  0  4.04327  0  0.00392  0  -0.104288  -0.173921  0  4.013094  0
C  C32  1  0.55395776  0.01276962  0.63721736  1  0  -0.063401  0  3.738644  0  0  -0.095683  0  4.003124  0  0  -0.090808  0  4.017433  0  0.011185  0  -0.077751  -0.098801  0  3.99283  0
C  C33  1  0.57623397  0.94705870  0.55788958  1  0  -0.099054  0  3.912331  0  0  -0.079106  0  4.178653  0  0  -0.085005  0  4.200418  0  -0.024475  0  -0.017974  -0.074634  0  4.16361  0
C  C34  1  0.51649783  0.98869952  0.47413417  1  0  0.335328  0  3.794069  0  0  0.319608  0  4.042189  0  0  0.333508  0  4.061489  0  0.81684  0  0.206907  0.309539  0  4.0297  0
C  C35  1  0.17391343  0.85314456  0.37003381  1  0  0.595476  0  3.669511  0  0  0.536961  0  4.020745  0  0  0.563886  0  3.995456  0  1.632007  0  0.27992  0.51734  0  4.039582  0
C  C36  1  0.29691567  0.93993761  0.70626882  1  0  0.328181  0  3.802044  0  0  0.308829  0  4.062767  0  0  0.323049  0  4.081594  0  0.8779  0  0.202043  0.298714  0  4.050183  0
C  C37  1  0.37921245  0.84444001  0.76232852  1  0  -0.100762  0  3.908956  0  0  -0.080338  0  4.173884  0  0  -0.0863  0  4.19623  0  -0.032212  0  -0.018417  -0.075832  0  4.158055  0
C  C38  1  0.45877033  0.72861976  0.73441700  1  0  -0.064575  0  3.759564  0  0  -0.09774  0  4.025528  0  0  -0.093336  0  4.042895  0  -0.002953  0  -0.080748  -0.100332  0  4.012924  0
C  C39  1  0.52876826  0.65388756  0.80857859  1  0  -0.132479  0  3.729979  0  0  -0.158824  0  3.998144  0  0  -0.164919  0  4.018335  0  -0.00017  0  -0.104688  -0.154372  0  3.983874  0
C  C40  1  0.50294222  0.71140993  0.89370783  1  0  0.009411  0  3.790605  0  0  0.015892  0  4.062538  0  0  0.020804  0  4.084401  0  -0.200832  0  -0.003924  0.012323  0  4.047658  0
C  C41  1  0.55571427  0.66221879  0.98368049  1  0  -0.034935  0  3.817384  0  0  -0.024901  0  4.085935  0  0  -0.026267  0  4.109594  0  -0.163093  0  -0.019983  -0.023801  0  4.069743  0
C  C42  1  0.52356102  0.71571307  0.07155632  1  0  -0.095777  0  3.72812  0  0  -0.120101  0  3.984338  0  0  -0.121414  0  4.004335  0  0.036809  0  -0.095367  -0.118656  0  3.970026  0
C  C43  1  0.59408147  0.63969137  0.14516007  1  0  -0.108651  0  3.72762  0  0  -0.135858  0  3.98827  0  0  -0.137346  0  4.008277  0  -0.039198  0  -0.100106  -0.13414  0  3.973865  0
C  C44  1  0.68137941  0.52701461  0.11441366  1  0  -0.029938  0  3.809764  0  0  -0.021477  0  4.081647  0  0  -0.023357  0  4.107055  0  -0.18878  0  -0.020706  -0.019815  0  4.064064  0
C  C45  1  0.76981427  0.42654658  0.16809601  1  0  0.00552  0  3.799271  0  0  0.015311  0  4.067598  0  0  0.019609  0  4.090675  0  -0.144025  0  -0.006359  0.011853  0  4.052082  0
C  C46  1  0.85590939  0.31386441  0.13589795  1  0  -0.14341  0  3.76213  0  0  -0.16944  0  4.028657  0  0  -0.175463  0  4.04912  0  0.02368  0  -0.105913  -0.164887  0  4.014187  0
C  C47  1  0.93028807  0.23645402  0.20679199  1  0  -0.05103  0  3.696608  0  0  -0.080157  0  3.947889  0  0  -0.076054  0  3.964419  0  -0.003796  0  -0.077005  -0.08269  0  3.936087  0
C  C48  1  0.90060790  0.28992034  0.29447241  1  0  -0.086373  0  3.864969  0  0  -0.063679  0  4.124927  0  0  -0.070111  0  4.14803  0  -0.044833  0  -0.014506  -0.058896  0  4.109209  0
C  C49  1  0.95270483  0.23901949  0.38103835  1  0  0.350032  0  3.784443  0  0  0.327855  0  4.045293  0  0  0.343162  0  4.062182  0  0.847623  0  0.20561  0.316668  0  4.035225  0
C  C50  1  0.08090732  0.49612800  0.43947209  1  0  0.592943  0  3.64706  0  0  0.531721  0  4.004187  0  0  0.55965  0  3.977044  0  1.619542  0  0.280422  0.511631  0  4.023915  0
C  C51  1  0.64932302  0.20136619  0.39553431  1  0  0.344397  0  3.798196  0  0  0.327799  0  4.05165  0  0  0.342864  0  4.070553  0  0.823442  0  0.210407  0.31674  0  4.039308  0
C  C52  1  0.59289254  0.24871055  0.31051801  1  0  -0.105674  0  3.901464  0  0  -0.087007  0  4.17008  0  0  -0.093512  0  4.191866  0  -0.022776  0  -0.017481  -0.08161  0  4.15473  0
C  C53  1  0.62762626  0.18954790  0.22497268  1  0  -0.062033  0  3.754333  0  0  -0.092074  0  4.016233  0  0  -0.0871  0  4.031854  0  0.009592  0  -0.077329  -0.095268  0  4.004783  0
C  C54  1  0.55882413  0.26221420  0.15000448  1  0  -0.139762  0  3.752736  0  0  -0.166931  0  4.02188  0  0  -0.172738  0  4.040677  0  0.024031  0  -0.104664  -0.162165  0  4.008085  0
C  C55  1  0.47185604  0.37717599  0.17718663  1  0  0.009726  0  3.788817  0  0  0.015825  0  4.061188  0  0  0.020802  0  4.083117  0  -0.167194  0  -0.002544  0.0121  0  4.046164  0
C  C56  1  0.38938688  0.47351041  0.11670538  1  0  -0.027876  0  3.805482  0  0  -0.01772  0  4.073987  0  0  -0.019683  0  4.098821  0  -0.177711  0  -0.019367  -0.015905  0  4.056745  0
C  C57  1  0.30830909  0.59214952  0.13620767  1  0  -0.089078  0  3.709505  0  0  -0.116039  0  3.971087  0  0  -0.116839  0  3.991401  0  -0.002194  0  -0.094009  -0.11493  0  3.956405  0
C  C58  1  0.24438601  0.66059565  0.05692095  1  0  -0.106644  0  3.724303  0  0  -0.135493  0  3.989884  0  0  -0.137362  0  4.009772  0  0.040801  0  -0.097736  -0.133306  0  3.974922  0
C  C59  1  0.27551864  0.59513250  0.97581876  1  0  -0.022836  0  3.81027  0  0  -0.013023  0  4.081055  0  0  -0.013623  0  4.104981  0  -0.211889  0  -0.017555  -0.01232  0  4.064334  0
C  C60  1  0.22990485  0.63303919  0.88233931  1  0  -0.012407  0  3.810817  0  0  -0.005303  0  4.083013  0  0  -0.001437  0  4.105849  0  -0.168589  0  -0.011609  -0.007827  0  4.067325  0
C  C61  1  0.26471169  0.56493934  0.80200254  1  0  -0.134837  0  3.745697  0  0  -0.161624  0  4.011998  0  0  -0.16746  0  4.031827  0  0.002486  0  -0.104826  -0.157122  0  3.99757  0
C  C62  1  0.20065241  0.62945926  0.72221073  1  0  -0.05423  0  3.699167  0  0  -0.082086  0  3.95065  0  0  -0.078191  0  3.967863  0  0.062627  0  -0.075605  -0.0843  0  3.938364  0
C  C63  1  0.11708166  0.74794778  0.74166916  1  0  -0.099575  0  3.867167  0  0  -0.078885  0  4.129302  0  0  -0.085747  0  4.152424  0  -0.085029  0  -0.015611  -0.073487  0  4.113209  0
C  C64  1  0.03578114  0.83348199  0.67905255  1  0  0.353362  0  3.782262  0  0  0.333356  0  4.042765  0  0  0.348955  0  4.060779  0  0.869956  0  0.212167  0.322  0  4.031189  0
C  C65  1  0.79085902  0.25456198  0.85346666  1  0  0.594013  0  3.662175  0  0  0.532675  0  4.01834  0  0  0.560181  0  3.991854  0  1.636957  0  0.282334  0.512853  0  4.037638  0
S  S66  1  0.07762761  0.42201711  0.99469894  1  0  0.145682  0  2.509991  0  0  0.150158  0  2.802823  0  0  0.147098  0  2.811691  0  0.268479  0  0.120765  0.151588  0  2.797277  0
S  S67  1  0.80532901  0.75520864  0.86181958  1  0  0.135078  0  2.566073  0  0  0.138603  0  2.879873  0  0  0.135376  0  2.890419  0  0.244299  0  0.107725  0.139992  0  2.873045  0
S  S68  1  0.69256701  0.80122113  0.57314536  1  0  0.14327  0  2.494299  0  0  0.144564  0  2.785018  0  0  0.142052  0  2.791685  0  0.274178  0  0.117662  0.145437  0  2.780902  0
S  S69  1  0.25358790  0.91570138  0.25810372  1  0  1.113067  0  5.877336  0  0  1.018852  0  6.409905  0  0  1.062567  0  6.389942  0  3.280384  0  0.468524  0.988629  0  6.423165  0
S  S70  1  0.39124874  0.85960106  0.88104763  1  0  0.155735  0  2.467919  0  0  0.162432  0  2.751783  0  0  0.159425  0  2.760241  0  0.275619  0  0.124313  0.163924  0  2.746334  0
S  S71  1  0.67416897  0.51690062  0.99365482  1  0  0.130551  0  2.616184  0  0  0.124207  0  2.960232  0  0  0.121169  0  2.971083  0  0.242959  0  0.097645  0.125327  0  2.953212  0
S  S72  1  0.78130284  0.43589859  0.28797086  1  0  0.127763  0  2.500847  0  0  0.127666  0  2.793582  0  0  0.124425  0  2.802327  0  0.264183  0  0.109034  0.128973  0  2.788118  0
S  S73  1  0.17431895  0.37975318  0.53219324  1  0  1.122296  0  5.864957  0  0  1.027682  0  6.398806  0  0  1.070938  0  6.380408  0  3.296085  0  0.466584  0.997907  0  6.410835  0
S  S74  1  0.47352395  0.39337586  0.29749814  1  0  0.188858  0  2.51049  0  0  0.189189  0  2.81438  0  0  0.187621  0  2.820798  0  0.320878  0  0.138935  0.18921  0  2.81034  0
S  S75  1  0.38554114  0.44828407  0.99891632  1  0  0.098329  0  2.579006  0  0  0.097975  0  2.897  0  0  0.094859  0  2.905905  0  0.221061  0  0.088088  0.099158  0  2.891217  0
S  S76  1  0.11759720  0.77811569  0.85888254  1  0  0.181412  0  2.602587  0  0  0.180857  0  2.924632  0  0  0.17882  0  2.93328  0  0.332054  0  0.130987  0.180743  0  2.919048  0
S  S77  1  0.84444828  0.11900522  0.78554977  1  0  1.127445  0  5.859025  0  0  1.033286  0  6.385919  0  0  1.076416  0  6.36806  0  3.287825  0  0.467205  1.00356  0  6.39743  0
N  N78  1  0.23445208  0.28211934  0.22089096  1  0  -0.422376  0  3.005826  0  0  -0.369118  0  3.324806  0  0  -0.384484  0  3.328169  0  -1.185686  0  -0.355109  -0.35878  0  3.323071  0
N  N79  1  0.46561847  0.02596397  0.40424700  1  0  -0.428914  0  3.015562  0  0  -0.371403  0  3.324453  0  0  -0.386715  0  3.327222  0  -1.177903  0  -0.357469  -0.361386  0  3.323559  0
N  N80  1  0.22897402  0.01953362  0.65831551  1  0  -0.423483  0  2.993736  0  0  -0.369066  0  3.308327  0  0  -0.384159  0  3.310245  0  -1.185626  0  -0.352973  -0.359721  0  3.307876  0
N  N81  1  0.99218324  0.19794586  0.45549084  1  0  -0.449476  0  3.01211  0  0  -0.394259  0  3.337542  0  0  -0.408484  0  3.335474  0  -1.183502  0  -0.357172  -0.386163  0  3.340852  0
N  N82  1  0.70183973  0.15720228  0.46427822  1  0  -0.454829  0  3.029453  0  0  -0.396189  0  3.341886  0  0  -0.412918  0  3.345372  0  -1.211566  0  -0.365928  -0.385287  0  3.340321  0
N  N83  1  0.96757829  0.90297955  0.62554405  1  0  -0.452297  0  3.022342  0  0  -0.399757  0  3.347025  0  0  -0.416519  0  3.349257  0  -1.21174  0  -0.364531  -0.389051  0  3.346694  0
O  O84  1  0.19347917  0.04541824  0.27181767  1  0  -0.652726  0  2.091266  0  0  -0.608346  0  2.367736  0  0  -0.629931  0  2.353665  0  -1.315113  0  -0.353551  -0.593097  0  2.377282  0
O  O85  1  0.39032374  0.85594629  0.26758177  1  0  -0.611892  0  1.957046  0  0  -0.582354  0  2.192621  0  0  -0.599671  0  2.178746  0  -1.326259  0  -0.354157  -0.570171  0  2.20189  0
O  O86  1  0.21568120  0.88496357  0.17661662  1  0  -0.606937  0  1.934264  0  0  -0.578002  0  2.167316  0  0  -0.596112  0  2.154608  0  -1.322749  0  -0.356743  -0.565366  0  2.175784  0
O  O87  1  0.07178995  0.35620949  0.60194002  1  0  -0.625082  0  1.987357  0  0  -0.581876  0  2.240622  0  0  -0.601512  0  2.225238  0  -1.31627  0  -0.353354  -0.568266  0  2.250979  0
O  O88  1  0.26212878  0.27921211  0.47377407  1  0  -0.659171  0  2.05653  0  0  -0.629695  0  2.340941  0  0  -0.648695  0  2.325316  0  -1.333004  0  -0.357111  -0.616226  0  2.351389  0
O  O89  1  0.23532569  0.44111699  0.57038558  1  0  -0.596474  0  1.940874  0  0  -0.56663  0  2.167587  0  0  -0.585179  0  2.155114  0  -1.324812  0  -0.352361  -0.553596  0  2.175817  0
O  O90  1  0.85810724  0.17062206  0.68236799  1  0  -0.662042  0  2.088188  0  0  -0.608087  0  2.365337  0  0  -0.628781  0  2.346771  0  -1.305849  0  -0.358121  -0.593649  0  2.377863  0
O  O91  1  0.73719823  0.08287226  0.81409283  1  0  -0.611161  0  1.954654  0  0  -0.58182  0  2.186581  0  0  -0.599777  0  2.174046  0  -1.323094  0  -0.356588  -0.568981  0  2.194787  0
O  O92  1  0.96569013  0.03728269  0.81960307  1  0  -0.609504  0  2.00184  0  0  -0.581146  0  2.246998  0  0  -0.599939  0  2.236115  0  -1.324015  0  -0.35082  -0.567771  0  2.254051  0
F  F93  1  0.21462360  0.73188137  0.37008877  1  0  -0.23232  0  1.179234  0  0  -0.198878  0  1.342802  0  0  -0.207441  0  1.325544  0  -0.610642  0  -0.107659  -0.192659  0  1.355071  0
F  F94  1  0.20122002  0.87406146  0.45362964  1  0  -0.237342  0  1.184895  0  0  -0.203722  0  1.352861  0  0  -0.212911  0  1.336869  0  -0.61555  0  -0.106684  -0.196971  0  1.364129  0
F  F95  1  0.04260845  0.90444038  0.37450505  1  0  -0.245673  0  1.16603  0  0  -0.213624  0  1.333485  0  0  -0.221817  0  1.316185  0  -0.641038  0  -0.113962  -0.207619  0  1.345716  0
F  F96  1  0.00790218  0.45720865  0.40082925  1  0  -0.24701  0  1.19636  0  0  -0.210868  0  1.368413  0  0  -0.220892  0  1.353231  0  -0.621458  0  -0.111452  -0.203511  0  1.379078  0
F  F97  1  0.99841103  0.60025441  0.48118429  1  0  -0.243371  0  1.185744  0  0  -0.209572  0  1.354235  0  0  -0.218364  0  1.337227  0  -0.622499  0  -0.109507  -0.203208  0  1.366174  0
F  F98  1  0.16029582  0.52407672  0.36269371  1  0  -0.235723  0  1.214434  0  0  -0.19962  0  1.388962  0  0  -0.21005  0  1.374108  0  -0.620734  0  -0.103776  -0.192062  0  1.399301  0
F  F99  1  0.88028927  0.30186938  0.83522914  1  0  -0.22518  0  1.181588  0  0  -0.189394  0  1.346427  0  0  -0.19865  0  1.330768  0  -0.622447  0  -0.099788  -0.182721  0  1.357531  0
F  F100  1  0.77010917  0.22614346  0.95282968  1  0  -0.241312  0  1.19363  0  0  -0.204259  0  1.364166  0  0  -0.214308  0  1.348508  0  -0.631162  0  -0.100926  -0.196984  0  1.375111  0
F  F101  1  0.67773672  0.34248672  0.82806731  1  0  -0.241258  0  1.192548  0  0  -0.206922  0  1.360974  0  0  -0.216134  0  1.345005  0  -0.624239  0  -0.105635  -0.200229  0  1.372205  0
