# generated using pymatgen
data_CuH17C22IN3O
_symmetry_space_group_name_H-M   'P 1'
_cell_length_a   12.58243833
_cell_length_b   13.47039360
_cell_length_c   17.76790931
_cell_angle_alpha   109.98216863
_cell_angle_beta   90.00572482
_cell_angle_gamma   117.83461024
_symmetry_Int_Tables_number   1
_chemical_formula_structural   CuH17C22IN3O
_chemical_formula_sum   'Cu4 H68 C88 I4 N12 O4'
_cell_volume   2456.11920410
_cell_formula_units_Z   4
loop_
 _symmetry_equiv_pos_site_id
 _symmetry_equiv_pos_as_xyz
  1  'x, y, z'
loop_
 _atom_site_type_symbol
 _atom_site_label
 _atom_site_symmetry_multiplicity
 _atom_site_fract_x
 _atom_site_fract_y
 _atom_site_fract_z
 _atom_site_occupancy
 _atom_site_pbe_bader_charge
 _atom_site_pbe_bader_spin_density
 _atom_site_pbe_cm5_charge
 _atom_site_pbe_ddec_charge
 _atom_site_pbe_ddec_spin_density
 _atom_site_pbe_ddec_sum_bond_order
 _atom_site_pbe_magmom
Cu  Cu0  1  0.45207772  0.99630759  0.93514445  1  0.513947  0  0.364963  0.212336  0  2.701932  0
Cu  Cu1  1  0.45574161  0.00358306  0.56478308  1  0.519647  0  0.364948  0.21239  0  2.70176  0
Cu  Cu2  1  0.54792183  0.00368876  0.06485871  1  0.514155  0  0.365  0.212344  0  2.701958  0
Cu  Cu3  1  0.54425978  0.99641695  0.43521823  1  0.519443  0  0.364989  0.212402  0  2.701834  0
H  H4  1  0.32922005  0.05536641  0.82994545  1  0.076637  0  0.109203  0.077258  0  0.999775  0
H  H5  1  0.27385050  0.94478928  0.67003947  1  0.086848  0  0.109152  0.076992  0  1.000019  0
H  H6  1  0.67077885  0.94463180  0.17005370  1  0.076577  0  0.109213  0.077268  0  0.999818  0
H  H7  1  0.72614999  0.05520894  0.32995855  1  0.086822  0  0.109147  0.076978  0  0.999998  0
H  H8  1  0.26106616  0.20541817  0.84790817  1  0.05941  0  0.103626  0.106357  0  1.011963  0
H  H9  1  0.05566873  0.79488998  0.65214007  1  0.059849  0  0.103487  0.10644  0  1.012066  0
H  H10  1  0.73893571  0.79458279  0.15208945  1  0.059499  0  0.103595  0.106311  0  1.012053  0
H  H11  1  0.94433257  0.20511461  0.34785963  1  0.059784  0  0.103493  0.106496  0  1.012063  0
H  H12  1  0.46686308  0.39590076  0.09502517  1  0.109098  0  0.10536  0.11161  0  1.039181  0
H  H13  1  0.07072236  0.60416172  0.40502161  1  0.084254  0  0.105598  0.111893  0  1.038847  0
H  H14  1  0.53313548  0.60409837  0.90497366  1  0.109061  0  0.10536  0.111611  0  1.039166  0
H  H15  1  0.92927563  0.39584105  0.59497818  1  0.083643  0  0.105588  0.111876  0  1.038888  0
H  H16  1  0.52801146  0.23630647  0.06619917  1  0.112217  0  0.109313  0.079929  0  1.019581  0
H  H17  1  0.29145213  0.76361840  0.43378635  1  0.112855  0  0.109136  0.08003  0  1.019731  0
H  H18  1  0.47198539  0.76369082  0.93380086  1  0.111987  0  0.109293  0.079892  0  1.019611  0
H  H19  1  0.70854450  0.23638164  0.56621328  1  0.112797  0  0.109141  0.080007  0  1.019761  0
H  H20  1  0.18534531  0.31244077  0.87871157  1  0.069106  0  0.100539  0.101589  0  1.045814  0
H  H21  1  0.87273871  0.68777355  0.62139302  1  0.068405  0  0.100502  0.101545  0  1.044894  0
H  H22  1  0.81465473  0.68755655  0.12128565  1  0.06917  0  0.100579  0.101624  0  1.045791  0
H  H23  1  0.12725883  0.31222830  0.37860765  1  0.06846  0  0.100493  0.101511  0  1.044914  0
H  H24  1  0.19838534  0.63216919  0.05419652  1  0.075213  0  0.102679  0.115926  0  1.036601  0
H  H25  1  0.56622406  0.36774937  0.44593796  1  0.081248  0  0.102724  0.115879  0  1.036332  0
H  H26  1  0.80161766  0.36783085  0.94580199  1  0.07518  0  0.102674  0.11592  0  1.036571  0
H  H27  1  0.43377586  0.63225247  0.55406327  1  0.081312  0  0.102721  0.11587  0  1.036391  0
H  H28  1  0.47093847  0.60051354  0.20978572  1  0.08856  0  0.103269  0.106383  0  1.035488  0
H  H29  1  0.87039268  0.39948067  0.29037584  1  0.09842  0  0.102962  0.105977  0  1.035725  0
H  H30  1  0.52906008  0.39948557  0.79021479  1  0.088588  0  0.103267  0.106374  0  1.035484  0
H  H31  1  0.12960657  0.60051664  0.70962251  1  0.098397  0  0.10297  0.105989  0  1.035722  0
H  H32  1  0.55406209  0.76741140  0.34984006  1  0.101503  0  0.097909  0.072783  0  1.046459  0
H  H33  1  0.78657481  0.23269007  0.15028046  1  0.081022  0  0.097677  0.072212  0  1.046651  0
H  H34  1  0.44593793  0.23258589  0.65016054  1  0.101527  0  0.097911  0.072778  0  1.046399  0
H  H35  1  0.21342057  0.76730905  0.84971949  1  0.081464  0  0.097657  0.07222  0  1.046654  0
H  H36  1  0.39439289  0.94406948  0.28928741  1  0.093373  0  0.099613  0.073939  0  1.042038  0
H  H37  1  0.45025985  0.05604470  0.21077243  1  0.094974  0  0.099708  0.074194  0  1.041795  0
H  H38  1  0.60560770  0.05593054  0.71071390  1  0.093361  0  0.0996  0.073923  0  1.042032  0
H  H39  1  0.54973903  0.94395348  0.78922953  1  0.095006  0  0.099709  0.074224  0  1.041777  0
H  H40  1  0.31422800  0.79337405  0.14660627  1  0.111486  0  0.091412  0.104466  0  1.060423  0
H  H41  1  0.52081738  0.20660437  0.35348956  1  0.08238  0  0.09151  0.104791  0  1.060452  0
H  H42  1  0.68577304  0.20662687  0.85339584  1  0.111566  0  0.091409  0.104466  0  1.06042  0
H  H43  1  0.47918005  0.79339567  0.64650950  1  0.082407  0  0.091474  0.104732  0  1.060437  0
H  H44  1  0.00880594  0.26291760  0.83102919  1  0.053868  0  0.10159  0.101686  0  1.002979  0
H  H45  1  0.74553668  0.73719857  0.66903110  1  0.060863  0  0.101358  0.10092  0  1.003474  0
H  H46  1  0.99119547  0.73708246  0.16896763  1  0.053827  0  0.101607  0.101692  0  1.003048  0
H  H47  1  0.25446290  0.26280418  0.33097037  1  0.060804  0  0.101322  0.100847  0  1.003466  0
H  H48  1  0.86288850  0.24672387  0.72817953  1  0.088174  0  0.108725  0.126513  0  0.994932  0
H  H49  1  0.61589241  0.75332554  0.77189242  1  0.083097  0  0.108487  0.126125  0  0.995333  0
H  H50  1  0.13711131  0.75327618  0.27181897  1  0.08821  0  0.108724  0.126517  0  0.994844  0
H  H51  1  0.38410910  0.24667629  0.22810937  1  0.083146  0  0.10852  0.126159  0  0.995308  0
H  H52  1  0.98104473  0.62805156  0.85473144  1  0.078021  0  0.104352  0.115712  0  1.012217  0
H  H53  1  0.35283049  0.37194430  0.64531236  1  0.069963  0  0.104403  0.115316  0  1.01226  0
H  H54  1  0.01895463  0.37194758  0.14526682  1  0.078009  0  0.104363  0.115736  0  1.012225  0
H  H55  1  0.64717148  0.62805846  0.35468854  1  0.069923  0  0.104431  0.115315  0  1.012242  0
H  H56  1  0.13161429  0.64696518  0.95280864  1  0.102414  0  0.086029  0.093242  0  1.065553  0
H  H57  1  0.48451969  0.35310303  0.54725954  1  0.103488  0  0.086257  0.093856  0  1.064691  0
H  H58  1  0.86838678  0.35303578  0.04718955  1  0.1024  0  0.086035  0.093257  0  1.065524  0
H  H59  1  0.51548148  0.64689973  0.45274136  1  0.103497  0  0.086273  0.093866  0  1.064735  0
H  H60  1  0.78236868  0.54921764  0.78945715  1  0.071697  0  0.099716  0.10355  0  0.997337  0
H  H61  1  0.23309760  0.45075427  0.71042966  1  0.060381  0  0.099372  0.103018  0  0.997915  0
H  H62  1  0.21763113  0.45078241  0.21054135  1  0.071677  0  0.099719  0.103545  0  0.997299  0
H  H63  1  0.76690550  0.54924758  0.28956988  1  0.060358  0  0.099405  0.10303  0  0.997879  0
H  H64  1  0.73825826  0.48193172  0.68058643  1  0.105584  0  0.103068  0.113498  0  1.024094  0
H  H65  1  0.25599338  0.51782685  0.81931838  1  0.083271  0  0.102969  0.113747  0  1.024054  0
H  H66  1  0.26174155  0.51806832  0.31941264  1  0.105491  0  0.103064  0.113477  0  1.024118  0
H  H67  1  0.74400643  0.48217317  0.18068237  1  0.083274  0  0.102958  0.113761  0  1.024044  0
H  H68  1  0.89509503  0.59297112  0.72722025  1  0.051281  0  0.094685  0.091103  0  1.000365  0
H  H69  1  0.30198221  0.40689882  0.77268265  1  0.040253  0  0.094495  0.090953  0  1.00062  0
H  H70  1  0.10490512  0.40702800  0.27277857  1  0.051287  0  0.094688  0.091104  0  1.00037  0
H  H71  1  0.69801998  0.59310121  0.22731753  1  0.040194  0  0.094476  0.09095  0  1.000688  0
C  C72  1  0.35751884  0.13228234  0.88811128  1  0.456049  0  0.035149  0.083131  0  3.973266  0
C  C73  1  0.22518557  0.86786448  0.61188467  1  0.474462  0  0.035494  0.083422  0  3.975142  0
C  C74  1  0.64248120  0.86771496  0.11188819  1  0.456111  0  0.035126  0.083092  0  3.973412  0
C  C75  1  0.77481390  0.13213647  0.38811464  1  0.474483  0  0.035497  0.083449  0  3.975113  0
C  C76  1  0.31923796  0.21669350  0.89903646  1  -0.029042  0  -0.088433  -0.172445  0  3.971459  0
C  C77  1  0.10250696  0.78351328  0.60099610  1  -0.08121  0  -0.088248  -0.172349  0  3.973951  0
C  C78  1  0.68076265  0.78330654  0.10096260  1  -0.028968  0  -0.088407  -0.172369  0  3.971499  0
C  C79  1  0.89749387  0.21649039  0.39900449  1  -0.081111  0  -0.088208  -0.172372  0  3.97388  0
C  C80  1  0.35619665  0.31379987  0.97490877  1  -0.012032  0  0.010285  0.084431  0  3.954658  0
C  C81  1  0.04225560  0.68635150  0.52515230  1  0.02987  0  0.009363  0.083549  0  3.956505  0
C  C82  1  0.64380350  0.68619927  0.02508950  1  -0.012028  0  0.010312  0.084394  0  3.954581  0
C  C83  1  0.95774557  0.31365127  0.47484804  1  0.029872  0  0.009313  0.083613  0  3.956544  0
C  C84  1  0.43464460  0.32163041  0.03551657  1  0.000259  0  -0.082152  -0.151722  0  3.927412  0
C  C85  1  0.11280880  0.67845161  0.46452218  1  -0.017927  0  -0.081984  -0.151152  0  3.927543  0
C  C86  1  0.56535601  0.67836964  0.96448137  1  0.000206  0  -0.082153  -0.151696  0  3.927337  0
C  C87  1  0.88719113  0.32155025  0.53547736  1  -0.017292  0  -0.08198  -0.1512  0  3.927685  0
C  C88  1  0.46900072  0.23363785  0.01967788  1  0.469586  0  0.039634  0.093302  0  3.929619  0
C  C89  1  0.23515718  0.76639087  0.48032361  1  0.496737  0  0.039893  0.09246  0  3.931277  0
C  C90  1  0.53099453  0.76635943  0.98032327  1  0.469874  0  0.039616  0.093279  0  3.92961  0
C  C91  1  0.76484116  0.23361100  0.51967537  1  0.49679  0  0.03987  0.0925  0  3.931262  0
C  C92  1  0.31321639  0.40332734  0.99293788  1  0.57258  0  0.116549  0.206401  0  4.033607  0
C  C93  1  0.90978539  0.59673714  0.50723435  1  0.556671  0  0.117237  0.207128  0  4.032152  0
C  C94  1  0.68678172  0.59667088  0.00706070  1  0.572539  0  0.116574  0.206469  0  4.033564  0
C  C95  1  0.09021543  0.40326651  0.49276791  1  0.556682  0  0.117152  0.206844  0  4.03236  0
C  C96  1  0.22250296  0.38844030  0.93761653  1  -0.08806  0  -0.087453  -0.222598  0  3.923198  0
C  C97  1  0.83392132  0.61170825  0.56250222  1  -0.128332  0  -0.087739  -0.222978  0  3.922183  0
C  C98  1  0.77749595  0.61155792  0.06238150  1  -0.088061  0  -0.087464  -0.222618  0  3.923213  0
C  C99  1  0.16607827  0.38829450  0.43749868  1  -0.128366  0  -0.087702  -0.222838  0  3.922089  0
C  C100  1  0.17852732  0.47077652  0.95775056  1  -0.030943  0  0.005451  0.116878  0  4.01481  0
C  C101  1  0.70762549  0.52928616  0.54235485  1  0.014348  0  0.005608  0.116759  0  4.01411  0
C  C102  1  0.82147249  0.52922352  0.04224907  1  -0.030913  0  0.005499  0.116921  0  4.014741  0
C  C103  1  0.29237330  0.47071661  0.45764549  1  0.014382  0  0.005561  0.116713  0  4.014224  0
C  C104  1  0.23150585  0.56764667  0.03412778  1  0.030662  0  -0.08038  -0.201696  0  3.883754  0
C  C105  1  0.66384925  0.43230366  0.46602186  1  0.012699  0  -0.080031  -0.200783  0  3.882327  0
C  C106  1  0.76849680  0.43235428  0.96587096  1  0.030675  0  -0.080356  -0.201631  0  3.88371  0
C  C107  1  0.33615101  0.56769728  0.53397857  1  0.012587  0  -0.08  -0.200795  0  3.882541  0
C  C108  1  0.32463885  0.57891038  0.08545967  1  0.526816  0  0.117205  0.203482  0  4.021325  0
C  C109  1  0.74575209  0.42102207  0.41473415  1  0.515409  0  0.11608  0.202292  0  4.023519  0
C  C110  1  0.67536335  0.42108965  0.91453996  1  0.526881  0  0.11717  0.203405  0  4.021389  0
C  C111  1  0.25424772  0.57897796  0.58526547  1  0.515478  0  0.116026  0.202324  0  4.02353  0
C  C112  1  0.38172360  0.67976533  0.16648364  1  -0.032173  0  0.006554  0.07324  0  3.95746  0
C  C113  1  0.70197934  0.32017467  0.33369350  1  -0.011722  0  0.006614  0.074343  0  3.957218  0
C  C114  1  0.61827824  0.32023559  0.83351791  1  -0.032194  0  0.006445  0.073132  0  3.957549  0
C  C115  1  0.29801956  0.67982355  0.66630453  1  -0.011626  0  0.006634  0.074285  0  3.957321  0
C  C116  1  0.45382540  0.67656895  0.22504072  1  -0.03417  0  -0.086555  -0.164034  0  3.968811  0
C  C117  1  0.77724526  0.32342115  0.27513054  1  -0.01563  0  -0.086103  -0.164077  0  3.969263  0
C  C118  1  0.54617395  0.32343016  0.77495979  1  -0.034244  0  -0.086534  -0.16397  0  3.968711  0
C  C119  1  0.22275444  0.67657707  0.72486749  1  -0.015715  0  -0.086125  -0.164125  0  3.96925  0
C  C120  1  0.49983596  0.76836460  0.30239914  1  0.459053  0  0.027509  0.070655  0  3.951595  0
C  C121  1  0.73142035  0.23170436  0.19773715  1  0.475402  0  0.028302  0.072245  0  3.950601  0
C  C122  1  0.50016452  0.23163360  0.69760169  1  0.459174  0  0.027521  0.070668  0  3.951439  0
C  C123  1  0.26857752  0.76829658  0.80226384  1  0.475078  0  0.028372  0.072386  0  3.950491  0
C  C124  1  0.41123393  0.86747711  0.26834508  1  0.454784  0  0.030429  0.076369  0  3.948606  0
C  C125  1  0.54370803  0.13258418  0.23174353  1  0.445938  0  0.030867  0.077064  0  3.947168  0
C  C126  1  0.58876871  0.13252381  0.73165647  1  0.454821  0  0.030445  0.07645  0  3.948465  0
C  C127  1  0.45628972  0.86741491  0.76825811  1  0.446108  0  0.030853  0.077004  0  3.947099  0
C  C128  1  0.36377055  0.78050328  0.18942512  1  -0.045251  0  -0.085525  -0.157057  0  3.950156  0
C  C129  1  0.58325994  0.21948239  0.31069904  1  -0.030674  0  -0.086639  -0.15882  0  3.950221  0
C  C130  1  0.63623255  0.21949856  0.81057611  1  -0.045402  0  -0.085459  -0.15705  0  3.950139  0
C  C131  1  0.41673816  0.78051581  0.68930123  1  -0.030773  0  -0.086574  -0.158631  0  3.950107  0
C  C132  1  0.08338431  0.45689212  0.90021243  1  -0.013651  0  -0.024029  0.023151  0  4.016043  0
C  C133  1  0.62629078  0.54320236  0.59983384  1  0.002865  0  -0.023661  0.023039  0  4.015746  0
C  C134  1  0.91661915  0.54310884  0.09978519  1  -0.014209  0  -0.023994  0.023249  0  4.016059  0
C  C135  1  0.37371038  0.45680037  0.40016931  1  0.002866  0  -0.023599  0.023051  0  4.015611  0
C  C136  1  0.00570621  0.34436399  0.83569663  1  -0.037147  0  -0.088881  -0.106533  0  3.997975  0
C  C137  1  0.66102468  0.65572686  0.66434438  1  -0.098631  0  -0.088944  -0.105252  0  3.997488  0
C  C138  1  0.99429645  0.65563699  0.16429987  1  -0.037016  0  -0.088963  -0.106645  0  3.998122  0
C  C139  1  0.33897694  0.34427679  0.33565845  1  -0.098326  0  -0.088958  -0.105241  0  3.997352  0
C  C140  1  0.92266811  0.33365708  0.77796705  1  -0.06678  0  -0.10211  -0.19682  0  3.996911  0
C  C141  1  0.58871461  0.66640509  0.72208407  1  0.005214  0  -0.10186  -0.19668  0  3.997674  0
C  C142  1  0.07733205  0.66634206  0.22203009  1  -0.066903  0  -0.102079  -0.196769  0  3.99681  0
C  C143  1  0.41128610  0.33359674  0.27791772  1  0.00502  0  -0.101877  -0.196659  0  3.99763  0
C  C144  1  0.91305038  0.43585821  0.78396998  1  0.446197  0  0.086699  0.256371  0  4.062558  0
C  C145  1  0.47695021  0.56417325  0.71608346  1  0.452789  0  0.087015  0.256791  0  4.061147  0
C  C146  1  0.08694943  0.56414183  0.21602852  1  0.446217  0  0.086728  0.256399  0  4.062473  0
C  C147  1  0.52305288  0.43582858  0.28391889  1  0.452814  0  0.087053  0.256756  0  4.061112  0
C  C148  1  0.98727103  0.54778970  0.84847956  1  -0.041216  0  -0.110836  -0.219345  0  4.01372  0
C  C149  1  0.43928773  0.45224509  0.65155915  1  -0.014326  0  -0.110559  -0.218618  0  4.012226  0
C  C150  1  0.01272992  0.45220943  0.15151871  1  -0.040762  0  -0.110855  -0.21937  0  4.013704  0
C  C151  1  0.56071502  0.54775766  0.34844288  1  -0.014356  0  -0.110584  -0.218544  0  4.012122  0
C  C152  1  0.07149233  0.55742649  0.90527424  1  -0.043329  0  -0.087394  -0.090872  0  3.977051  0
C  C153  1  0.51391109  0.44265200  0.59478150  1  -0.059559  0  -0.088097  -0.092344  0  3.976918  0
C  C154  1  0.92850748  0.44257355  0.09472482  1  -0.043255  0  -0.087428  -0.090948  0  3.97708  0
C  C155  1  0.48609008  0.55735075  0.40521997  1  -0.059573  0  -0.088109  -0.092364  0  3.976932  0
C  C156  1  0.81115765  0.51718452  0.73178812  1  0.328455  0  -0.140908  -0.177578  0  3.907069  0
C  C157  1  0.29376095  0.48269171  0.76815601  1  0.377717  0  -0.140002  -0.177198  0  3.90568  0
C  C158  1  0.18884217  0.48281552  0.26821095  1  0.328569  0  -0.140935  -0.177574  0  3.907038  0
C  C159  1  0.70624010  0.51730922  0.23184498  1  0.377765  0  -0.139992  -0.177233  0  3.905752  0
I  I160  1  0.69339397  0.08544921  0.96442804  1  -0.515703  0  -0.273154  -0.456999  0  1.622215  0
I  I161  1  0.60798112  0.91454015  0.53564781  1  -0.517908  0  -0.273126  -0.457104  0  1.622092  0
I  I162  1  0.30660683  0.91454167  0.03557424  1  -0.515713  0  -0.273148  -0.457021  0  1.622269  0
I  I163  1  0.39202380  0.08546534  0.46435382  1  -0.517942  0  -0.273134  -0.457127  0  1.622089  0
N  N164  1  0.43002912  0.13850966  0.94730122  1  -1.217631  0  -0.364018  -0.189461  0  3.660502  0
N  N165  1  0.29141941  0.86152262  0.55268745  1  -1.222457  0  -0.364159  -0.189236  0  3.661232  0
N  N166  1  0.56996977  0.86148854  0.05269961  1  -1.217771  0  -0.364012  -0.189414  0  3.660475  0
N  N167  1  0.70857698  0.13847377  0.44731122  1  -1.222467  0  -0.364152  -0.189256  0  3.661218  0
N  N168  1  0.47779519  0.86267956  0.32528985  1  -1.230433  0  -0.368808  -0.192645  0  3.664064  0
N  N169  1  0.61506843  0.13741045  0.17480044  1  -1.231566  0  -0.368921  -0.193233  0  3.662175  0
N  N170  1  0.52220324  0.13731771  0.67471187  1  -1.230428  0  -0.368828  -0.192709  0  3.664019  0
N  N171  1  0.38492944  0.86259047  0.82520168  1  -1.231783  0  -0.36895  -0.193418  0  3.66232  0
N  N172  1  0.36365375  0.49734859  0.06566538  1  -1.197983  0  -0.311466  -0.340536  0  3.30079  0
N  N173  1  0.86629461  0.50262380  0.43454789  1  -1.21415  0  -0.310984  -0.340537  0  3.301947  0
N  N174  1  0.63634549  0.50264871  0.93433353  1  -1.198121  0  -0.311489  -0.340565  0  3.300719  0
N  N175  1  0.13370497  0.49737894  0.56545470  1  -1.214367  0  -0.310903  -0.34037  0  3.301919  0
O  O176  1  0.82911779  0.41733119  0.72491721  1  -1.071695  0  -0.179492  -0.15498  0  2.587375  0
O  O177  1  0.41156877  0.58263913  0.77516222  1  -1.086012  0  -0.180128  -0.154973  0  2.585346  0
O  O178  1  0.17088077  0.58266793  0.27508218  1  -1.071667  0  -0.179478  -0.154977  0  2.587248  0
O  O179  1  0.58843319  0.41736361  0.22483981  1  -1.085968  0  -0.180161  -0.154958  0  2.585505  0
