# generated using pymatgen
data_Al4H15C37NO22
_symmetry_space_group_name_H-M   'P 1'
_cell_length_a   6.67485270
_cell_length_b   16.82589410
_cell_length_c   18.33052834
_cell_angle_alpha   106.65233808
_cell_angle_beta   90.44659845
_cell_angle_gamma   90.52035003
_symmetry_Int_Tables_number   1
_chemical_formula_structural   Al4H15C37NO22
_chemical_formula_sum   'Al4 H15 C37 N1 O22'
_cell_volume   1972.17108980
_cell_formula_units_Z   1
loop_
 _symmetry_equiv_pos_site_id
 _symmetry_equiv_pos_as_xyz
  1  'x, y, z'
loop_
 _atom_site_type_symbol
 _atom_site_label
 _atom_site_symmetry_multiplicity
 _atom_site_fract_x
 _atom_site_fract_y
 _atom_site_fract_z
 _atom_site_occupancy
 _atom_site_pbe_bader_charge
 _atom_site_pbe_bader_spin_density
 _atom_site_pbe_cm5_charge
 _atom_site_pbe_ddec_charge
 _atom_site_pbe_ddec_spin_density
 _atom_site_pbe_ddec_sum_bond_order
 _atom_site_pbe_magmom
Al  Al0  1  0.14217540  0.50016198  0.49816587  1  2.499963  0  0.403212  1.640012  0  2.58025  0
Al  Al1  1  0.64266397  0.50081324  0.49813253  1  2.500456  0  0.402585  1.639352  0  2.585163  0
Al  Al2  1  0.63151930  0.00055437  0.00048736  1  2.503458  0  0.401773  1.646975  0  2.579569  0
Al  Al3  1  0.13026124  0.00032951  0.99967537  1  2.50211  0  0.402022  1.647438  0  2.583209  0
H  H4  1  0.75580638  0.79142916  0.63999969  1  0.090131  0  0.104483  0.091952  0  0.984152  0
H  H5  1  0.53692065  0.79775483  0.77404146  1  0.055392  0  0.100904  0.103381  0  1.00189  0
H  H6  1  0.01738810  0.71069155  0.85873699  1  0.064452  0  0.102186  0.100256  0  0.988467  0
H  H7  1  0.23436480  0.70509928  0.72422815  1  0.090493  0  0.099123  0.088923  0  1.007982  0
H  H8  1  0.08971735  0.86695635  0.73327852  1  0.057204  0  0.104327  0.092579  0  0.983799  0
H  H9  1  0.48381176  0.12396691  0.28157324  1  0.073488  0  0.109891  0.100038  0  0.978012  0
H  H10  1  0.72002202  0.27223319  0.30856465  1  0.08844  0  0.112671  0.110914  0  0.977687  0
H  H11  1  0.05321967  0.22808538  0.18879010  1  0.113266  0  0.105782  0.115765  0  1.014668  0
H  H12  1  0.14328475  0.22436857  0.34047530  1  0.062129  0  0.105075  0.093952  0  0.984887  0
H  H13  1  0.15047724  0.37641129  0.17991938  1  0.626441  0  0.333564  0.373651  0  0.888629  0
H  H14  1  0.60516515  0.62935827  0.81269329  1  0.598485  0  0.332421  0.359959  0  0.886659  0
H  H15  1  0.39545542  0.60337199  0.54800068  1  0.623894  0  0.354025  0.431189  0  0.855216  0
H  H16  1  0.88987013  0.40738262  0.51959040  1  0.639272  0  0.353802  0.432834  0  0.853662  0
H  H17  1  0.37814425  0.89327762  0.96185870  1  0.647002  0  0.355806  0.433874  0  0.848523  0
H  H18  1  0.88290538  0.10915231  0.01452329  1  0.623778  0  0.359135  0.443466  0  0.837242  0
C  C19  1  0.38718892  0.38644765  0.38382635  1  1.583565  0  0.273015  0.661825  0  4.095467  0
C  C20  1  0.39335428  0.41416723  0.58562784  1  1.683888  0  0.271825  0.697462  0  4.18857  0
C  C21  1  0.89744744  0.61640095  0.61403131  1  1.580674  0  0.270738  0.666908  0  4.079945  0
C  C22  1  0.89259989  0.58232050  0.40990827  1  1.736003  0  0.279105  0.693545  0  4.190748  0
C  C23  1  0.89314921  0.63249940  0.35804802  1  0.102123  0  0.007857  -0.123056  0  3.814074  0
C  C24  1  0.89119582  0.67734946  0.31581782  1  -0.16854  0  -0.006075  0.025712  0  4.252045  0
C  C25  1  0.88863878  0.72669953  0.26993865  1  -0.113725  0  0.002882  0.002834  0  4.189784  0
C  C26  1  0.88586784  0.77243840  0.22800981  1  0.049919  0  -0.001484  -0.006464  0  4.192874  0
C  C27  1  0.88351494  0.82166252  0.18200672  1  -0.298813  0  -0.01015  0.026362  0  4.265753  0
C  C28  1  0.88179808  0.86637205  0.13960837  1  0.197011  0  -0.003851  -0.141918  0  3.836894  0
C  C29  1  0.69122508  0.77666642  0.76267750  1  -0.04895  0  -0.089456  -0.162604  0  3.65372  0
C  C30  1  0.81342320  0.77470895  0.68958376  1  -0.052795  0  -0.067813  -0.046346  0  3.629673  0
C  C31  1  0.89659498  0.68578613  0.68529512  1  0.000863  0  -0.007585  -0.097651  0  3.635172  0
C  C32  1  0.77285079  0.68786599  0.75871527  1  0.587962  0  0.087774  0.292914  0  3.738244  0
C  C33  1  0.96008989  0.72791798  0.80927854  1  -0.047052  0  -0.079729  -0.148264  0  3.625797  0
C  C34  1  0.08039873  0.72635661  0.73584513  1  -0.050384  0  -0.079157  -0.061331  0  3.66255  0
C  C35  1  0.00009327  0.81463857  0.73958500  1  -0.007656  0  -0.069218  -0.058447  0  3.618399  0
C  C36  1  0.87608147  0.81653439  0.81286025  1  0.006042  0  -0.007911  -0.029672  0  3.676323  0
C  C37  1  0.57092320  0.26111947  0.28233558  1  -0.000628  0  -0.061923  -0.065622  0  3.634026  0
C  C38  1  0.43949822  0.18071783  0.26837035  1  -0.01374  0  -0.0624  -0.056582  0  3.604769  0
C  C39  1  0.38562580  0.18490050  0.18540840  1  0.024316  0  0.009015  -0.028701  0  3.640413  0
C  C40  1  0.52412509  0.26497099  0.19910566  1  0.085166  0  0.011157  -0.030118  0  3.737829  0
C  C41  1  0.32733822  0.31914462  0.23048476  1  0.65114  0  0.112705  0.297484  0  3.705394  0
C  C42  1  0.19974776  0.23821486  0.21704491  1  -0.047928  0  -0.083604  -0.15865  0  3.674156  0
C  C43  1  0.25110060  0.23474853  0.29944096  1  -0.011879  0  -0.069006  -0.049422  0  3.629372  0
C  C44  1  0.38601441  0.31507918  0.31399910  1  -0.003069  0  -0.005386  -0.103061  0  3.642673  0
C  C45  1  0.39316308  0.36426797  0.63772948  1  0.054079  0  -0.00256  -0.137349  0  3.830504  0
C  C46  1  0.39139590  0.32009005  0.68060259  1  -0.152587  0  -0.009868  0.025216  0  4.260718  0
C  C47  1  0.38932299  0.27173795  0.72740099  1  0.051508  0  0.000309  -0.002594  0  4.190187  0
C  C48  1  0.38719347  0.22715714  0.77038036  1  -0.111513  0  0.001409  -0.000444  0  4.188716  0
C  C49  1  0.38492558  0.17907622  0.81741487  1  -0.166671  0  -0.007136  0.027154  0  4.255075  0
C  C50  1  0.38276209  0.13533757  0.86066263  1  0.103859  0  0.001888  -0.130228  0  3.822364  0
C  C51  1  0.38155395  0.08600234  0.91327731  1  1.712071  0  0.272474  0.692612  0  4.193582  0
C  C52  1  0.38557143  0.11412314  0.11496546  1  1.581372  0  0.273185  0.647726  0  4.101801  0
C  C53  1  0.88073355  0.91626299  0.08751231  1  1.693693  0  0.271978  0.693847  0  4.197466  0
C  C54  1  0.87601105  0.88571105  0.88420631  1  1.565587  0  0.270066  0.65297  0  4.091833  0
C  C55  1  0.67486639  0.27999979  0.15034023  1  0.836769  0  0.183066  0.264469  0  4.020944  0
N  N56  1  0.80723791  0.29413734  0.11418384  1  -1.171336  0  -0.327102  -0.406461  0  2.727884  0
O  O57  1  0.56438654  0.43331576  0.56489964  1  -1.218675  0  -0.226205  -0.580661  0  2.283932  0
O  O58  1  0.21774087  0.41323259  0.41089418  1  -1.256625  0  -0.231764  -0.584219  0  2.321669  0
O  O59  1  0.06269964  0.56385775  0.43165290  1  -1.230305  0  -0.218344  -0.562078  0  2.291231  0
O  O60  1  0.22182585  0.43288289  0.56477785  1  -1.226444  0  -0.228807  -0.58479  0  2.284244  0
O  O61  1  0.06724270  0.58916687  0.58698632  1  -1.258048  0  -0.238091  -0.603475  0  2.316087  0
O  O62  1  0.55795197  0.41416628  0.41140071  1  -1.253303  0  -0.229069  -0.581657  0  2.330165  0
O  O63  1  0.39341695  0.55031577  0.50900713  1  -1.426045  0  -0.446131  -0.988691  0  2.187045  0
O  O64  1  0.72607400  0.59108407  0.58463705  1  -1.26897  0  -0.239004  -0.604562  0  2.322424  0
O  O65  1  0.72162437  0.56263832  0.42985045  1  -1.220329  0  -0.218211  -0.561165  0  2.289485  0
O  O66  1  0.89100441  0.45079622  0.49431204  1  -1.440983  0  -0.44777  -0.993447  0  2.189704  0
O  O67  1  0.21499488  0.08664304  0.08724185  1  -1.254597  0  -0.226487  -0.576477  0  2.334173  0
O  O68  1  0.55241956  0.06686540  0.93413185  1  -1.227782  0  -0.225777  -0.576488  0  2.287388  0
O  O69  1  0.70718333  0.91152300  0.91314549  1  -1.259025  0  -0.236593  -0.599633  0  2.325726  0
O  O70  1  0.55545224  0.08771125  0.08811303  1  -1.256739  0  -0.231189  -0.588799  0  2.337034  0
O  O71  1  0.70948492  0.93565548  0.06732346  1  -1.224423  0  -0.225844  -0.573298  0  2.2892  0
O  O72  1  0.21003886  0.06748709  0.93404859  1  -1.22623  0  -0.226255  -0.576705  0  2.28357  0
O  O73  1  0.37970349  0.95112913  0.99138177  1  -1.449828  0  -0.447441  -0.996823  0  2.205237  0
O  O74  1  0.05115161  0.93475733  0.06593984  1  -1.227637  0  -0.224835  -0.572265  0  2.290533  0
O  O75  1  0.04781442  0.91268739  0.91206409  1  -1.265022  0  -0.239447  -0.605621  0  2.327752  0
O  O76  1  0.88209813  0.04972795  0.00716817  1  -1.422396  0  -0.446683  -1.002266  0  2.205161  0
O  O77  1  0.26969892  0.38920932  0.21272394  1  -1.138304  0  -0.361651  -0.466656  0  2.22638  0
O  O78  1  0.66384291  0.61857749  0.76229841  1  -1.128492  0  -0.376217  -0.490791  0  2.230788  0
