# generated using pymatgen
data_MgAgH18C18(NO2)3
_symmetry_space_group_name_H-M   'P 1'
_cell_length_a   10.75055060
_cell_length_b   11.41287056
_cell_length_c   14.21878942
_cell_angle_alpha   98.60684260
_cell_angle_beta   107.11164560
_cell_angle_gamma   113.79441279
_symmetry_Int_Tables_number   1
_chemical_formula_structural   MgAgH18C18(NO2)3
_chemical_formula_sum   'Mg2 Ag2 H36 C36 N6 O12'
_cell_volume   1452.00379122
_cell_formula_units_Z   2
loop_
 _symmetry_equiv_pos_site_id
 _symmetry_equiv_pos_as_xyz
  1  'x, y, z'
loop_
 _atom_site_type_symbol
 _atom_site_label
 _atom_site_symmetry_multiplicity
 _atom_site_fract_x
 _atom_site_fract_y
 _atom_site_fract_z
 _atom_site_occupancy
 _atom_site_hle17_bader_spin_density
 _atom_site_hle17_ddec_charge
 _atom_site_hle17_ddec_spin_density
 _atom_site_hle17_ddec_sum_bond_order
 _atom_site_hle17_magmom
 _atom_site_hse06_10hf_bader_spin_density
 _atom_site_hse06_10hf_ddec_charge
 _atom_site_hse06_10hf_ddec_spin_density
 _atom_site_hse06_10hf_ddec_sum_bond_order
 _atom_site_hse06_10hf_magmom
 _atom_site_hse06_bader_spin_density
 _atom_site_hse06_ddec_charge
 _atom_site_hse06_ddec_spin_density
 _atom_site_hse06_ddec_sum_bond_order
 _atom_site_hse06_magmom
 _atom_site_pbe_bader_spin_density
 _atom_site_pbe_cm5_charge
 _atom_site_pbe_ddec_charge
 _atom_site_pbe_ddec_spin_density
 _atom_site_pbe_ddec_sum_bond_order
 _atom_site_pbe_magmom
Mg  Mg0  1  0.24632053  0.56640664  0.32365197  1  0  1.458878  0  1.204692  0  0  1.343798  0  1.474019  0  0  1.371109  0  1.43208  0  0  0.834269  1.324606  0  1.503437  0
Mg  Mg1  1  0.75367742  0.43359173  0.67634846  1  0  1.45887  0  1.204661  0  0  1.343765  0  1.474067  0  0  1.371048  0  1.432147  0  0  0.834247  1.324573  0  1.503477  0
Ag  Ag2  1  0.54732099  0.86961832  0.94443625  1  0  0.651361  0  1.619123  0  0  0.534893  0  2.100646  0  0  0.553061  0  2.054339  0  0  0.549174  0.523189  0  2.13234  0
Ag  Ag3  1  0.45267801  0.13038204  0.05556888  1  0  0.651412  0  1.619063  0  0  0.534953  0  2.100575  0  0  0.553128  0  2.054259  0  0  0.549203  0.523245  0  2.132272  0
H  H4  1  0.67631318  0.68303658  0.58203661  1  0  0.146658  0  0.932145  0  0  0.163502  0  0.991425  0  0  0.167199  0  0.988833  0  0  0.102569  0.160549  0  0.993931  0
H  H5  1  0.32368858  0.31697086  0.41796578  1  0  0.146637  0  0.932138  0  0  0.163495  0  0.991416  0  0  0.167185  0  0.98883  0  0  0.102565  0.16054  0  0.993921  0
H  H6  1  0.60567408  0.63816643  0.67680137  1  0  0.149571  0  0.948328  0  0  0.166932  0  1.010955  0  0  0.170001  0  1.009447  0  0  0.104839  0.164699  0  1.01207  0
H  H7  1  0.39432813  0.36183999  0.32319888  1  0  0.14956  0  0.948307  0  0  0.166948  0  1.010907  0  0  0.170005  0  1.009408  0  0  0.104875  0.164723  0  1.012018  0
H  H8  1  0.66554107  0.80482564  0.67087911  1  0  0.121395  0  0.931072  0  0  0.143984  0  0.986312  0  0  0.145269  0  0.986625  0  0  0.097039  0.143167  0  0.985939  0
H  H9  1  0.33446070  0.19518179  0.32912398  1  0  0.121339  0  0.931209  0  0  0.14395  0  0.986435  0  0  0.145234  0  0.986748  0  0  0.097018  0.143134  0  0.986059  0
H  H10  1  0.03390049  0.69887156  0.51773956  1  0  0.141458  0  0.918107  0  0  0.162899  0  0.969749  0  0  0.165863  0  0.968248  0  0  0.104264  0.160505  0  0.971346  0
H  H11  1  0.96609875  0.30113289  0.48225487  1  0  0.14151  0  0.918128  0  0  0.162971  0  0.969748  0  0  0.165948  0  0.96823  0  0  0.104283  0.160574  0  0.971348  0
H  H12  1  0.18425996  0.77442415  0.64241580  1  0  0.117055  0  0.965075  0  0  0.139103  0  1.025063  0  0  0.140082  0  1.026191  0  0  0.093331  0.138473  0  1.024152  0
H  H13  1  0.81573786  0.22558131  0.35758124  1  0  0.11704  0  0.965097  0  0  0.139101  0  1.025063  0  0  0.140087  0  1.026186  0  0  0.093357  0.138471  0  1.024156  0
H  H14  1  0.06417028  0.59922305  0.59786897  1  0  0.150242  0  0.931687  0  0  0.169179  0  0.990934  0  0  0.171766  0  0.990517  0  0  0.106957  0.167289  0  0.991293  0
H  H15  1  0.93582560  0.40078242  0.40212834  1  0  0.150256  0  0.931681  0  0  0.169195  0  0.99093  0  0  0.171782  0  0.990519  0  0  0.10697  0.167303  0  0.991294  0
H  H16  1  0.99222466  0.07972384  0.19179698  1  0  0.138212  0  0.913979  0  0  0.163339  0  0.963283  0  0  0.165358  0  0.962845  0  0  0.108062  0.161821  0  0.963749  0
H  H17  1  0.00777512  0.92027249  0.80820503  1  0  0.138199  0  0.913941  0  0  0.163346  0  0.963237  0  0  0.165367  0  0.962797  0  0  0.108058  0.161828  0  0.963703  0
H  H18  1  0.83868683  0.07210213  0.21707771  1  0  0.126229  0  0.95906  0  0  0.145718  0  1.021109  0  0  0.147469  0  1.021117  0  0  0.094906  0.144394  0  1.021201  0
H  H19  1  0.16131200  0.92789421  0.78292197  1  0  0.126244  0  0.959116  0  0  0.145734  0  1.021165  0  0  0.147485  0  1.021174  0  0  0.094903  0.144409  0  1.021256  0
H  H20  1  0.01430433  0.13487536  0.32245365  1  0  0.139239  0  0.926379  0  0  0.161092  0  0.978069  0  0  0.163759  0  0.976887  0  0  0.105043  0.159035  0  0.9792  0
H  H21  1  0.98569343  0.86511897  0.67754626  1  0  0.13922  0  0.926382  0  0  0.16112  0  0.978022  0  0  0.163773  0  0.976859  0  0  0.10505  0.159063  0  0.979154  0
H  H22  1  0.88136944  0.53994614  0.04868976  1  0  0.139122  0  0.922948  0  0  0.16129  0  0.973497  0  0  0.164099  0  0.972188  0  0  0.102945  0.159165  0  0.974661  0
H  H23  1  0.11863078  0.46004917  0.95131223  1  0  0.139051  0  0.92301  0  0  0.161231  0  0.973546  0  0  0.164039  0  0.97224  0  0  0.102918  0.159108  0  0.974709  0
H  H24  1  0.73337014  0.38773088  0.04432500  1  0  0.121264  0  0.955542  0  0  0.139446  0  1.022486  0  0  0.141373  0  1.022199  0  0  0.094631  0.138068  0  1.022718  0
H  H25  1  0.26663653  0.61226741  0.95567668  1  0  0.121244  0  0.955496  0  0  0.139411  0  1.022466  0  0  0.141345  0  1.022173  0  0  0.094602  0.138031  0  1.0227  0
H  H26  1  0.83980650  0.37963290  0.97197789  1  0  0.140855  0  0.927399  0  0  0.161529  0  0.984065  0  0  0.163613  0  0.984285  0  0  0.10382  0.160068  0  0.983883  0
H  H27  1  0.16019093  0.62036446  0.02802090  1  0  0.140845  0  0.927429  0  0  0.161508  0  0.984111  0  0  0.163591  0  0.984332  0  0  0.103813  0.160046  0  0.983927  0
H  H28  1  0.43587340  0.38695920  0.13467904  1  0  0.133567  0  0.956116  0  0  0.149343  0  1.024147  0  0  0.152993  0  1.020915  0  0  0.094539  0.146594  0  1.026714  0
H  H29  1  0.56414046  0.61304713  0.86532030  1  0  0.133575  0  0.956195  0  0  0.149358  0  1.024214  0  0  0.152991  0  1.020999  0  0  0.09454  0.146608  0  1.02678  0
H  H30  1  0.57172145  0.53731234  0.12698691  1  0  0.128221  0  0.936034  0  0  0.150644  0  0.989201  0  0  0.152565  0  0.988925  0  0  0.098284  0.149263  0  0.989458  0
H  H31  1  0.42828552  0.46270312  0.87302043  1  0  0.128176  0  0.936092  0  0  0.15061  0  0.989252  0  0  0.15253  0  0.988977  0  0  0.098303  0.149228  0  0.98951  0
H  H32  1  0.38680240  0.45803641  0.03570460  1  0  0.129292  0  0.940025  0  0  0.151817  0  0.997448  0  0  0.153338  0  0.99777  0  0  0.100589  0.150796  0  0.997126  0
H  H33  1  0.61320758  0.54196995  0.96429528  1  0  0.129278  0  0.940085  0  0  0.151784  0  0.997527  0  0  0.153307  0  0.997846  0  0  0.100583  0.150762  0  0.997208  0
H  H34  1  0.45265930  0.94655380  0.18779308  1  0  0.128662  0  0.960043  0  0  0.14471  0  1.030697  0  0  0.147252  0  1.029481  0  0  0.093712  0.14294  0  1.031607  0
H  H35  1  0.54734528  0.05345159  0.81220899  1  0  0.12869  0  0.960001  0  0  0.144766  0  1.030634  0  0  0.147308  0  1.029417  0  0  0.093724  0.142992  0  1.031549  0
H  H36  1  0.62316268  0.98123097  0.28163186  1  0  0.124814  0  0.940692  0  0  0.146417  0  0.997013  0  0  0.14807  0  0.997141  0  0  0.096987  0.145266  0  0.996959  0
H  H37  1  0.37683400  0.01876133  0.71837178  1  0  0.124714  0  0.94078  0  0  0.146367  0  0.99706  0  0  0.148019  0  0.997189  0  0  0.09697  0.145218  0  0.997002  0
H  H38  1  0.48430741  0.99349254  0.32198257  1  0  0.140304  0  0.928729  0  0  0.159343  0  0.983486  0  0  0.162183  0  0.982323  0  0  0.101012  0.157287  0  0.984479  0
H  H39  1  0.51569539  0.00650578  0.67801895  1  0  0.140312  0  0.928678  0  0  0.159346  0  0.98346  0  0  0.162186  0  0.982298  0  0  0.101026  0.15729  0  0.984454  0
C  C40  1  0.61057392  0.69887721  0.62340554  1  0  -0.426238  0  3.676199  0  0  -0.505631  0  3.913034  0  0  -0.511925  0  3.915974  0  0  -0.24577  -0.500862  0  3.910679  0
C  C41  1  0.38943172  0.30113019  0.37659841  1  0  -0.426158  0  3.676383  0  0  -0.505612  0  3.91324  0  0  -0.511888  0  3.916197  0  0  -0.24579  -0.500851  0  3.910874  0
C  C42  1  0.45866136  0.65909169  0.54780639  1  0  0.550176  0  3.712904  0  0  0.531826  0  3.981812  0  0  0.558281  0  3.983871  0  0  0.161286  0.513944  0  3.97968  0
C  C43  1  0.54133904  0.34090766  0.45219683  1  0  0.55021  0  3.712922  0  0  0.531843  0  3.981858  0  0  0.558292  0  3.983924  0  0  0.161273  0.513955  0  3.979736  0
C  C44  1  0.35701087  0.68077401  0.58699752  1  0  -0.386184  0  3.818054  0  0  -0.374567  0  4.071181  0  0  -0.399524  0  4.092758  0  0  -0.064851  -0.357434  0  4.056134  0
C  C45  1  0.64298612  0.31922437  0.41300129  1  0  -0.386125  0  3.818033  0  0  -0.374449  0  4.07128  0  0  -0.399498  0  4.092764  0  0  -0.064851  -0.357404  0  4.056141  0
C  C46  1  0.21465409  0.66148420  0.52240749  1  0  0.535944  0  3.74064  0  0  0.516649  0  4.013629  0  0  0.542783  0  4.016521  0  0  0.15332  0.498844  0  4.011081  0
C  C47  1  0.78534461  0.33851923  0.47758880  1  0  0.536038  0  3.74052  0  0  0.516468  0  4.013976  0  0  0.542918  0  4.016367  0  0  0.153394  0.498976  0  4.01093  0
C  C48  1  0.11916588  0.68620568  0.57315980  1  0  -0.422346  0  3.670694  0  0  -0.500641  0  3.903704  0  0  -0.507091  0  3.908186  0  0  -0.244096  -0.495716  0  3.900403  0
C  C49  1  0.88083625  0.31379873  0.42683668  1  0  -0.422432  0  3.670738  0  0  -0.500659  0  3.903833  0  0  -0.507228  0  3.908188  0  0  -0.244168  -0.495829  0  3.900426  0
C  C50  1  0.40236419  0.72577823  0.69437893  1  0  0.368784  0  3.870026  0  0  0.353224  0  4.129436  0  0  0.369679  0  4.153422  0  0  0.197445  0.341613  0  4.113639  0
C  C51  1  0.59763084  0.27422016  0.30562296  1  0  0.368693  0  3.86982  0  0  0.353152  0  4.129231  0  0  0.369596  0  4.153244  0  0  0.197408  0.341528  0  4.113457  0
C  C52  1  0.95899772  0.13180887  0.24332167  1  0  -0.422032  0  3.675623  0  0  -0.499014  0  3.90887  0  0  -0.50477  0  3.912657  0  0  -0.239444  -0.494885  0  3.906315  0
C  C53  1  0.04100497  0.86818743  0.75668098  1  0  -0.422041  0  3.675765  0  0  -0.499082  0  3.908976  0  0  -0.504828  0  3.912781  0  0  -0.239453  -0.494952  0  3.906422  0
C  C54  1  0.00667394  0.27376727  0.23819398  1  0  0.541504  0  3.715554  0  0  0.513536  0  4.001955  0  0  0.539263  0  4.005591  0  0  0.15628  0.496132  0  3.999107  0
C  C55  1  0.99333371  0.72623102  0.76180511  1  0  0.541474  0  3.715616  0  0  0.513547  0  4.002015  0  0  0.53927  0  4.005654  0  0  0.156291  0.496139  0  3.999169  0
C  C56  1  0.91859556  0.29588196  0.15127441  1  0  -0.380946  0  3.820398  0  0  -0.366673  0  4.074782  0  0  -0.391696  0  4.097728  0  0  -0.065  -0.349634  0  4.058876  0
C  C57  1  0.08140794  0.70411031  0.84872302  1  0  -0.380938  0  3.81996  0  0  -0.36677  0  4.074412  0  0  -0.391785  0  4.097361  0  0  -0.065102  -0.349721  0  4.058505  0
C  C58  1  0.95313968  0.42622970  0.13647866  1  0  0.537435  0  3.731059  0  0  0.519807  0  4.000462  0  0  0.545543  0  4.003578  0  0  0.155982  0.502499  0  3.99778  0
C  C59  1  0.04685746  0.57376160  0.86351934  1  0  0.537313  0  3.730759  0  0  0.51977  0  4.000088  0  0  0.545501  0  4.003211  0  0  0.156034  0.502457  0  3.997407  0
C  C60  1  0.84554411  0.43435625  0.04508398  1  0  -0.419847  0  3.671827  0  0  -0.497271  0  3.904131  0  0  -0.503918  0  3.909252  0  0  -0.242516  -0.49247  0  3.900414  0
C  C61  1  0.15446096  0.56563902  0.95491838  1  0  -0.419721  0  3.671757  0  0  -0.497152  0  3.904052  0  0  -0.503799  0  3.909167  0  0  -0.242484  -0.492349  0  3.900334  0
C  C62  1  0.78942105  0.18470410  0.07826672  1  0  0.353702  0  3.876601  0  0  0.338108  0  4.135515  0  0  0.354307  0  4.158483  0  0  0.187652  0.326818  0  4.120111  0
C  C63  1  0.21059288  0.81529314  0.92172873  1  0  0.353629  0  3.876585  0  0  0.338064  0  4.135502  0  0  0.354258  0  4.158475  0  0  0.187647  0.32677  0  4.120102  0
C  C64  1  0.45604578  0.48164070  0.11736811  1  0  -0.418006  0  3.677514  0  0  -0.496466  0  3.908426  0  0  -0.502338  0  3.912401  0  0  -0.24387  -0.492134  0  3.90555  0
C  C65  1  0.54396234  0.51836770  0.88263300  1  0  -0.417944  0  3.677646  0  0  -0.496399  0  3.908547  0  0  -0.50227  0  3.912522  0  0  -0.243877  -0.492058  0  3.905645  0
C  C66  1  0.41590473  0.56207569  0.18566227  1  0  0.53608  0  3.725759  0  0  0.518379  0  3.994824  0  0  0.543962  0  3.998521  0  0  0.154658  0.501044  0  3.99182  0
C  C67  1  0.58408924  0.43792069  0.81433844  1  0  0.536111  0  3.72581  0  0  0.518391  0  3.994897  0  0  0.544028  0  3.998508  0  0  0.154637  0.501055  0  3.991892  0
C  C68  1  0.46697671  0.70271129  0.19492153  1  0  -0.380327  0  3.823469  0  0  -0.368969  0  4.076643  0  0  -0.393947  0  4.099784  0  0  -0.064247  -0.351844  0  4.060473  0
C  C69  1  0.53301788  0.29728811  0.80508039  1  0  -0.38036  0  3.823503  0  0  -0.369037  0  4.076666  0  0  -0.394033  0  4.09979  0  0  -0.064223  -0.3519  0  4.060505  0
C  C70  1  0.43917984  0.79165549  0.25981095  1  0  0.542556  0  3.716338  0  0  0.525717  0  3.98362  0  0  0.551609  0  3.986288  0  0  0.1586  0.508246  0  3.981213  0
C  C71  1  0.56081959  0.20834386  0.74019485  1  0  0.542621  0  3.716552  0  0  0.525867  0  3.983698  0  0  0.551758  0  3.986367  0  0  0.158667  0.508363  0  3.981342  0
C  C72  1  0.50401187  0.93728376  0.26370338  1  0  -0.418341  0  3.678724  0  0  -0.493614  0  3.907869  0  0  -0.500052  0  3.912291  0  0  -0.244119  -0.48903  0  3.904781  0
C  C73  1  0.49598652  0.06271359  0.73629773  1  0  -0.418323  0  3.678761  0  0  -0.493688  0  3.907881  0  0  -0.500125  0  3.912304  0  0  -0.244172  -0.489095  0  3.904806  0
C  C74  1  0.54190517  0.75599882  0.13359759  1  0  0.342023  0  3.878743  0  0  0.328117  0  4.141697  0  0  0.343532  0  4.166357  0  0  0.184138  0.317365  0  4.125102  0
C  C75  1  0.45808349  0.24398750  0.86640001  1  0  0.342058  0  3.878864  0  0  0.328154  0  4.141828  0  0  0.343567  0  4.166489  0  0  0.184106  0.3174  0  4.125234  0
N  N76  1  0.44156336  0.76275899  0.78457433  1  0  -0.52112  0  3.008513  0  0  -0.469185  0  3.327432  0  0  -0.487659  0  3.330575  0  0  -0.391145  -0.456949  0  3.325793  0
N  N77  1  0.55842899  0.23724349  0.21542113  1  0  -0.521107  0  3.008342  0  0  -0.469175  0  3.327281  0  0  -0.48765  0  3.330428  0  0  -0.391132  -0.456937  0  3.32565  0
N  N78  1  0.67933720  0.09132453  0.01773728  1  0  -0.529592  0  2.971605  0  0  -0.480209  0  3.285791  0  0  -0.496564  0  3.286595  0  0  -0.386285  -0.469469  0  3.285526  0
N  N79  1  0.32066703  0.90867279  0.98225881  1  0  -0.529469  0  2.971761  0  0  -0.480082  0  3.28592  0  0  -0.496437  0  3.286729  0  0  -0.386222  -0.469343  0  3.285657  0
N  N80  1  0.60139635  0.80176788  0.08044129  1  0  -0.510266  0  2.894511  0  0  -0.466738  0  3.190332  0  0  -0.483563  0  3.194746  0  0  -0.387542  -0.455479  0  3.187551  0
N  N81  1  0.39859561  0.19822650  0.91955591  1  0  -0.510323  0  2.894678  0  0  -0.4668  0  3.190498  0  0  -0.483624  0  3.194912  0  0  -0.387563  -0.455542  0  3.187718  0
O  O82  1  0.42477655  0.60934065  0.45323991  1  0  -0.597833  0  1.995872  0  0  -0.544784  0  2.217298  0  0  -0.566597  0  2.209501  0  0  -0.313275  -0.529619  0  2.222404  0
O  O83  1  0.57523123  0.39067078  0.54676290  1  0  -0.597869  0  1.995888  0  0  -0.544789  0  2.2173  0  0  -0.566588  0  2.209496  0  0  -0.313263  -0.529623  0  2.222403  0
O  O84  1  0.16496625  0.62374594  0.42501835  1  0  -0.614098  0  1.99208  0  0  -0.562982  0  2.215107  0  0  -0.583796  0  2.205297  0  0  -0.321673  -0.548187  0  2.221503  0
O  O85  1  0.83503482  0.37625646  0.57497905  1  0  -0.614176  0  1.991997  0  0  -0.562949  0  2.215165  0  0  -0.583871  0  2.205195  0  0  -0.321707  -0.548264  0  2.221397  0
O  O86  1  0.12217980  0.36728759  0.30968610  1  0  -0.600312  0  2.020719  0  0  -0.5436  0  2.25318  0  0  -0.565668  0  2.246202  0  0  -0.307038  -0.528745  0  2.258355  0
O  O87  1  0.87781867  0.63271178  0.69031739  1  0  -0.600263  0  2.020745  0  0  -0.543575  0  2.253205  0  0  -0.565636  0  2.246226  0  0  -0.307013  -0.52872  0  2.25838  0
O  O88  1  0.06773054  0.53250901  0.19586652  1  0  -0.595171  0  1.995145  0  0  -0.546444  0  2.216784  0  0  -0.566896  0  2.20796  0  0  -0.311466  -0.532562  0  2.222844  0
O  O89  1  0.93226078  0.46748234  0.80413088  1  0  -0.595084  0  1.995025  0  0  -0.546367  0  2.216622  0  0  -0.566815  0  2.207807  0  0  -0.311456  -0.532484  0  2.222679  0
O  O90  1  0.33744521  0.50219700  0.23107263  1  0  -0.601697  0  2.019905  0  0  -0.547116  0  2.242393  0  0  -0.568834  0  2.235239  0  0  -0.311396  -0.532079  0  2.247116  0
O  O91  1  0.66254613  0.49779436  0.76892336  1  0  -0.601729  0  2.019995  0  0  -0.547124  0  2.24247  0  0  -0.56886  0  2.235297  0  0  -0.311389  -0.532088  0  2.247189  0
O  O92  1  0.36285956  0.75326933  0.31178288  1  0  -0.590258  0  1.984784  0  0  -0.540464  0  2.201717  0  0  -0.560573  0  2.192205  0  0  -0.312605  -0.526604  0  2.208067  0
O  O93  1  0.63712227  0.24672616  0.68821360  1  0  -0.590244  0  1.984882  0  0  -0.540478  0  2.201773  0  0  -0.560582  0  2.192263  0  0  -0.31259  -0.52661  0  2.208138  0
