# generated using pymatgen
data_Co2H8C12N5ClO4
_symmetry_space_group_name_H-M   'P 1'
_cell_length_a   11.92126414
_cell_length_b   16.30724465
_cell_length_c   16.30492886
_cell_angle_alpha   114.27144915
_cell_angle_beta   104.10584487
_cell_angle_gamma   104.10084213
_symmetry_Int_Tables_number   1
_chemical_formula_structural   Co2H8C12N5ClO4
_chemical_formula_sum   'Co12 H48 C72 N30 Cl6 O24'
_cell_volume   2581.84642821
_cell_formula_units_Z   6
loop_
 _symmetry_equiv_pos_site_id
 _symmetry_equiv_pos_as_xyz
  1  'x, y, z'
loop_
 _atom_site_type_symbol
 _atom_site_label
 _atom_site_symmetry_multiplicity
 _atom_site_fract_x
 _atom_site_fract_y
 _atom_site_fract_z
 _atom_site_occupancy
 _atom_site_pbe_bader_charge
 _atom_site_pbe_bader_spin_density
 _atom_site_pbe_cm5_charge
 _atom_site_pbe_ddec_charge
 _atom_site_pbe_ddec_spin_density
 _atom_site_pbe_ddec_sum_bond_order
 _atom_site_pbe_magmom
Co  Co0  1  0.05880526  0.44681990  0.04215917  1  1.192403  2.500745  0.612722  0.78559  2.752061  2.665098  2.487
Co  Co1  1  0.01667681  0.95778777  0.40468195  1  1.194672  2.5004  0.612267  0.78311  2.751091  2.667839  2.487
Co  Co2  1  0.61211801  0.59547277  0.55323393  1  1.19161  2.5012  0.612635  0.786104  2.752181  2.663054  2.488
Co  Co3  1  0.94122454  0.55318503  0.95782853  1  1.192489  2.500716  0.612767  0.7858  2.751986  2.664597  2.487
Co  Co4  1  0.98338114  0.04220330  0.59537631  1  1.194303  2.500337  0.612128  0.782865  2.750982  2.668362  2.487
Co  Co5  1  0.38784851  0.40455480  0.44679331  1  1.191475  2.501158  0.612854  0.786303  2.752288  2.663938  2.488
Co  Co6  1  0.80487045  0.40435794  0.04343507  1  1.182316  2.521042  0.622543  0.818647  2.750997  2.594052  2.481
Co  Co7  1  0.76127596  0.95640922  0.36090185  1  1.182675  2.520804  0.623789  0.821943  2.751192  2.591365  2.481
Co  Co8  1  0.40063989  0.63926088  0.59572014  1  1.181294  2.520961  0.622649  0.819165  2.751116  2.593195  2.481
Co  Co9  1  0.19517783  0.59568203  0.95655622  1  1.182228  2.520896  0.62289  0.81921  2.750868  2.594873  2.481
Co  Co10  1  0.23868347  0.04354533  0.63909235  1  1.18257  2.520676  0.623735  0.821448  2.751089  2.593132  2.481
Co  Co11  1  0.59932306  0.36074771  0.40432381  1  1.181531  2.521209  0.622353  0.819207  2.751332  2.591704  2.481
H  H12  1  0.53348802  0.77139116  0.19710871  1  0.144178  0.001526  0.118631  0.099417  0.000317  1.034179  0.001
H  H13  1  0.33659394  0.80309811  0.57438125  1  0.156974  0.001521  0.119104  0.099633  0.000319  1.034572  0.001
H  H14  1  0.76198085  0.42552379  0.22851526  1  0.146935  0.001527  0.118432  0.098244  0.000318  1.034373  0.001
H  H15  1  0.46643001  0.22859405  0.80282554  1  0.144689  0.001525  0.118673  0.099608  0.000317  1.033954  0.001
H  H16  1  0.66341069  0.19689806  0.42560566  1  0.157572  0.001517  0.119071  0.09975  0.000318  1.034476  0.001
H  H17  1  0.23800346  0.57447821  0.77144890  1  0.145871  0.001528  0.118581  0.098524  0.000318  1.034487  0.001
H  H18  1  0.41512286  0.86148545  0.48031104  1  0.088106  0.001075  0.106428  0.11636  0.000377  1.022215  0.0
H  H19  1  0.93512127  0.51981790  0.38147835  1  0.100495  0.001066  0.106377  0.116596  0.000379  1.020821  0.0
H  H20  1  0.55353161  0.61855629  0.13825780  1  0.092636  0.001074  0.106003  0.115486  0.00038  1.020948  0.0
H  H21  1  0.58480840  0.13843989  0.51961580  1  0.088188  0.001075  0.106403  0.116522  0.000377  1.021973  0.0
H  H22  1  0.06493128  0.48014980  0.61852704  1  0.101261  0.001066  0.106384  0.116523  0.000379  1.021149  0.0
H  H23  1  0.44651802  0.38147199  0.86167682  1  0.097516  0.001072  0.105922  0.115392  0.000381  1.021012  0.0
H  H24  1  0.21960786  0.40981485  0.27907302  1  0.125268  0.002855  0.114806  0.088845  0.001324  1.053141  0.001
H  H25  1  0.94039338  0.72072081  0.13088570  1  0.143075  0.002815  0.115038  0.088564  0.001317  1.053462  0.001
H  H26  1  0.80958744  0.86934847  0.59002322  1  0.139626  0.00282  0.114799  0.088844  0.001319  1.051638  0.001
H  H27  1  0.78041157  0.59016964  0.72093326  1  0.12524  0.002851  0.114707  0.088644  0.001322  1.053022  0.001
H  H28  1  0.05962796  0.27923958  0.86909019  1  0.143321  0.002816  0.115019  0.088611  0.001317  1.053361  0.001
H  H29  1  0.19031740  0.13059441  0.41001643  1  0.139539  0.002822  0.114605  0.088449  0.001321  1.0517  0.001
H  H30  1  0.14791431  0.29089247  0.45114944  1  0.141545  0.002316  0.118317  0.093957  0.001064  1.024522  0.001
H  H31  1  0.69714707  0.54904818  0.83966942  1  0.127822  0.002317  0.118483  0.094448  0.001063  1.023376  0.001
H  H32  1  0.85748649  0.16052219  0.70945356  1  0.172229  0.00228  0.118481  0.094407  0.001062  1.023899  0.001
H  H33  1  0.85212610  0.70917380  0.54889843  1  0.140555  0.002313  0.118373  0.09401  0.001063  1.024207  0.001
H  H34  1  0.30283713  0.45094361  0.16032673  1  0.127901  0.002317  0.118449  0.09439  0.001064  1.02336  0.001
H  H35  1  0.14252358  0.83945062  0.29055666  1  0.172854  0.00228  0.118426  0.094288  0.001062  1.024143  0.001
H  H36  1  0.83716833  0.28386042  0.24113273  1  0.119402  0.000395  0.117291  0.123029  7.4e-05  0.970467  0.0
H  H37  1  0.59594136  0.75870901  0.04267548  1  0.087352  0.000397  0.116808  0.122384  7.5e-05  0.969608  0.0
H  H38  1  0.55390825  0.95773998  0.71684057  1  0.117043  0.000392  0.117581  0.124056  7.3e-05  0.969464  0.0
H  H39  1  0.16284650  0.71617226  0.75892251  1  0.119243  0.000396  0.11725  0.122977  7.4e-05  0.970416  0.0
H  H40  1  0.40410468  0.24132659  0.95732158  1  0.087111  0.000397  0.116737  0.122316  7.5e-05  0.969852  0.0
H  H41  1  0.44602559  0.04228613  0.28317034  1  0.117845  0.00039  0.11771  0.124186  7.2e-05  0.969324  0.0
H  H42  1  0.27062284  0.70399623  0.32285289  1  0.136411  0.001216  0.111489  0.109121  0.000842  1.026462  0.0
H  H43  1  0.94784460  0.67731613  0.38159887  1  0.138581  0.001207  0.111226  0.109049  0.000842  1.02552  0.0
H  H44  1  0.56649832  0.61867977  0.29577289  1  0.133515  0.001208  0.110604  0.106861  0.000843  1.027378  0.0
H  H45  1  0.72931552  0.29593275  0.67706017  1  0.136251  0.001211  0.111619  0.109505  0.000838  1.025755  0.0
H  H46  1  0.05214718  0.32267055  0.61844133  1  0.137893  0.00121  0.111052  0.108649  0.000845  1.025989  0.0
H  H47  1  0.43354183  0.38137626  0.70417137  1  0.132232  0.001212  0.11083  0.107242  0.000845  1.026904  0.0
H  H48  1  0.91651395  0.23705766  0.36742156  1  0.100671  0.002  0.099912  0.112424  0.000979  1.030742  0.001
H  H49  1  0.54931823  0.63263287  0.86950907  1  0.105215  0.002012  0.099864  0.112111  0.000992  1.032061  0.001
H  H50  1  0.68024316  0.13079823  0.76365913  1  0.096105  0.002044  0.099752  0.112535  0.000993  1.031685  0.001
H  H51  1  0.08351839  0.76302394  0.63266118  1  0.099764  0.002001  0.099934  0.11249  0.00098  1.03065  0.001
H  H52  1  0.45069586  0.36737206  0.13050400  1  0.104963  0.002013  0.099832  0.112132  0.000992  1.032133  0.001
H  H53  1  0.31972136  0.86921619  0.23631452  1  0.095374  0.002044  0.09969  0.112397  0.000993  1.032015  0.001
H  H54  1  0.61475395  0.96322780  0.48599792  1  0.099575  0.00143  0.115162  0.086316  0.000187  1.024133  0.001
H  H55  1  0.12929115  0.51422057  0.47741054  1  0.096923  0.001436  0.115377  0.085729  0.000192  1.024157  0.001
H  H56  1  0.65152188  0.52238934  0.03661223  1  0.104094  0.001435  0.114688  0.085354  0.000193  1.025519  0.001
H  H57  1  0.38515535  0.03673843  0.51394599  1  0.097971  0.00143  0.115181  0.086211  0.000187  1.024575  0.001
H  H58  1  0.87079310  0.48575515  0.52260142  1  0.097799  0.001433  0.115343  0.085739  0.000192  1.024095  0.001
H  H59  1  0.34843391  0.47755061  0.96333607  1  0.1044  0.001436  0.114702  0.085211  0.000193  1.025506  0.001
C  C60  1  0.39149979  0.72561073  0.24828509  1  -0.01052  0.014322  -0.010274  -0.076373  0.007486  3.9447  0.011
C  C61  1  0.14334289  0.75187206  0.47759418  1  0.020791  0.014252  -0.009229  -0.074892  0.007486  3.943826  0.011
C  C62  1  0.66573849  0.52252745  0.27425674  1  -0.018456  0.014206  -0.010346  -0.07494  0.007438  3.940821  0.011
C  C63  1  0.60843338  0.27435623  0.75163461  1  -0.011139  0.014322  -0.010069  -0.075549  0.007488  3.943961  0.011
C  C64  1  0.85666522  0.24811243  0.52242477  1  0.02046  0.014243  -0.009184  -0.074766  0.007481  3.943909  0.011
C  C65  1  0.33422709  0.47747674  0.72569328  1  -0.036312  0.014226  -0.010212  -0.07464  0.007444  3.940812  0.011
C  C66  1  0.50431063  0.78760474  0.25828131  1  0.468036  -0.001907  0.053216  0.080234  -0.003019  3.876164  -0.001
C  C67  1  0.24629082  0.74191723  0.52949124  1  0.436849  -0.001889  0.051799  0.078726  -0.003021  3.878147  -0.001
C  C68  1  0.71661422  0.47048392  0.21231437  1  0.452706  -0.001859  0.053233  0.080392  -0.002982  3.8738  -0.001
C  C69  1  0.49561838  0.21237828  0.74165833  1  0.468002  -0.001915  0.05305  0.079807  -0.003024  3.875865  -0.001
C  C70  1  0.75372464  0.25807675  0.47053170  1  0.436861  -0.00188  0.051699  0.078416  -0.003005  3.877883  -0.001
C  C71  1  0.28337894  0.52952539  0.78765439  1  0.454314  -0.001869  0.053087  0.079949  -0.00299  3.874575  -0.001
C  C72  1  0.02410778  0.35207996  0.25259846  1  0.02463  0.014668  -0.010897  -0.071974  0.007947  3.963663  0.011
C  C73  1  0.77144808  0.74726355  0.09952047  1  0.004366  0.014674  -0.011678  -0.073336  0.007934  3.963133  0.011
C  C74  1  0.67219167  0.90079746  0.64814408  1  -0.018984  0.014705  -0.011339  -0.073289  0.007944  3.963175  0.011
C  C75  1  0.97592104  0.64792862  0.74743165  1  0.023186  0.014667  -0.010792  -0.072233  0.007945  3.96379  0.011
C  C76  1  0.22861347  0.25274065  0.90045243  1  0.003762  0.014679  -0.011546  -0.073178  0.007935  3.963184  0.011
C  C77  1  0.32772506  0.09919653  0.35188553  1  -0.019857  0.014716  -0.011239  -0.073426  0.007948  3.963552  0.011
C  C78  1  0.43851461  0.83749666  0.41609955  1  0.010415  0.005778  -0.085823  -0.131138  0.002811  3.970477  0.004
C  C79  1  0.02267776  0.58405897  0.42164853  1  0.007092  0.005768  -0.086174  -0.133713  0.002803  3.970503  0.004
C  C80  1  0.60088439  0.57834083  0.16227107  1  0.03336  0.005688  -0.08517  -0.131189  0.002794  3.965581  0.004
C  C81  1  0.56140596  0.16244693  0.58381812  1  0.007608  0.005782  -0.085619  -0.131287  0.002813  3.970677  0.004
C  C82  1  0.97737013  0.41592552  0.57837884  1  0.005011  0.005767  -0.086203  -0.133906  0.002802  3.970978  0.004
C  C83  1  0.39915487  0.42169111  0.83767972  1  0.029089  0.0057  -0.085244  -0.131124  0.002798  3.965904  0.004
C  C84  1  0.15094598  0.37464342  0.29977956  1  0.493331  0.000972  0.051567  0.078627  -0.000473  3.899383  0.0
C  C85  1  0.85107320  0.70003864  0.07491730  1  0.485023  0.00086  0.052185  0.079204  -0.000577  3.899144  0.0
C  C86  1  0.77628784  0.92531316  0.62536888  1  0.47703  0.001005  0.051031  0.078162  -0.000469  3.897857  0.0
C  C87  1  0.84908804  0.62538415  0.70025191  1  0.493612  0.000973  0.051759  0.078983  -0.000471  3.899004  0.0
C  C88  1  0.14896370  0.29993197  0.92505210  1  0.48563  0.000856  0.051984  0.078768  -0.000579  3.899061  0.0
C  C89  1  0.22364478  0.07464359  0.37466369  1  0.473855  0.001013  0.051633  0.078984  -0.000469  3.897653  0.0
C  C90  1  0.10936660  0.30654979  0.39403757  1  0.477641  -0.001365  0.055688  0.111288  -0.002354  3.874822  -0.001
C  C91  1  0.71553512  0.60603871  0.91246711  1  0.488683  -0.00136  0.054556  0.10906  -0.002338  3.875296  -0.001
C  C92  1  0.80326527  0.08775882  0.69376850  1  0.44167  -0.001336  0.055928  0.110783  -0.002361  3.873965  -0.001
C  C93  1  0.89066372  0.69350334  0.60601412  1  0.479468  -0.001359  0.055576  0.111117  -0.002346  3.874783  -0.001
C  C94  1  0.28446637  0.39395819  0.08752629  1  0.488055  -0.00137  0.054583  0.109148  -0.002349  3.875379  -0.001
C  C95  1  0.19674026  0.91221180  0.30623694  1  0.439951  -0.001334  0.056045  0.110902  -0.002363  3.873974  -0.001
C  C96  1  0.30590285  0.63594021  0.15170688  1  1.582353  -0.002113  0.213303  0.579365  -0.003718  4.181751  -0.002
C  C97  1  0.15426664  0.84838707  0.48443614  1  1.585444  -0.002067  0.212608  0.576688  -0.003731  4.183249  -0.002
C  C98  1  0.66979096  0.51563596  0.36392747  1  1.580516  -0.002193  0.212552  0.576059  -0.00376  4.184046  -0.002
C  C99  1  0.69407502  0.36402601  0.84820283  1  1.582586  -0.002131  0.213153  0.578758  -0.00373  4.182097  -0.002
C  C100  1  0.84573714  0.15160619  0.51559727  1  1.584903  -0.002042  0.212552  0.576323  -0.003707  4.182934  -0.002
C  C101  1  0.33012561  0.48434122  0.63601059  1  1.579162  -0.002173  0.212368  0.575368  -0.003751  4.184898  -0.002
C  C102  1  0.93689535  0.30269936  0.27733680  1  -0.057877  -0.002242  -0.057377  -0.038906  -0.002984  3.913066  -0.001
C  C103  1  0.65959167  0.72261249  0.02535403  1  -0.001641  -0.002229  -0.056571  -0.03744  -0.002961  3.91084  -0.001
C  C104  1  0.63465985  0.97504199  0.69783218  1  -0.024167  -0.00231  -0.056776  -0.039025  -0.003036  3.912579  -0.001
C  C105  1  0.06312564  0.69735085  0.72272735  1  -0.058553  -0.002233  -0.057456  -0.038989  -0.002973  3.9132  -0.001
C  C106  1  0.34047642  0.27742748  0.97465434  1  -0.002751  -0.002238  -0.056415  -0.037165  -0.002973  3.910289  -0.001
C  C107  1  0.36529974  0.02498047  0.30220029  1  -0.023588  -0.002314  -0.057208  -0.039163  -0.003038  3.912907  -0.001
C  C108  1  0.35868983  0.75107653  0.32961385  1  -0.045153  -0.004332  -0.055026  -0.033375  -0.005218  3.928852  -0.003
C  C109  1  0.02921097  0.67056110  0.42182380  1  -0.067408  -0.004325  -0.054954  -0.032258  -0.005227  3.928691  -0.003
C  C110  1  0.60747718  0.57833805  0.24871542  1  -0.012666  -0.004233  -0.054026  -0.030031  -0.00512  3.924966  -0.003
C  C111  1  0.64123261  0.24886560  0.67030294  1  -0.042689  -0.004341  -0.0553  -0.034018  -0.005226  3.928978  -0.003
C  C112  1  0.97079126  0.32941682  0.57819139  1  -0.066581  -0.004291  -0.054725  -0.031551  -0.005191  3.928871  -0.003
C  C113  1  0.39255164  0.42169900  0.75123987  1  0.005637  -0.004256  -0.054372  -0.030652  -0.005133  3.925278  -0.003
C  C114  1  0.98748612  0.38387572  0.17971928  1  1.577964  0.000705  0.21701  0.584063  -0.000542  4.179363  -0.001
C  C115  1  0.80765000  0.82007706  0.20421499  1  1.585911  0.00072  0.216822  0.585206  -0.000532  4.174482  -0.001
C  C116  1  0.60378669  0.79605401  0.61624905  1  1.585789  0.000724  0.217483  0.585737  -0.000487  4.17475  -0.001
C  C117  1  0.01255397  0.61608248  0.82026586  1  1.57789  0.000716  0.217227  0.584636  -0.000534  4.178801  -0.001
C  C118  1  0.19240842  0.17989867  0.79577144  1  1.586517  0.000724  0.216633  0.584838  -0.000531  4.1759  -0.001
C  C119  1  0.39610001  0.20395969  0.38380222  1  1.588234  0.000704  0.217637  0.586162  -0.000503  4.174168  -0.001
C  C120  1  0.98057967  0.27816150  0.34775804  1  -0.043268  0.006304  -0.084083  -0.121154  0.003354  3.96782  0.005
C  C121  1  0.63295108  0.65225657  0.93035910  1  -0.052441  0.00633  -0.083325  -0.120201  0.003363  3.968199  0.005
C  C122  1  0.70300026  0.06997769  0.72233786  1  -0.035115  0.006328  -0.084213  -0.121206  0.00337  3.969043  0.005
C  C123  1  0.01945021  0.72190477  0.65231552  1  -0.041322  0.006299  -0.083969  -0.120969  0.003351  3.967921  0.005
C  C124  1  0.36707528  0.34776588  0.06965356  1  -0.051992  0.006331  -0.083272  -0.120387  0.003364  3.968427  0.005
C  C125  1  0.29698889  0.93003601  0.27765834  1  -0.034075  0.006328  -0.084041  -0.121064  0.00337  3.969359  0.005
C  C126  1  0.54961483  0.89481198  0.42004996  1  0.479788  -0.004841  0.046227  0.094518  -0.005963  3.924445  -0.003
C  C127  1  0.12994005  0.58012980  0.47490795  1  0.466712  -0.004909  0.047304  0.098385  -0.00601  3.920366  -0.003
C  C128  1  0.65476372  0.52495893  0.10504514  1  0.407878  -0.004792  0.047251  0.096356  -0.005975  3.921918  -0.003
C  C129  1  0.45028892  0.10516374  0.57988151  1  0.482962  -0.004851  0.04607  0.094654  -0.005971  3.924668  -0.003
C  C130  1  0.87012947  0.41985615  0.52509755  1  0.466809  -0.004875  0.047388  0.098564  -0.005973  3.921765  -0.003
C  C131  1  0.34523826  0.47502993  0.89491254  1  0.408214  -0.004813  0.047573  0.096765  -0.005995  3.921459  -0.003
N  N132  1  0.58329311  0.87007615  0.34269836  1  -1.256694  0.062106  -0.32717  -0.240686  0.033635  3.553969  0.051
N  N133  1  0.24092838  0.65753210  0.52755229  1  -1.234756  0.062196  -0.327567  -0.242189  0.033598  3.553523  0.051
N  N134  1  0.71315271  0.47237528  0.12983392  1  -1.220154  0.062106  -0.327133  -0.240393  0.033578  3.552133  0.051
N  N135  1  0.41662799  0.12990833  0.65723983  1  -1.258535  0.062159  -0.327071  -0.240636  0.033656  3.553857  0.051
N  N136  1  0.75913053  0.34247429  0.47247317  1  -1.234443  0.062162  -0.327527  -0.242327  0.033576  3.553542  0.051
N  N137  1  0.28683453  0.52761358  0.87012907  1  -1.220501  0.062162  -0.327381  -0.240629  0.033609  3.55224  0.051
N  N138  1  0.19346993  0.35487108  0.37075199  1  -1.232927  0.071495  -0.324321  -0.220934  0.040161  3.562948  0.06
N  N139  1  0.82279310  0.62918622  0.98414184  1  -1.247529  0.071579  -0.32396  -0.21917  0.040103  3.563377  0.06
N  N140  1  0.83877345  0.01604872  0.64520820  1  -1.226963  0.071471  -0.324356  -0.219696  0.04012  3.562208  0.06
N  N141  1  0.80655187  0.64516671  0.62928820  1  -1.232797  0.071392  -0.324295  -0.220955  0.040097  3.562208  0.06
N  N142  1  0.17721957  0.37078439  0.01582441  1  -1.246323  0.071627  -0.323892  -0.218844  0.040126  3.562618  0.06
N  N143  1  0.16122743  0.98390438  0.35483215  1  -1.224588  0.071466  -0.324786  -0.220011  0.040118  3.56218  0.06
N  N144  1  0.94318311  0.52664974  0.07506272  1  -0.447969  0.096676  -0.365835  -0.635409  0.062144  3.566555  0.095
N  N145  1  0.86811699  0.92505288  0.45164257  1  -0.439134  0.096566  -0.365752  -0.634758  0.062148  3.569001  0.094
N  N146  1  0.41657132  0.54843879  0.47349447  1  -0.439991  0.096737  -0.364912  -0.634458  0.062224  3.564781  0.094
N  N147  1  0.05693446  0.47342383  0.92500087  1  -0.447615  0.096658  -0.365898  -0.635013  0.062141  3.568448  0.094
N  N148  1  0.13196122  0.07500098  0.54842422  1  -0.436875  0.096607  -0.365618  -0.634583  0.06221  3.568419  0.094
N  N149  1  0.58338066  0.45159317  0.52658896  1  -0.439928  0.096712  -0.365231  -0.635328  0.062205  3.565059  0.094
N  N150  1  0.99087007  0.59517118  0.15978156  1  -0.287484  0.024196  0.108029  0.437839  0.002633  4.344164  0.001
N  N151  1  0.83113901  0.84038459  0.43554033  1  -0.292754  0.02434  0.107653  0.436569  0.002702  4.34701  0.002
N  N152  1  0.39564102  0.56456185  0.40493800  1  -0.291733  0.024195  0.107812  0.438057  0.002598  4.340963  0.001
N  N153  1  0.00930524  0.40491918  0.84029260  1  -0.290019  0.024198  0.108084  0.437563  0.002604  4.344837  0.001
N  N154  1  0.16896120  0.15967000  0.56453013  1  -0.295899  0.024433  0.107594  0.436815  0.002707  4.34584  0.002
N  N155  1  0.60427307  0.43545843  0.59514177  1  -0.29106  0.024182  0.108345  0.439274  0.002601  4.341532  0.001
N  N156  1  0.03689989  0.66019695  0.23847703  1  0.14203  0.209299  -0.077971  -0.200632  0.105982  2.596697  0.152
N  N157  1  0.79847994  0.76171292  0.42189764  1  0.135115  0.209614  -0.077733  -0.199667  0.10616  2.597398  0.152
N  N158  1  0.37653667  0.57812710  0.33984935  1  0.137795  0.209257  -0.078343  -0.201243  0.105896  2.594527  0.152
N  N159  1  0.96332645  0.33989487  0.76158121  1  0.14414  0.209545  -0.078255  -0.200996  0.106096  2.596114  0.152
N  N160  1  0.20164787  0.23833802  0.57817079  1  0.136254  0.209732  -0.077566  -0.199582  0.10622  2.596307  0.152
N  N161  1  0.62331464  0.42187493  0.66021466  1  0.136288  0.209062  -0.078527  -0.202012  0.1058  2.595653  0.152
Cl  Cl162  1  0.87708318  0.29482782  0.94013591  1  -0.610157  0.164778  -0.259285  -0.485568  0.087226  1.410443  0.127
Cl  Cl163  1  0.93675729  0.05967063  0.35453194  1  -0.609319  0.164574  -0.259725  -0.486113  0.08708  1.407553  0.127
Cl  Cl164  1  0.58236571  0.64540807  0.70525265  1  -0.610453  0.164546  -0.259677  -0.486174  0.087111  1.409726  0.127
Cl  Cl165  1  0.12293205  0.70516469  0.05979254  1  -0.610231  0.16485  -0.259308  -0.485683  0.087262  1.410864  0.127
Cl  Cl166  1  0.06329414  0.94035037  0.64551287  1  -0.609385  0.164685  -0.259633  -0.485952  0.087139  1.408802  0.127
Cl  Cl167  1  0.41755453  0.35459613  0.29475786  1  -0.61039  0.164519  -0.259704  -0.486251  0.087103  1.409264  0.127
O  O168  1  0.07367206  0.42374088  0.15967995  1  -1.146267  0.070155  -0.29437  -0.512352  0.03707  2.405709  0.062
O  O169  1  0.91384778  0.84011397  0.26413652  1  -1.145883  0.070093  -0.293606  -0.510881  0.037083  2.405894  0.062
O  O170  1  0.64990501  0.73606899  0.57614710  1  -1.140966  0.070008  -0.293958  -0.51297  0.036899  2.405522  0.062
O  O171  1  0.92637493  0.57620856  0.84029733  1  -1.145971  0.070187  -0.294644  -0.512583  0.037091  2.405846  0.062
O  O172  1  0.08619147  0.15984424  0.73584601  1  -1.145098  0.070125  -0.293586  -0.510603  0.037102  2.40683  0.062
O  O173  1  0.34990093  0.26390893  0.42382400  1  -1.142326  0.070027  -0.293661  -0.512703  0.036909  2.40523  0.062
O  O174  1  0.21473797  0.57577656  0.15009872  1  -1.14076  0.07511  -0.286996  -0.509964  0.039137  2.428454  0.069
O  O175  1  0.06478752  0.84995813  0.42577560  1  -1.138657  0.075124  -0.286495  -0.508172  0.0391  2.428711  0.069
O  O176  1  0.63905458  0.57436427  0.42419398  1  -1.143258  0.075043  -0.28639  -0.508888  0.039048  2.429285  0.069
O  O177  1  0.78527153  0.42418382  0.84982474  1  -1.141471  0.07504  -0.28698  -0.50989  0.039093  2.428157  0.069
O  O178  1  0.93524265  0.15007237  0.57428151  1  -1.138699  0.075081  -0.28634  -0.507814  0.039078  2.427803  0.069
O  O179  1  0.36090094  0.42565598  0.57574731  1  -1.143219  0.075144  -0.286262  -0.508406  0.039114  2.431189  0.069
O  O180  1  0.87187228  0.37094776  0.14566172  1  -1.146684  0.079975  -0.314415  -0.550483  0.041665  2.40968  0.066
O  O181  1  0.72613152  0.85418147  0.22536951  1  -1.14865  0.080128  -0.315501  -0.553403  0.041784  2.408152  0.066
O  O182  1  0.50121746  0.77495366  0.62935508  1  -1.151093  0.080099  -0.3153  -0.551459  0.041761  2.405848  0.066
O  O183  1  0.12816214  0.62902504  0.85432960  1  -1.146908  0.080042  -0.31436  -0.550507  0.0417  2.409956  0.066
O  O184  1  0.27390966  0.14577382  0.77462506  1  -1.149416  0.080138  -0.315352  -0.553155  0.041793  2.409106  0.066
O  O185  1  0.49873037  0.22508269  0.37078093  1  -1.150963  0.080013  -0.315782  -0.552338  0.041721  2.405911  0.066
O  O186  1  0.33131159  0.62694169  0.07672082  1  -1.158427  0.08582  -0.328587  -0.571712  0.04512  2.394109  0.069
O  O187  1  0.25470845  0.92333784  0.55038244  1  -1.171966  0.085719  -0.329077  -0.57144  0.045111  2.393784  0.069
O  O188  1  0.70406767  0.44958077  0.37285069  1  -1.158494  0.085611  -0.329006  -0.570567  0.045017  2.392499  0.069
O  O189  1  0.66868454  0.37302818  0.92319552  1  -1.157739  0.085746  -0.328561  -0.571474  0.045076  2.393325  0.069
O  O190  1  0.74529428  0.07665322  0.44964129  1  -1.171952  0.085672  -0.329084  -0.571499  0.045086  2.393218  0.069
O  O191  1  0.29580783  0.55038181  0.62708009  1  -1.158045  0.08569  -0.328883  -0.570379  0.045063  2.392885  0.069
