# generated using pymatgen
data_HoZnH16C26N2ClO11
_symmetry_space_group_name_H-M   'P 1'
_cell_length_a   9.61091590
_cell_length_b   12.36520622
_cell_length_c   12.68340269
_cell_angle_alpha   74.02003945
_cell_angle_beta   84.22146102
_cell_angle_gamma   71.69732211
_symmetry_Int_Tables_number   1
_chemical_formula_structural   HoZnH16C26N2ClO11
_chemical_formula_sum   'Ho2 Zn2 H32 C52 N4 Cl2 O22'
_cell_volume   1375.58829981
_cell_formula_units_Z   2
loop_
 _symmetry_equiv_pos_site_id
 _symmetry_equiv_pos_as_xyz
  1  'x, y, z'
loop_
 _atom_site_type_symbol
 _atom_site_label
 _atom_site_symmetry_multiplicity
 _atom_site_fract_x
 _atom_site_fract_y
 _atom_site_fract_z
 _atom_site_occupancy
 _atom_site_hle17_bader_spin_density
 _atom_site_hle17_ddec_charge
 _atom_site_hle17_ddec_spin_density
 _atom_site_hle17_ddec_sum_bond_order
 _atom_site_hle17_magmom
 _atom_site_hse06_10hf_bader_spin_density
 _atom_site_hse06_10hf_ddec_charge
 _atom_site_hse06_10hf_ddec_spin_density
 _atom_site_hse06_10hf_ddec_sum_bond_order
 _atom_site_hse06_10hf_magmom
 _atom_site_hse06_bader_spin_density
 _atom_site_hse06_ddec_charge
 _atom_site_hse06_ddec_spin_density
 _atom_site_hse06_ddec_sum_bond_order
 _atom_site_hse06_magmom
 _atom_site_pbe_bader_spin_density
 _atom_site_pbe_cm5_charge
 _atom_site_pbe_ddec_charge
 _atom_site_pbe_ddec_spin_density
 _atom_site_pbe_ddec_sum_bond_order
 _atom_site_pbe_magmom
Ho  Ho0  1  0.70593810  0.02854972  0.96934603  1  0  2.30079  0  1.638004  0  0  2.165746  0  2.099493  0  0  2.286643  0  1.919501  0  0  1.546104  2.130412  0  2.130305  0
Ho  Ho1  1  0.29406084  0.97144981  0.03065357  1  0  2.300788  0  1.638078  0  0  2.165746  0  2.099582  0  0  2.286645  0  1.919584  0  0  1.546121  2.130412  0  2.130394  0
Zn  Zn2  1  0.83632840  0.84813908  0.68878687  1  0  1.012867  0  1.910605  0  0  0.832035  0  2.403063  0  0  0.879555  0  2.34409  0  0  0.631426  0.799392  0  2.443151  0
Zn  Zn3  1  0.16367231  0.15186133  0.31121236  1  0  1.012805  0  1.910636  0  0  0.832002  0  2.403091  0  0  0.87951  0  2.344118  0  0  0.63142  0.799356  0  2.443203  0
H  H4  1  0.56355117  0.24331987  0.06257919  1  0  0.4058  0  0.911031  0  0  0.362984  0  0.99269  0  0  0.375442  0  0.975268  0  0  0.285039  0.354373  0  1.004818  0
H  H5  1  0.43644986  0.75667965  0.93741867  1  0  0.405779  0  0.911053  0  0  0.362962  0  0.992714  0  0  0.37542  0  0.975292  0  0  0.285035  0.35435  0  1.004842  0
H  H6  1  0.44844329  0.17568287  0.04799784  1  0  0.44573  0  0.853106  0  0  0.417318  0  0.911726  0  0  0.427709  0  0.896724  0  0  0.30029  0.409252  0  0.92352  0
H  H7  1  0.55155499  0.82431842  0.95200133  1  0  0.445768  0  0.853045  0  0  0.417365  0  0.911648  0  0  0.427754  0  0.896651  0  0  0.30032  0.409297  0  0.923444  0
H  H8  1  0.83700249  0.71077578  0.28429805  1  0  0.102006  0  0.975754  0  0  0.111441  0  1.038497  0  0  0.113547  0  1.038701  0  0  0.104592  0.109776  0  1.038591  0
H  H9  1  0.16299717  0.28922463  0.71570283  1  0  0.102014  0  0.975737  0  0  0.111449  0  1.038485  0  0  0.113554  0  1.038688  0  0  0.104601  0.109784  0  1.038582  0
H  H10  1  0.80892644  0.54699995  0.44426050  1  0  0.096609  0  0.927784  0  0  0.110718  0  0.977461  0  0  0.113679  0  0.976114  0  0  0.107174  0.108572  0  0.97862  0
H  H11  1  0.19107563  0.45299957  0.55573886  1  0  0.096631  0  0.927771  0  0  0.110737  0  0.977445  0  0  0.113698  0  0.976098  0  0  0.10717  0.10859  0  0.978608  0
H  H12  1  0.56008363  0.55686972  0.53046028  1  0  0.107785  0  0.95641  0  0  0.116701  0  1.021728  0  0  0.120062  0  1.019501  0  0  0.106598  0.114278  0  1.023449  0
H  H13  1  0.43991916  0.44313068  0.46953878  1  0  0.107742  0  0.956373  0  0  0.116659  0  1.021703  0  0  0.120021  0  1.019476  0  0  0.10657  0.114232  0  1.023428  0
H  H14  1  0.04890879  0.75965620  0.53069172  1  0  0.100771  0  0.941418  0  0  0.107273  0  1.00651  0  0  0.110684  0  1.003591  0  0  0.116057  0.103767  0  1.010348  0
H  H15  1  0.95109257  0.24034245  0.46930950  1  0  0.100807  0  0.941376  0  0  0.107311  0  1.006465  0  0  0.110721  0  1.003548  0  0  0.116072  0.103806  0  1.010308  0
H  H16  1  0.44698700  0.84203398  0.56049103  1  0  0.126911  0  0.942647  0  0  0.134848  0  1.004717  0  0  0.137931  0  1.002815  0  0  0.111156  0.131671  0  1.007788  0
H  H17  1  0.55301194  0.15796555  0.43951014  1  0  0.126928  0  0.942598  0  0  0.13486  0  1.004676  0  0  0.137944  0  1.002773  0  0  0.111152  0.131677  0  1.007751  0
H  H18  1  0.30927350  0.95777047  0.69302758  1  0  0.119459  0  0.933934  0  0  0.131514  0  0.984883  0  0  0.134325  0  0.984298  0  0  0.117815  0.129302  0  0.985609  0
H  H19  1  0.69072583  0.04223082  0.30697230  1  0  0.11944  0  0.933906  0  0  0.131489  0  0.984872  0  0  0.1343  0  0.984287  0  0  0.117811  0.129279  0  0.985604  0
H  H20  1  0.04811181  0.96523498  0.74142656  1  0  0.106761  0  0.922112  0  0  0.114548  0  0.983552  0  0  0.118087  0  0.980076  0  0  0.127646  0.111686  0  0.986319  0
H  H21  1  0.95188615  0.03476719  0.25857239  1  0  0.106744  0  0.922168  0  0  0.114555  0  0.983586  0  0  0.118092  0  0.980111  0  0  0.127652  0.111686  0  0.986358  0
H  H22  1  0.16535494  0.67347801  0.20749820  1  0  0.106858  0  0.938947  0  0  0.115856  0  0.999543  0  0  0.119848  0  0.996543  0  0  0.108355  0.113274  0  1.001172  0
H  H23  1  0.83464255  0.32651976  0.79250199  1  0  0.106853  0  0.938936  0  0  0.115809  0  0.999582  0  0  0.119801  0  0.996585  0  0  0.108339  0.113229  0  1.001207  0
H  H24  1  0.10836482  0.48194674  0.29644456  1  0  0.093006  0  0.972376  0  0  0.10029  0  1.036951  0  0  0.103502  0  1.035185  0  0  0.090309  0.097949  0  1.037969  0
H  H25  1  0.89163170  0.51805367  0.70355578  1  0  0.092981  0  0.972356  0  0  0.100258  0  1.036948  0  0  0.103468  0  1.035184  0  0  0.090297  0.09792  0  1.037971  0
H  H26  1  0.92247623  0.43007336  0.21517346  1  0  0.115909  0  0.950588  0  0  0.125265  0  1.011995  0  0  0.128802  0  1.01022  0  0  0.106649  0.122701  0  1.013397  0
H  H27  1  0.07752166  0.56992617  0.78482622  1  0  0.115936  0  0.950558  0  0  0.125254  0  1.012001  0  0  0.128787  0  1.010227  0  0  0.10667  0.122694  0  1.013405  0
H  H28  1  0.73908139  0.37385935  0.99677387  1  0  0.096592  0  0.967328  0  0  0.102346  0  1.037311  0  0  0.104428  0  1.036568  0  0  0.117211  0.100876  0  1.037576  0
H  H29  1  0.26092239  0.62613841  0.00322741  1  0  0.096604  0  0.96736  0  0  0.102333  0  1.037359  0  0  0.104414  0  1.036619  0  0  0.117218  0.100863  0  1.037624  0
H  H30  1  0.59351942  0.62343786  0.19435854  1  0  0.115334  0  0.954639  0  0  0.124778  0  1.017235  0  0  0.126696  0  1.017425  0  0  0.111761  0.123412  0  1.017124  0
H  H31  1  0.40648403  0.37656078  0.80564174  1  0  0.115283  0  0.95465  0  0  0.124727  0  1.01726  0  0  0.126646  0  1.017448  0  0  0.111744  0.123362  0  1.017145  0
H  H32  1  0.41145427  0.51661854  0.28460596  1  0  0.09865  0  0.948211  0  0  0.113135  0  0.999652  0  0  0.115367  0  0.999849  0  0  0.108094  0.11156  0  0.999232  0
H  H33  1  0.58854886  0.48338098  0.71539489  1  0  0.098645  0  0.948223  0  0  0.113132  0  0.999657  0  0  0.115359  0  0.999864  0  0  0.108085  0.111557  0  0.999232  0
H  H34  1  0.40615008  0.33966477  0.22786039  1  0  0.083008  0  0.952311  0  0  0.088079  0  1.022923  0  0  0.091194  0  1.020018  0  0  0.106349  0.085866  0  1.024926  0
H  H35  1  0.59384925  0.66033651  0.77213870  1  0  0.08297  0  0.952294  0  0  0.088036  0  1.02292  0  0  0.091153  0  1.020013  0  0  0.106343  0.085829  0  1.024923  0
C  C36  1  0.45582188  0.72167554  0.41842897  1  0  0.236222  0  3.777539  0  0  0.222029  0  4.043816  0  0  0.229671  0  4.060548  0  0  0.08234  0.21683  0  4.031949  0
C  C37  1  0.54417850  0.27832575  0.58157162  1  0  0.236205  0  3.777449  0  0  0.222033  0  4.043698  0  0  0.229678  0  4.060428  0  0  0.08233  0.216828  0  4.031823  0
C  C38  1  0.46873313  0.81221191  0.32735211  1  0  -0.141518  0  3.691944  0  0  -0.136045  0  3.930489  0  0  -0.140346  0  3.947269  0  0  -0.003521  -0.133173  0  3.919074  0
C  C39  1  0.53126718  0.18778674  0.67264762  1  0  -0.141514  0  3.692116  0  0  -0.136058  0  3.930586  0  0  -0.140362  0  3.947375  0  0  -0.003506  -0.133177  0  3.919149  0
C  C40  1  0.60823685  0.80618755  0.27869394  1  0  -0.062962  0  3.726997  0  0  -0.04669  0  3.960297  0  0  -0.052533  0  3.979481  0  0  -0.008624  -0.042583  0  3.946564  0
C  C41  1  0.39176451  0.19381109  0.72130571  1  0  -0.063058  0  3.727097  0  0  -0.046733  0  3.960369  0  0  -0.052571  0  3.979553  0  0  -0.008653  -0.042628  0  3.946629  0
C  C42  1  0.73022538  0.71193665  0.32252696  1  0  -0.064978  0  3.725032  0  0  -0.095736  0  3.980161  0  0  -0.095394  0  3.999985  0  0  -0.080585  -0.095522  0  3.966176  0
C  C43  1  0.26977532  0.28806376  0.67747305  1  0  -0.064919  0  3.724973  0  0  -0.095691  0  3.980089  0  0  -0.095346  0  3.999912  0  0  -0.080559  -0.09548  0  3.96611  0
C  C44  1  0.71393130  0.62098105  0.41142602  1  0  -0.033715  0  3.764096  0  0  -0.048944  0  4.023624  0  0  -0.050237  0  4.042851  0  0  -0.085183  -0.048169  0  4.010447  0
C  C45  1  0.28607150  0.37901935  0.58857382  1  0  -0.033739  0  3.764099  0  0  -0.048962  0  4.023614  0  0  -0.050257  0  4.042843  0  0  -0.08518  -0.048191  0  4.01044  0
C  C46  1  0.57601389  0.62557119  0.45976468  1  0  -0.144985  0  3.732177  0  0  -0.175365  0  3.997899  0  0  -0.17683  0  4.01514  0  0  -0.089927  -0.174236  0  3.986025  0
C  C47  1  0.42398649  0.37443010  0.54023590  1  0  -0.144958  0  3.732102  0  0  -0.175349  0  3.997811  0  0  -0.176813  0  4.015054  0  0  -0.089937  -0.174216  0  3.985931  0
C  C48  1  0.33634996  0.91692078  0.28924096  1  0  0.727149  0  3.877898  0  0  0.668218  0  4.184363  0  0  0.70516  0  4.174471  0  0  0.230367  0.642857  0  4.193031  0
C  C49  1  0.66365211  0.08307874  0.71075682  1  0  0.727126  0  3.878048  0  0  0.668264  0  4.184384  0  0  0.705199  0  4.174508  0  0  0.230403  0.642903  0  4.193035  0
C  C50  1  0.62814290  0.89469929  0.17619330  1  0  0.687714  0  3.885112  0  0  0.639984  0  4.178078  0  0  0.674979  0  4.174959  0  0  0.215268  0.615772  0  4.185279  0
C  C51  1  0.37185539  0.10530201  0.82380903  1  0  0.687797  0  3.884838  0  0  0.639991  0  4.177898  0  0  0.674987  0  4.174781  0  0  0.215267  0.615773  0  4.185103  0
C  C52  1  0.11066322  0.80197447  0.56529233  1  0  0.010681  0  3.687107  0  0  -0.02876  0  3.936539  0  0  -0.025073  0  3.954302  0  0  0.033732  -0.030892  0  3.925746  0
C  C53  1  0.88933879  0.19802241  0.43470854  1  0  0.010534  0  3.687147  0  0  -0.028895  0  3.936604  0  0  -0.025209  0  3.954369  0  0  0.033673  -0.031032  0  3.92581  0
C  C54  1  0.25745427  0.79164205  0.53656067  1  0  0.233966  0  3.790438  0  0  0.22963  0  4.050148  0  0  0.235087  0  4.068119  0  0  0.091956  0.224984  0  4.038594  0
C  C55  1  0.74254604  0.20835660  0.46344143  1  0  0.233865  0  3.790622  0  0  0.229554  0  4.050311  0  0  0.235011  0  4.068281  0  0  0.091943  0.224914  0  4.038741  0
C  C56  1  0.33240825  0.84806159  0.58183407  1  0  -0.11926  0  3.689792  0  0  -0.147727  0  3.942258  0  0  -0.147189  0  3.959992  0  0  -0.074157  -0.147541  0  3.931339  0
C  C57  1  0.66759480  0.15193529  0.41816750  1  0  -0.119304  0  3.689929  0  0  -0.147766  0  3.942372  0  0  -0.147226  0  3.960109  0  0  -0.074197  -0.147568  0  3.931431  0
C  C58  1  0.25594822  0.91227680  0.65546956  1  0  -0.068595  0  3.711339  0  0  -0.079529  0  3.963048  0  0  -0.08416  0  3.982713  0  0  -0.068154  -0.076555  0  3.949679  0
C  C59  1  0.74405313  0.08772185  0.34453088  1  0  -0.068457  0  3.7114  0  0  -0.079384  0  3.963092  0  0  -0.084018  0  3.982758  0  0  -0.068102  -0.076421  0  3.949735  0
C  C60  1  0.11022067  0.91803475  0.68239990  1  0  0.108714  0  3.668393  0  0  0.069757  0  3.925806  0  0  0.077008  0  3.941509  0  0  0.042534  0.065113  0  3.915  0
C  C61  1  0.88977964  0.08196389  0.31759983  1  0  0.108588  0  3.668485  0  0  0.069623  0  3.92593  0  0  0.076874  0  3.941635  0  0  0.042503  0.064979  0  3.915131  0
C  C62  1  0.87425026  0.58893200  0.08355755  1  0  0.255528  0  3.759526  0  0  0.238857  0  4.02724  0  0  0.248671  0  4.042311  0  0  0.088327  0.231719  0  4.017101  0
C  C63  1  0.12574835  0.41106841  0.91644263  1  0  0.255487  0  3.759328  0  0  0.238797  0  4.027049  0  0  0.248604  0  4.042129  0  0  0.088318  0.231667  0  4.016904  0
C  C64  1  0.90689112  0.69377096  0.03237941  1  0  -0.156975  0  3.708059  0  0  -0.154878  0  3.955487  0  0  -0.160534  0  3.972921  0  0  -0.012631  -0.15093  0  3.944391  0
C  C65  1  0.09310782  0.30622857  0.96762098  1  0  -0.156957  0  3.708099  0  0  -0.154802  0  3.955481  0  0  -0.160457  0  3.972919  0  0  -0.012597  -0.150853  0  3.944383  0
C  C66  1  0.01185185  0.72372959  0.07840948  1  0  -0.068567  0  3.747501  0  0  -0.054903  0  3.983523  0  0  -0.059412  0  4.001944  0  0  -0.009061  -0.052399  0  3.971278  0
C  C67  1  0.98814637  0.27626906  0.92159199  1  0  -0.068635  0  3.747635  0  0  -0.054976  0  3.983666  0  0  -0.059492  0  4.002086  0  0  -0.009086  -0.052466  0  3.971415  0
C  C68  1  0.08388587  0.64810744  0.17392243  1  0  -0.086465  0  3.737921  0  0  -0.114372  0  3.99611  0  0  -0.11434  0  4.012753  0  0  -0.087589  -0.114082  0  3.983974  0
C  C69  1  0.91611268  0.35189033  0.82608004  1  0  -0.086388  0  3.737895  0  0  -0.114258  0  3.996081  0  0  -0.114228  0  4.012731  0  0  -0.087517  -0.113961  0  3.983939  0
C  C70  1  0.05088207  0.54330809  0.22353264  1  0  -0.049046  0  3.768318  0  0  -0.061879  0  4.025117  0  0  -0.062715  0  4.044255  0  0  -0.088924  -0.060782  0  4.011225  0
C  C71  1  0.94911752  0.45668968  0.77646897  1  0  -0.049073  0  3.768347  0  0  -0.061896  0  4.025126  0  0  -0.062735  0  4.044266  0  0  -0.088948  -0.060805  0  4.011244  0
C  C72  1  0.94559857  0.51334863  0.17881160  1  0  -0.155436  0  3.730838  0  0  -0.183747  0  3.994508  0  0  -0.186341  0  4.012059  0  0  -0.093777  -0.181853  0  3.982344  0
C  C73  1  0.05439965  0.48665001  0.82118829  1  0  -0.155433  0  3.730881  0  0  -0.183703  0  3.994559  0  0  -0.186288  0  4.012108  0  0  -0.093797  -0.181812  0  3.982404  0
C  C74  1  0.83502250  0.77044490  0.92640700  1  0  0.739326  0  3.85181  0  0  0.678079  0  4.156698  0  0  0.715523  0  4.145301  0  0  0.23558  0.651625  0  4.167436  0
C  C75  1  0.16498199  0.22955373  0.07359083  1  0  0.739302  0  3.85188  0  0  0.678021  0  4.156783  0  0  0.715465  0  4.145388  0  0  0.235563  0.651561  0  4.167529  0
C  C76  1  0.04677453  0.83605714  0.02242039  1  0  0.733907  0  3.843444  0  0  0.687173  0  4.131852  0  0  0.723705  0  4.123083  0  0  0.240749  0.662094  0  4.140479  0
C  C77  1  0.95322441  0.16394240  0.97758315  1  0  0.733967  0  3.843255  0  0  0.687186  0  4.131743  0  0  0.723735  0  4.122951  0  0  0.240743  0.662101  0  4.140374  0
C  C78  1  0.66963285  0.40610949  0.06177377  1  0  0.027499  0  3.673785  0  0  -0.015335  0  3.933991  0  0  -0.010568  0  3.949653  0  0  0.041908  -0.017539  0  3.922571  0
C  C79  1  0.33036681  0.59389092  0.93822632  1  0  0.027474  0  3.673901  0  0  -0.015333  0  3.934105  0  0  -0.01057  0  3.949771  0  0  0.04189  -0.017532  0  3.922681  0
C  C80  1  0.68110112  0.50393048  0.09064643  1  0  0.220819  0  3.793721  0  0  0.214386  0  4.059399  0  0  0.219578  0  4.076017  0  0  0.089593  0.210225  0  4.048254  0
C  C81  1  0.31889821  0.49607081  0.90935266  1  0  0.220828  0  3.793785  0  0  0.214402  0  4.059436  0  0  0.219596  0  4.076056  0  0  0.0896  0.210236  0  4.048301  0
C  C82  1  0.58846437  0.54566239  0.17224273  1  0  -0.116721  0  3.709254  0  0  -0.142859  0  3.959154  0  0  -0.142554  0  3.97814  0  0  -0.073788  -0.143165  0  3.946362  0
C  C83  1  0.41153496  0.45433890  0.82775715  1  0  -0.116639  0  3.709243  0  0  -0.142774  0  3.959126  0  0  -0.142469  0  3.978112  0  0  -0.073742  -0.143073  0  3.946329  0
C  C84  1  0.48805597  0.48605087  0.22210894  1  0  -0.104695  0  3.762918  0  0  -0.11567  0  4.016394  0  0  -0.122155  0  4.040206  0  0  -0.082751  -0.111194  0  3.999706  0
C  C85  1  0.51194441  0.51395042  0.77789085  1  0  -0.104743  0  3.762932  0  0  -0.115717  0  4.016415  0  0  -0.122204  0  4.040225  0  0  -0.082767  -0.111242  0  3.999733  0
C  C86  1  0.48346295  0.38813542  0.18980406  1  0  0.104271  0  3.720321  0  0  0.068755  0  3.979877  0  0  0.073724  0  3.998761  0  0  0.039836  0.06588  0  3.966605  0
C  C87  1  0.51653468  0.61186763  0.81019469  1  0  0.104363  0  3.720296  0  0  0.068846  0  3.979862  0  0  0.073817  0  3.998743  0  0  0.039859  0.065964  0  3.966602  0
N  N88  1  0.03968564  0.86347197  0.63713298  1  0  -0.311928  0  3.364624  0  0  -0.225267  0  3.643477  0  0  -0.244048  0  3.660345  0  0  -0.329203  -0.212581  0  3.631753  0
N  N89  1  0.96031363  0.13652668  0.36286684  1  0  -0.311666  0  3.364575  0  0  -0.225065  0  3.643473  0  0  -0.243841  0  3.660341  0  0  -0.329162  -0.212379  0  3.631747  0
N  N90  1  0.57284605  0.34951961  0.11073723  1  0  -0.281725  0  3.208749  0  0  -0.213898  0  3.452089  0  0  -0.227255  0  3.468668  0  0  -0.301992  -0.20473  0  3.440078  0
N  N91  1  0.42715256  0.65048080  0.88926215  1  0  -0.281767  0  3.20881  0  0  -0.213937  0  3.452133  0  0  -0.227293  0  3.468712  0  0  -0.302001  -0.204764  0  3.44012  0
Cl  Cl92  1  0.76541231  0.74537862  0.59800550  1  0  -0.596902  0  0.89529  0  0  -0.532501  0  1.157788  0  0  -0.5506  0  1.132637  0  0  -0.318473  -0.51862  0  1.175961  0
Cl  Cl93  1  0.23458146  0.25462356  0.40199300  1  0  -0.596903  0  0.895298  0  0  -0.532508  0  1.157791  0  0  -0.550605  0  1.13264  0  0  -0.318494  -0.518655  0  1.175988  0
O  O94  1  0.31694410  0.72323302  0.46456150  1  0  -0.294483  0  2.329041  0  0  -0.22775  0  2.547763  0  0  -0.244728  0  2.550107  0  0  -0.155584  -0.215352  0  2.545884  0
O  O95  1  0.68305798  0.27676650  0.53543943  1  0  -0.294425  0  2.329136  0  0  -0.227729  0  2.54787  0  0  -0.244706  0  2.550212  0  0  -0.155553  -0.215337  0  2.545987  0
O  O96  1  0.31814456  0.99832612  0.33714898  1  0  -0.606252  0  2.068793  0  0  -0.533836  0  2.341841  0  0  -0.562852  0  2.324968  0  0  -0.299885  -0.513161  0  2.352535  0
O  O97  1  0.68185410  0.00167691  0.66284259  1  0  -0.606314  0  2.068786  0  0  -0.533914  0  2.341786  0  0  -0.562935  0  2.324922  0  0  -0.299961  -0.513246  0  2.352472  0
O  O98  1  0.25442686  0.91689702  0.21734297  1  0  -0.721397  0  2.00677  0  0  -0.675942  0  2.261677  0  0  -0.711048  0  2.244066  0  0  -0.394635  -0.658801  0  2.271429  0
O  O99  1  0.74557278  0.08310338  0.78265319  1  0  -0.721346  0  2.006823  0  0  -0.675913  0  2.261668  0  0  -0.711012  0  2.244061  0  0  -0.394616  -0.658794  0  2.271437  0
O  O100  1  0.52408973  0.94301905  0.10647321  1  0  -0.804699  0  2.159791  0  0  -0.745093  0  2.417079  0  0  -0.787448  0  2.407048  0  0  -0.410894  -0.72593  0  2.423107  0
O  O101  1  0.47590464  0.05697873  0.89353037  1  0  -0.804695  0  2.159754  0  0  -0.745086  0  2.417123  0  0  -0.787446  0  2.407093  0  0  -0.410882  -0.725902  0  2.423108  0
O  O102  1  0.74911971  0.91816120  0.15543703  1  0  -0.683043  0  1.950241  0  0  -0.640325  0  2.186824  0  0  -0.672872  0  2.175318  0  0  -0.369437  -0.623746  0  2.193196  0
O  O103  1  0.25087276  0.08184452  0.84456534  1  0  -0.683063  0  1.949995  0  0  -0.640331  0  2.186635  0  0  -0.672878  0  2.175132  0  0  -0.369455  -0.623756  0  2.193007  0
O  O104  1  0.77678104  0.56094778  0.02962501  1  0  -0.28301  0  2.348561  0  0  -0.214763  0  2.573498  0  0  -0.232639  0  2.578015  0  0  -0.148327  -0.202241  0  2.570048  0
O  O105  1  0.22321966  0.43905263  0.97037500  1  0  -0.282966  0  2.348393  0  0  -0.214732  0  2.573357  0  0  -0.232606  0  2.57787  0  0  -0.148309  -0.20221  0  2.569913  0
O  O106  1  0.90035297  0.74897952  0.83941176  1  0  -0.591706  0  2.063877  0  0  -0.52016  0  2.335276  0  0  -0.54882  0  2.319907  0  0  -0.291048  -0.500194  0  2.345324  0
O  O107  1  0.09965820  0.25102088  0.16058822  1  0  -0.591651  0  2.063962  0  0  -0.520075  0  2.335313  0  0  -0.548732  0  2.319944  0  0  -0.290964  -0.500101  0  2.345365  0
O  O108  1  0.71333476  0.85043724  0.92912875  1  0  -0.75881  0  2.117677  0  0  -0.69882  0  2.367289  0  0  -0.733598  0  2.352154  0  0  -0.383011  -0.680253  0  2.376898  0
O  O109  1  0.28666875  0.14956404  0.07086765  1  0  -0.758812  0  2.117689  0  0  -0.698817  0  2.367326  0  0  -0.733596  0  2.352194  0  0  -0.383052  -0.680252  0  2.37694  0
O  O110  1  0.95043687  0.91885491  0.96186575  1  0  -0.737796  0  2.079586  0  0  -0.68942  0  2.334422  0  0  -0.725534  0  2.321713  0  0  -0.384731  -0.670049  0  2.341052  0
O  O111  1  0.04956175  0.08114552  0.03814073  1  0  -0.737852  0  2.079363  0  0  -0.689484  0  2.334255  0  0  -0.725597  0  2.321535  0  0  -0.384816  -0.670113  0  2.34089  0
O  O112  1  0.17408558  0.83961248  0.03662123  1  0  -0.719715  0  2.035383  0  0  -0.668142  0  2.290765  0  0  -0.704172  0  2.274137  0  0  -0.408288  -0.650143  0  2.300138  0
O  O113  1  0.82591507  0.16038530  0.96338423  1  0  -0.719707  0  2.035401  0  0  -0.668101  0  2.290769  0  0  -0.704133  0  2.274137  0  0  -0.408241  -0.650098  0  2.300144  0
O  O114  1  0.54943177  0.18027364  0.02976900  1  0  -0.95526  0  1.910334  0  0  -0.903396  0  2.123778  0  0  -0.934616  0  2.084429  0  0  -0.680614  -0.888787  0  2.148418  0
O  O115  1  0.45056618  0.81972852  0.97022760  1  0  -0.955265  0  1.910313  0  0  -0.9034  0  2.123753  0  0  -0.934623  0  2.084405  0  0  -0.680635  -0.888795  0  2.148397  0
