# generated using pymatgen
data_CdH10C8(IN2)2
_symmetry_space_group_name_H-M   'P 1'
_cell_length_a   5.32458768
_cell_length_b   8.26348312
_cell_length_c   15.63727726
_cell_angle_alpha   87.86687024
_cell_angle_beta   83.33945880
_cell_angle_gamma   71.26339828
_symmetry_Int_Tables_number   1
_chemical_formula_structural   CdH10C8(IN2)2
_chemical_formula_sum   'Cd2 H20 C16 I4 N8'
_cell_volume   647.17475377
_cell_formula_units_Z   2
loop_
 _symmetry_equiv_pos_site_id
 _symmetry_equiv_pos_as_xyz
  1  'x, y, z'
loop_
 _atom_site_type_symbol
 _atom_site_label
 _atom_site_symmetry_multiplicity
 _atom_site_fract_x
 _atom_site_fract_y
 _atom_site_fract_z
 _atom_site_occupancy
 _atom_site_hle17_bader_spin_density
 _atom_site_hle17_ddec_charge
 _atom_site_hle17_ddec_spin_density
 _atom_site_hle17_ddec_sum_bond_order
 _atom_site_hle17_magmom
 _atom_site_hse06_10hf_bader_spin_density
 _atom_site_hse06_10hf_ddec_charge
 _atom_site_hse06_10hf_ddec_spin_density
 _atom_site_hse06_10hf_ddec_sum_bond_order
 _atom_site_hse06_10hf_magmom
 _atom_site_hse06_bader_spin_density
 _atom_site_hse06_ddec_charge
 _atom_site_hse06_ddec_spin_density
 _atom_site_hse06_ddec_sum_bond_order
 _atom_site_hse06_magmom
 _atom_site_pbe_bader_spin_density
 _atom_site_pbe_cm5_charge
 _atom_site_pbe_ddec_charge
 _atom_site_pbe_ddec_spin_density
 _atom_site_pbe_ddec_sum_bond_order
 _atom_site_pbe_magmom
Cd  Cd0  1  0.17176501  0.38392788  0.78596907  1  0  0.804165  0  2.038422  0  0  0.629937  0  2.518113  0  0  0.677312  0  2.479435  0  0  0.534385  0.597585  0  2.543816  0
Cd  Cd1  1  0.55794417  0.61592965  0.28722118  1  0  0.804476  0  2.039348  0  0  0.630182  0  2.519528  0  0  0.677548  0  2.48083  0  0  0.534531  0.59783  0  2.545254  0
H  H2  1  0.60258878  0.76577792  0.53786672  1  0  0.110809  0  0.976876  0  0  0.117168  0  1.046295  0  0  0.120785  0  1.043433  0  0  0.107772  0.11452  0  1.048491  0
H  H3  1  0.36600123  0.23751491  0.03811990  1  0  0.111217  0  0.976032  0  0  0.117583  0  1.045313  0  0  0.121195  0  1.042436  0  0  0.108434  0.114945  0  1.047523  0
H  H4  1  0.07583935  0.54050912  0.58791193  1  0  0.094118  0  0.981697  0  0  0.098076  0  1.05326  0  0  0.100942  0  1.051752  0  0  0.102067  0.095999  0  1.054447  0
H  H5  1  0.61674106  0.46127677  0.08875448  1  0  0.09364  0  0.980412  0  0  0.097555  0  1.052012  0  0  0.100386  0  1.050563  0  0  0.102253  0.095495  0  1.053191  0
H  H6  1  0.09591755  0.86360148  0.73899318  1  0  0.107737  0  0.949496  0  0  0.126144  0  1.015544  0  0  0.127179  0  1.015597  0  0  0.102912  0.125313  0  1.015588  0
H  H7  1  0.95696096  0.13894641  0.23913542  1  0  0.108048  0  0.949486  0  0  0.12705  0  1.014651  0  0  0.128063  0  1.014703  0  0  0.103199  0.126232  0  1.014689  0
H  H8  1  0.10162668  0.84922056  0.62505517  1  0  0.104702  0  0.965864  0  0  0.122014  0  1.03385  0  0  0.123087  0  1.034014  0  0  0.093745  0.121178  0  1.033815  0
H  H9  1  0.95118405  0.15143575  0.12511982  1  0  0.104718  0  0.965239  0  0  0.122058  0  1.033203  0  0  0.123136  0  1.033322  0  0  0.094089  0.121175  0  1.03326  0
H  H10  1  0.22159734  0.00361237  0.67005645  1  0  0.090725  0  0.996398  0  0  0.104261  0  1.074275  0  0  0.105905  0  1.072781  0  0  0.08198  0.102968  0  1.075439  0
H  H11  1  0.22343565  0.99794395  0.17112499  1  0  0.091756  0  0.995213  0  0  0.105019  0  1.073256  0  0  0.106625  0  1.07178  0  0  0.082165  0.103725  0  1.074428  0
H  H12  1  0.34446334  0.79095280  0.02666417  1  0  0.113771  0  0.969272  0  0  0.120235  0  1.037166  0  0  0.123702  0  1.034544  0  0  0.111984  0.117667  0  1.039207  0
H  H13  1  0.13526131  0.20641977  0.52707305  1  0  0.113913  0  0.968653  0  0  0.119849  0  1.037127  0  0  0.123363  0  1.034445  0  0  0.111549  0.117325  0  1.039108  0
H  H14  1  0.10436366  0.55596342  0.98346863  1  0  0.0955  0  0.979385  0  0  0.100196  0  1.050197  0  0  0.102969  0  1.04891  0  0  0.102909  0.09817  0  1.051266  0
H  H15  1  0.66126267  0.44177203  0.48393343  1  0  0.09631  0  0.979811  0  0  0.099909  0  1.051762  0  0  0.102707  0  1.050534  0  0  0.102556  0.097866  0  1.052776  0
H  H16  1  0.61259539  0.95096514  0.94488687  1  0  0.111137  0  0.945928  0  0  0.130682  0  1.009982  0  0  0.132286  0  1.008836  0  0  0.100367  0.129451  0  1.010907  0
H  H17  1  0.56100965  0.04631553  0.44563393  1  0  0.110562  0  0.946804  0  0  0.130051  0  1.011221  0  0  0.131621  0  1.010101  0  0  0.100034  0.12884  0  1.012138  0
H  H18  1  0.56648356  0.97902753  0.83360666  1  0  0.093948  0  0.976437  0  0  0.107098  0  1.054691  0  0  0.108155  0  1.054074  0  0  0.089943  0.106228  0  1.055221  0
H  H19  1  0.54721504  0.02076694  0.33378340  1  0  0.093602  0  0.976895  0  0  0.106648  0  1.055203  0  0  0.107755  0  1.054529  0  0  0.089583  0.105745  0  1.055764  0
H  H20  1  0.85428235  0.81856747  0.86732840  1  0  0.103349  0  0.971672  0  0  0.120829  0  1.038973  0  0  0.121285  0  1.039907  0  0  0.097983  0.120415  0  1.038441  0
H  H21  1  0.67403504  0.18023646  0.36969644  1  0  0.103215  0  0.972171  0  0  0.120736  0  1.039402  0  0  0.121186  0  1.04039  0  0  0.097727  0.12032  0  1.038841  0
C  C22  1  0.59581245  0.66234629  0.74006343  1  0  0.206105  0  3.748888  0  0  0.17323  0  4.01711  0  0  0.185403  0  4.031969  0  0  0.206608  0.165258  0  4.00687  0
C  C23  1  0.25942591  0.33787507  0.24070877  1  0  0.2051  0  3.748485  0  0  0.174017  0  4.014974  0  0  0.186009  0  4.0299  0  0  0.206741  0.166112  0  4.004749  0
C  C24  1  0.65533498  0.71294689  0.60031831  1  0  -0.048308  0  3.659592  0  0  -0.090598  0  3.917826  0  0  -0.088467  0  3.934234  0  0  0.002529  -0.091989  0  3.906931  0
C  C25  1  0.36689661  0.28945095  0.10068940  1  0  -0.0483  0  3.658514  0  0  -0.090541  0  3.916742  0  0  -0.088441  0  3.933218  0  0  0.002781  -0.09189  0  3.905746  0
C  C26  1  0.88728453  0.60134836  0.62605733  1  0  0.005737  0  3.777742  0  0  -0.026338  0  4.045364  0  0  -0.024424  0  4.065163  0  0  -0.007345  -0.027626  0  4.031993  0
C  C27  1  0.48886429  0.40012945  0.12669055  1  0  0.006426  0  3.776124  0  0  -0.02566  0  4.044322  0  0  -0.023785  0  4.064238  0  0  -0.006729  -0.026922  0  4.030882  0
C  C28  1  0.20638821  0.87424407  0.67673865  1  0  -0.17403  0  3.640041  0  0  -0.276375  0  3.885115  0  0  -0.273389  0  3.892754  0  0  -0.143308  -0.278099  0  3.879954  0
C  C29  1  0.07947777  0.12737846  0.17713990  1  0  -0.175414  0  3.64067  0  0  -0.277925  0  3.885735  0  0  -0.274919  0  3.893467  0  0  -0.143969  -0.279616  0  3.880578  0
C  C30  1  0.46550518  0.66591411  0.82761804  1  0  0.196973  0  3.760829  0  0  0.167758  0  4.026683  0  0  0.179668  0  4.041126  0  0  0.205608  0.159871  0  4.016852  0
C  C31  1  0.13295948  0.33350349  0.32827912  1  0  0.198038  0  3.759414  0  0  0.167656  0  4.026043  0  0  0.179889  0  4.040111  0  0  0.205799  0.159626  0  4.016362  0
C  C32  1  0.34970690  0.73029838  0.96593507  1  0  -0.042175  0  3.660176  0  0  -0.084644  0  3.918456  0  0  -0.082197  0  3.935255  0  0  0.005612  -0.086185  0  3.907281  0
C  C33  1  0.08033834  0.26768563  0.46640608  1  0  -0.043147  0  3.659373  0  0  -0.0851  0  3.918023  0  0  -0.08271  0  3.934774  0  0  0.005839  -0.086656  0  3.906821  0
C  C34  1  0.23332308  0.61357824  0.94362683  1  0  0.003872  0  3.770755  0  0  -0.029805  0  4.039736  0  0  -0.028353  0  4.059855  0  0  -0.008049  -0.030813  0  4.026196  0
C  C35  1  0.84804991  0.38491226  0.44415365  1  0  0.003952  0  3.771193  0  0  -0.028611  0  4.039547  0  0  -0.027234  0  4.059626  0  0  -0.008467  -0.029566  0  4.02606  0
C  C36  1  0.64124885  0.88488956  0.88358221  1  0  -0.178466  0  3.654143  0  0  -0.28308  0  3.903417  0  0  -0.279775  0  3.911275  0  0  -0.143565  -0.285064  0  3.898135  0
C  C37  1  0.52653047  0.11379322  0.38452992  1  0  -0.178387  0  3.655087  0  0  -0.282815  0  3.90376  0  0  -0.279568  0  3.911723  0  0  -0.142913  -0.284754  0  3.898393  0
I  I38  1  0.95077143  0.22094850  0.91523715  1  0  -0.479336  0  0.99634  0  0  -0.412383  0  1.317032  0  0  -0.431591  0  1.296864  0  0  -0.234794  -0.398924  0  1.330705  0
I  I39  1  0.17470933  0.77667470  0.41674997  1  0  -0.477746  0  1.003997  0  0  -0.410971  0  1.326388  0  0  -0.43023  0  1.306219  0  0  -0.232735  -0.397497  0  1.340036  0
I  I40  1  0.55841654  0.22113145  0.65690314  1  0  -0.472999  0  1.010328  0  0  -0.404135  0  1.329836  0  0  -0.423574  0  1.309334  0  0  -0.224279  -0.390502  0  1.343707  0
I  I41  1  0.77918882  0.78064894  0.15801662  1  0  -0.474715  0  1.004079  0  0  -0.405759  0  1.322209  0  0  -0.425148  0  1.301656  0  0  -0.22581  -0.392126  0  1.336107  0
N  N42  1  0.84922961  0.57162999  0.71284769  1  0  -0.390106  0  3.260141  0  0  -0.319075  0  3.54214  0  0  -0.33901  0  3.559372  0  0  -0.359205  -0.305513  0  3.530148  0
N  N43  1  0.42241113  0.42864867  0.21360778  1  0  -0.389844  0  3.259204  0  0  -0.319744  0  3.541362  0  0  -0.339622  0  3.558624  0  0  -0.358689  -0.306208  0  3.529384  0
N  N44  1  0.47329928  0.75010231  0.67254434  1  0  -0.031309  0  3.559672  0  0  0.067553  0  3.770696  0  0  0.053933  0  3.797067  0  0  -0.233926  0.076534  0  3.752796  0
N  N45  1  0.22291956  0.25136211  0.17292973  1  0  -0.030685  0  3.557817  0  0  0.067493  0  3.769152  0  0  0.053905  0  3.795504  0  0  -0.234164  0.07646  0  3.751273  0
N  N46  1  0.30545367  0.57491824  0.85766818  1  0  -0.393732  0  3.274889  0  0  -0.324447  0  3.55862  0  0  -0.343837  0  3.575038  0  0  -0.358306  -0.311213  0  3.547209  0
N  N47  1  0.88201638  0.42422135  0.35828735  1  0  -0.39421  0  3.276026  0  0  -0.324418  0  3.559531  0  0  -0.34388  0  3.575774  0  0  -0.35851  -0.311141  0  3.548148  0
N  N48  1  0.49459196  0.76233949  0.89245428  1  0  -0.032604  0  3.562861  0  0  0.065403  0  3.773051  0  0  0.051785  0  3.7992  0  0  -0.234449  0.074404  0  3.755316  0
N  N49  1  0.25766920  0.23639740  0.39303426  1  0  -0.032108  0  3.562753  0  0  0.066034  0  3.773158  0  0  0.052367  0  3.799239  0  0  -0.234473  0.075046  0  3.755468  0
