# generated using pymatgen
data_CuH14C17SN5
_symmetry_space_group_name_H-M   'P 1'
_cell_length_a   7.45318306
_cell_length_b   9.70654779
_cell_length_c   12.34172470
_cell_angle_alpha   86.19966111
_cell_angle_beta   73.66427549
_cell_angle_gamma   69.09877276
_symmetry_Int_Tables_number   1
_chemical_formula_structural   CuH14C17SN5
_chemical_formula_sum   'Cu2 H28 C34 S2 N10'
_cell_volume   799.85443282
_cell_formula_units_Z   2
loop_
 _symmetry_equiv_pos_site_id
 _symmetry_equiv_pos_as_xyz
  1  'x, y, z'
loop_
 _atom_site_type_symbol
 _atom_site_label
 _atom_site_symmetry_multiplicity
 _atom_site_fract_x
 _atom_site_fract_y
 _atom_site_fract_z
 _atom_site_occupancy
 _atom_site_hle17_bader_spin_density
 _atom_site_hle17_ddec_charge
 _atom_site_hle17_ddec_spin_density
 _atom_site_hle17_ddec_sum_bond_order
 _atom_site_hle17_magmom
 _atom_site_hse06_10hf_bader_spin_density
 _atom_site_hse06_10hf_ddec_charge
 _atom_site_hse06_10hf_ddec_spin_density
 _atom_site_hse06_10hf_ddec_sum_bond_order
 _atom_site_hse06_10hf_magmom
 _atom_site_hse06_bader_spin_density
 _atom_site_hse06_ddec_charge
 _atom_site_hse06_ddec_spin_density
 _atom_site_hse06_ddec_sum_bond_order
 _atom_site_hse06_magmom
 _atom_site_pbe_bader_spin_density
 _atom_site_pbe_cm5_charge
 _atom_site_pbe_ddec_charge
 _atom_site_pbe_ddec_spin_density
 _atom_site_pbe_ddec_sum_bond_order
 _atom_site_pbe_magmom
Cu  Cu0  1  0.65981083  0.58670421  0.64980260  1  0  0.460075  0  2.111505  0  0  0.357614  0  2.62915  0  0  0.351757  0  2.587568  0  0  0.512766  0.365368  0  2.654102  0
Cu  Cu1  1  0.34019953  0.41330380  0.35020521  1  0  0.460038  0  2.111619  0  0  0.357592  0  2.629285  0  0  0.351739  0  2.587701  0  0  0.512747  0.365341  0  2.654237  0
H  H2  1  0.88455619  0.28890290  0.74999517  1  0  0.097433  0  0.996808  0  0  0.101773  0  1.073233  0  0  0.105047  0  1.070833  0  0  0.098042  0.099454  0  1.07488  0
H  H3  1  0.11544021  0.71110508  0.25000286  1  0  0.097391  0  0.996873  0  0  0.101734  0  1.073298  0  0  0.105009  0  1.070898  0  0  0.098019  0.099415  0  1.074945  0
H  H4  1  0.94283953  0.07580685  0.87768398  1  0  0.088567  0  0.949276  0  0  0.102575  0  1.002957  0  0  0.105186  0  1.002671  0  0  0.096932  0.100687  0  1.003155  0
H  H5  1  0.05716039  0.92419670  0.12231045  1  0  0.088549  0  0.949302  0  0  0.102574  0  1.002967  0  0  0.105186  0  1.002679  0  0  0.096916  0.100681  0  1.003164  0
H  H6  1  0.67041019  0.06223676  0.04433502  1  0  0.084223  0  0.973767  0  0  0.095532  0  1.034733  0  0  0.097786  0  1.034823  0  0  0.093988  0.093789  0  1.035104  0
H  H7  1  0.32958992  0.93776349  0.95566360  1  0  0.084266  0  0.973736  0  0  0.095533  0  1.034748  0  0  0.097783  0  1.034838  0  0  0.093987  0.093789  0  1.035118  0
H  H8  1  0.33329995  0.25847301  0.08838767  1  0  0.10366  0  0.968661  0  0  0.116601  0  1.029778  0  0  0.119375  0  1.0278  0  0  0.097543  0.114615  0  1.03126  0
H  H9  1  0.66669963  0.74152834  0.91161017  1  0  0.103686  0  0.968677  0  0  0.116624  0  1.029789  0  0  0.1194  0  1.027812  0  0  0.097545  0.114639  0  1.031271  0
H  H10  1  0.21261081  0.68329479  0.82265224  1  0  0.092931  0  0.933588  0  0  0.100966  0  0.998736  0  0  0.103559  0  0.995615  0  0  0.132307  0.098911  0  1.001262  0
H  H11  1  0.78739296  0.31670657  0.17734489  1  0  0.092942  0  0.933513  0  0  0.100941  0  0.998711  0  0  0.103535  0  0.995589  0  0  0.132283  0.098887  0  1.001235  0
H  H12  1  0.97761006  0.66324981  0.01195241  1  0  0.083852  0  0.910336  0  0  0.101635  0  0.968015  0  0  0.102144  0  0.968334  0  0  0.116467  0.101247  0  0.967775  0
H  H13  1  0.02238480  0.33675263  0.98804374  1  0  0.083898  0  0.910386  0  0  0.101639  0  0.9681  0  0  0.10215  0  0.96842  0  0  0.116452  0.101251  0  0.96786  0
H  H14  1  0.06779199  0.52264091  0.10272287  1  0  0.081421  0  0.95169  0  0  0.091867  0  1.025571  0  0  0.092387  0  1.026088  0  0  0.104578  0.091275  0  1.025559  0
H  H15  1  0.93220060  0.47736043  0.89727453  1  0  0.08139  0  0.951728  0  0  0.091893  0  1.025548  0  0  0.092417  0  1.026069  0  0  0.10457  0.091299  0  1.025542  0
H  H16  1  0.58737720  0.90092632  0.77585144  1  0  0.095521  0  0.976908  0  0  0.107571  0  1.039069  0  0  0.110409  0  1.036954  0  0  0.094682  0.105487  0  1.04071  0
H  H17  1  0.41262204  0.09907282  0.22414819  1  0  0.095562  0  0.976852  0  0  0.107605  0  1.039016  0  0  0.110441  0  1.036903  0  0  0.094697  0.10553  0  1.040648  0
H  H18  1  0.47059025  0.17256372  0.81169785  1  0  0.072317  0  1.031658  0  0  0.081693  0  1.098216  0  0  0.082514  0  1.101258  0  0  0.085883  0.081074  0  1.096209  0
H  H19  1  0.52940706  0.82743653  0.18830287  1  0  0.072345  0  1.031626  0  0  0.081706  0  1.0982  0  0  0.082529  0  1.10124  0  0  0.08588  0.081087  0  1.096193  0
H  H20  1  0.24618238  0.34681684  0.70861099  1  0  0.086159  0  0.975153  0  0  0.096225  0  1.038361  0  0  0.097822  0  1.039406  0  0  0.090794  0.094967  0  1.03789  0
H  H21  1  0.75381879  0.65318121  0.29138919  1  0  0.086131  0  0.975173  0  0  0.096214  0  1.038369  0  0  0.0978  0  1.039424  0  0  0.090785  0.094957  0  1.037896  0
H  H22  1  0.12575152  0.25578706  0.56971714  1  0  0.111816  0  0.959488  0  0  0.120973  0  1.023851  0  0  0.123288  0  1.022954  0  0  0.104913  0.119164  0  1.02474  0
H  H23  1  0.87424425  0.74420766  0.43028413  1  0  0.111807  0  0.959486  0  0  0.12095  0  1.023864  0  0  0.123303  0  1.022926  0  0  0.104915  0.119131  0  1.024766  0
H  H24  1  0.35399348  0.70272625  0.49935361  1  0  0.102497  0  0.953181  0  0  0.112584  0  1.01559  0  0  0.114947  0  1.012092  0  0  0.134896  0.110683  0  1.018349  0
H  H25  1  0.64601033  0.29726628  0.50065046  1  0  0.102589  0  0.953298  0  0  0.112664  0  1.015688  0  0  0.115026  0  1.012194  0  0  0.13495  0.110737  0  1.018477  0
H  H26  1  0.15024431  0.90213021  0.39632946  1  0  0.086334  0  0.915241  0  0  0.104377  0  0.974153  0  0  0.104649  0  0.975026  0  0  0.116918  0.104201  0  0.973446  0
H  H27  1  0.84975531  0.09786231  0.60367289  1  0  0.086338  0  0.915183  0  0  0.104372  0  0.974126  0  0  0.104643  0  0.975001  0  0  0.116902  0.104194  0  0.973414  0
H  H28  1  0.11663468  0.08878739  0.42096230  1  0  0.080647  0  0.94546  0  0  0.091004  0  1.019071  0  0  0.091412  0  1.019614  0  0  0.106074  0.090681  0  1.018716  0
H  H29  1  0.88336389  0.91120734  0.57904174  1  0  0.080528  0  0.945456  0  0  0.090915  0  1.01905  0  0  0.091324  0  1.019595  0  0  0.106021  0.090591  0  1.01869  0
C  C30  1  0.57731927  0.39134534  0.84745751  1  0  0.136436  0  3.827401  0  0  0.137112  0  4.071243  0  0  0.139237  0  4.092638  0  0  0.081543  0.13585  0  4.056653  0
C  C31  1  0.42268277  0.60865380  0.15254165  1  0  0.136466  0  3.827504  0  0  0.137138  0  4.071356  0  0  0.139262  0  4.092752  0  0  0.081562  0.135877  0  4.056765  0
C  C32  1  0.76640407  0.28137719  0.82304722  1  0  -0.135105  0  3.757912  0  0  -0.155857  0  4.012103  0  0  -0.15673  0  4.03038  0  0  -0.094088  -0.155264  0  3.999579  0
C  C33  1  0.23359131  0.71862416  0.17695296  1  0  -0.134982  0  3.757829  0  0  -0.155734  0  4.011997  0  0  -0.156608  0  4.030276  0  0  -0.094041  -0.155144  0  3.999473  0
C  C34  1  0.79660420  0.16368714  0.89511922  1  0  -0.090484  0  3.796815  0  0  -0.105069  0  4.047315  0  0  -0.107898  0  4.069421  0  0  -0.103913  -0.102685  0  4.031969  0
C  C35  1  0.20339678  0.83631422  0.10487757  1  0  -0.090539  0  3.797013  0  0  -0.105143  0  4.047511  0  0  -0.107973  0  4.069616  0  0  -0.103927  -0.10275  0  4.03216  0
C  C36  1  0.64186718  0.15579787  0.98954231  1  0  -0.080647  0  3.795681  0  0  -0.094668  0  4.047075  0  0  -0.096743  0  4.069815  0  0  -0.101386  -0.093576  0  4.032625  0
C  C37  1  0.35812541  0.84420347  0.01045753  1  0  -0.080752  0  3.795846  0  0  -0.094748  0  4.047264  0  0  -0.096816  0  4.070001  0  0  -0.101466  -0.093653  0  4.032807  0
C  C38  1  0.45212803  0.26535680  0.01520712  1  0  -0.147502  0  3.756605  0  0  -0.167462  0  4.011921  0  0  -0.170137  0  4.031417  0  0  -0.098795  -0.166026  0  3.999527  0
C  C39  1  0.54787242  0.73464565  0.98478809  1  0  -0.147441  0  3.756394  0  0  -0.16739  0  4.01169  0  0  -0.170068  0  4.031186  0  0  -0.098734  -0.165956  0  3.999295  0
C  C40  1  0.42238473  0.38295894  0.94254500  1  0  0.099278  0  3.772006  0  0  0.090388  0  4.01246  0  0  0.094451  0  4.035247  0  0  0.090364  0.087646  0  3.996849  0
C  C41  1  0.57761206  0.61704241  0.05745655  1  0  0.099227  0  3.772083  0  0  0.090313  0  4.012562  0  0  0.094376  0  4.03535  0  0  0.090402  0.087572  0  3.996949  0
C  C42  1  0.31494420  0.58239665  0.84609387  1  0  0.204574  0  3.650085  0  0  0.143123  0  3.92552  0  0  0.159455  0  3.935164  0  0  0.156969  0.132239  0  3.919413  0
C  C43  1  0.68505379  0.41760801  0.15390487  1  0  0.204551  0  3.650053  0  0  0.143117  0  3.925475  0  0  0.159447  0  3.935119  0  0  0.156987  0.132233  0  3.919368  0
C  C44  1  0.05700479  0.54436117  0.01571699  1  0  -0.01297  0  3.625371  0  0  -0.077332  0  3.88592  0  0  -0.073435  0  3.897252  0  0  -0.049158  -0.079825  0  3.878329  0
C  C45  1  0.94300125  0.45564129  0.98427889  1  0  -0.012894  0  3.625443  0  0  -0.077282  0  3.885955  0  0  -0.073409  0  3.897307  0  0  -0.049042  -0.079777  0  3.878367  0
C  C46  1  0.41356967  0.92502129  0.65739893  1  0  0.13548  0  3.839611  0  0  0.134208  0  4.086637  0  0  0.136572  0  4.109171  0  0  0.077629  0.13263  0  4.071584  0
C  C47  1  0.58643184  0.07497896  0.34260026  1  0  0.135454  0  3.839568  0  0  0.134255  0  4.086519  0  0  0.136619  0  4.109049  0  0  0.077612  0.132669  0  4.071481  0
C  C48  1  0.48223246  0.97731561  0.73452207  1  0  -0.147363  0  3.780789  0  0  -0.164622  0  4.029084  0  0  -0.16653  0  4.048135  0  0  -0.099568  -0.163291  0  4.016068  0
C  C49  1  0.51776991  0.02268575  0.26548015  1  0  -0.147426  0  3.780839  0  0  -0.164683  0  4.029087  0  0  -0.166597  0  4.048152  0  0  -0.0996  -0.163357  0  4.016071  0
C  C50  1  0.41756678  0.12946038  0.75271165  1  0  -0.096937  0  3.814054  0  0  -0.11242  0  4.065771  0  0  -0.114581  0  4.089103  0  0  -0.112639  -0.110819  0  4.049689  0
C  C51  1  0.58243280  0.87054097  0.24728619  1  0  -0.097023  0  3.813907  0  0  -0.112501  0  4.065642  0  0  -0.114662  0  4.088969  0  0  -0.112659  -0.110901  0  4.049566  0
C  C52  1  0.29000368  0.22824522  0.69440700  1  0  -0.075565  0  3.775269  0  0  -0.088915  0  4.024747  0  0  -0.091755  0  4.048156  0  0  -0.101781  -0.086846  0  4.008968  0
C  C53  1  0.70999836  0.77175393  0.30559297  1  0  -0.075388  0  3.775228  0  0  -0.088759  0  4.024692  0  0  -0.091588  0  4.048114  0  0  -0.101683  -0.086689  0  4.008911  0
C  C54  1  0.22008675  0.17828023  0.61668762  1  0  -0.141479  0  3.747901  0  0  -0.157411  0  3.997253  0  0  -0.15993  0  4.017548  0  0  -0.09479  -0.155788  0  3.983854  0
C  C55  1  0.77991023  0.82171781  0.38331246  1  0  -0.141502  0  3.748045  0  0  -0.157391  0  3.997366  0  0  -0.159945  0  4.017642  0  0  -0.094788  -0.155761  0  3.983976  0
C  C56  1  0.28227606  0.02556917  0.60057507  1  0  0.094496  0  3.77193  0  0  0.085797  0  4.010845  0  0  0.089473  0  4.034121  0  0  0.089956  0.083254  0  3.995295  0
C  C57  1  0.71772424  0.97442777  0.39942693  1  0  0.094574  0  3.771814  0  0  0.085788  0  4.010739  0  0  0.089461  0  4.034029  0  0  0.089937  0.083242  0  3.995195  0
C  C58  1  0.35472733  0.79430663  0.54513475  1  0  0.205359  0  3.642822  0  0  0.145317  0  3.911143  0  0  0.161279  0  3.921373  0  0  0.157732  0.134965  0  3.904024  0
C  C59  1  0.64527557  0.20569363  0.45487069  1  0  0.205228  0  3.642647  0  0  0.145158  0  3.910961  0  0  0.161118  0  3.921188  0  0  0.157686  0.134825  0  3.903852  0
C  C60  1  0.10680268  0.98699123  0.46277418  1  0  -0.012325  0  3.626703  0  0  -0.076576  0  3.886042  0  0  -0.072755  0  3.897482  0  0  -0.047576  -0.078986  0  3.878134  0
C  C61  1  0.89319675  0.01300461  0.53722885  1  0  -0.012192  0  3.626605  0  0  -0.076505  0  3.885933  0  0  -0.072691  0  3.89738  0  0  -0.047536  -0.078894  0  3.878005  0
C  C62  1  0.08987762  0.57332176  0.57763925  1  0  0.282557  0  3.994886  0  0  0.273992  0  4.287582  0  0  0.290502  0  4.301171  0  0  0.13464  0.262779  0  4.278478  0
C  C63  1  0.91012248  0.42667851  0.42236991  1  0  0.282701  0  3.994926  0  0  0.27413  0  4.287609  0  0  0.290636  0  4.301195  0  0  0.13475  0.262917  0  4.278502  0
S  S64  1  0.92041890  0.63530394  0.69802053  1  0  -0.403585  0  2.336394  0  0  -0.386814  0  2.721037  0  0  -0.391283  0  2.70179  0  0  -0.194359  -0.383709  0  2.733394  0
S  S65  1  0.07958000  0.36469300  0.30198172  1  0  -0.403689  0  2.336012  0  0  -0.386898  0  2.720595  0  0  -0.391372  0  2.701353  0  0  -0.194383  -0.383786  0  2.732946  0
N  N66  1  0.50495939  0.51751591  0.78924105  1  0  -0.379315  0  3.315285  0  0  -0.327357  0  3.643039  0  0  -0.33792  0  3.645634  0  0  -0.376762  -0.320971  0  3.641037  0
N  N67  1  0.49503793  0.48248434  0.21075966  1  0  -0.379289  0  3.315359  0  0  -0.327342  0  3.643126  0  0  -0.337905  0  3.645729  0  0  -0.376757  -0.320958  0  3.641128  0
N  N68  1  0.25689420  0.50699119  0.93931981  1  0  -0.125098  0  3.511768  0  0  -0.034974  0  3.732559  0  0  -0.05278  0  3.758751  0  0  -0.242005  -0.023144  0  3.714699  0
N  N69  1  0.74310486  0.49301126  0.06067644  1  0  -0.125282  0  3.511825  0  0  -0.035104  0  3.732569  0  0  -0.052903  0  3.758769  0  0  -0.242167  -0.023273  0  3.714708  0
N  N70  1  0.45618433  0.78160133  0.62019437  1  0  -0.394257  0  3.295226  0  0  -0.339772  0  3.614107  0  0  -0.351815  0  3.619093  0  0  -0.376172  -0.332145  0  3.610296  0
N  N71  1  0.54381578  0.21839892  0.37980668  1  0  -0.394247  0  3.294954  0  0  -0.339779  0  3.613847  0  0  -0.351819  0  3.618833  0  0  -0.376192  -0.332149  0  3.610032  0
N  N72  1  0.24780960  0.93782641  0.52990674  1  0  -0.124166  0  3.530585  0  0  -0.03229  0  3.748628  0  0  -0.049868  0  3.774771  0  0  -0.244945  -0.020583  0  3.730674  0
N  N73  1  0.75218949  0.06216722  0.47009727  1  0  -0.124259  0  3.530619  0  0  -0.032254  0  3.748544  0  0  -0.049829  0  3.774686  0  0  -0.244952  -0.02055  0  3.730582  0
N  N74  1  0.20844437  0.52866279  0.48918505  1  0  -0.51876  0  3.110475  0  0  -0.471323  0  3.438717  0  0  -0.479014  0  3.434233  0  0  -0.437645  -0.467247  0  3.441687  0
N  N75  1  0.79157616  0.47133860  0.51081490  1  0  -0.518831  0  3.110643  0  0  -0.471408  0  3.438865  0  0  -0.479098  0  3.43438  0  0  -0.437711  -0.467329  0  3.441831  0
