# generated using pymatgen
data_CdH16C14N3O5
_symmetry_space_group_name_H-M   'P 1'
_cell_length_a   6.16509465
_cell_length_b   10.29020533
_cell_length_c   11.80401033
_cell_angle_alpha   82.57227511
_cell_angle_beta   78.77090757
_cell_angle_gamma   82.63936934
_symmetry_Int_Tables_number   1
_chemical_formula_structural   CdH16C14N3O5
_chemical_formula_sum   'Cd2 H32 C28 N6 O10'
_cell_volume   724.25755634
_cell_formula_units_Z   2
loop_
 _symmetry_equiv_pos_site_id
 _symmetry_equiv_pos_as_xyz
  1  'x, y, z'
loop_
 _atom_site_type_symbol
 _atom_site_label
 _atom_site_symmetry_multiplicity
 _atom_site_fract_x
 _atom_site_fract_y
 _atom_site_fract_z
 _atom_site_occupancy
 _atom_site_hle17_bader_spin_density
 _atom_site_hle17_ddec_charge
 _atom_site_hle17_ddec_spin_density
 _atom_site_hle17_ddec_sum_bond_order
 _atom_site_hle17_magmom
 _atom_site_hse06_10hf_bader_spin_density
 _atom_site_hse06_10hf_ddec_charge
 _atom_site_hse06_10hf_ddec_spin_density
 _atom_site_hse06_10hf_ddec_sum_bond_order
 _atom_site_hse06_10hf_magmom
 _atom_site_hse06_bader_spin_density
 _atom_site_hse06_ddec_charge
 _atom_site_hse06_ddec_spin_density
 _atom_site_hse06_ddec_sum_bond_order
 _atom_site_hse06_magmom
 _atom_site_pbe_bader_spin_density
 _atom_site_pbe_cm5_charge
 _atom_site_pbe_ddec_charge
 _atom_site_pbe_ddec_spin_density
 _atom_site_pbe_ddec_sum_bond_order
 _atom_site_pbe_magmom
Cd  Cd0  1  0.73499381  0.00372532  0.15245161  1  0  1.189733  0  1.621012  0  0  0.999277  0  2.073104  0  0  1.056847  0  2.015673  0  0  0.779459  0.958088  0  2.112587  0
Cd  Cd1  1  0.26501026  0.99627348  0.84754945  1  0  1.189703  0  1.621111  0  0  0.999249  0  2.073229  0  0  1.056814  0  2.015798  0  0  0.779449  0.95806  0  2.112715  0
H  H2  1  0.12093994  0.12279694  0.28491035  1  0  0.126867  0  0.965676  0  0  0.137046  0  1.025262  0  0  0.140266  0  1.021642  0  0  0.144403  0.13445  0  1.02819  0
H  H3  1  0.87905089  0.87720193  0.71509190  1  0  0.12686  0  0.965706  0  0  0.137039  0  1.025302  0  0  0.140255  0  1.021684  0  0  0.144375  0.134442  0  1.02823  0
H  H4  1  0.22803925  0.17793747  0.47062927  1  0  0.09709  0  0.953021  0  0  0.105832  0  1.026433  0  0  0.107535  0  1.025347  0  0  0.117408  0.104565  0  1.027112  0
H  H5  1  0.77196029  0.82205938  0.52936988  1  0  0.097131  0  0.952997  0  0  0.105858  0  1.026411  0  0  0.107563  0  1.025321  0  0  0.117415  0.10459  0  1.027088  0
H  H6  1  0.02947274  0.16897537  0.60142858  1  0  0.095554  0  0.913871  0  0  0.10824  0  0.979437  0  0  0.109397  0  0.978404  0  0  0.117706  0.107476  0  0.979978  0
H  H7  1  0.97052690  0.83103034  0.39857213  1  0  0.095577  0  0.913935  0  0  0.108231  0  0.979537  0  0  0.109385  0  0.978512  0  0  0.117698  0.107474  0  0.980055  0
H  H8  1  0.59681918  0.17025557  0.57316438  1  0  0.130861  0  0.969104  0  0  0.136548  0  1.034386  0  0  0.14022  0  1.030235  0  0  0.140633  0.133801  0  1.037423  0
H  H9  1  0.40317608  0.82973638  0.42683823  1  0  0.130823  0  0.969075  0  0  0.136549  0  1.034318  0  0  0.140221  0  1.030167  0  0  0.140636  0.133803  0  1.037355  0
H  H10  1  0.17717968  0.57125069  0.00105713  1  0  0.083186  0  0.936305  0  0  0.102521  0  0.998095  0  0  0.103295  0  0.998126  0  0  0.097106  0.101854  0  0.998245  0
H  H11  1  0.82280750  0.42875214  0.99893823  1  0  0.083145  0  0.936456  0  0  0.102479  0  0.998205  0  0  0.103259  0  0.998229  0  0  0.097091  0.101802  0  0.998368  0
H  H12  1  0.94020766  0.57371321  0.11021581  1  0  0.072192  0  0.948028  0  0  0.092214  0  1.009042  0  0  0.092104  0  1.010026  0  0  0.093014  0.092202  0  1.008465  0
H  H13  1  0.05978632  0.42628662  0.88978605  1  0  0.072223  0  0.947975  0  0  0.092219  0  1.008988  0  0  0.092108  0  1.009968  0  0  0.093019  0.092206  0  1.008411  0
H  H14  1  0.76642585  0.39217553  0.39918478  1  0  0.084046  0  0.983267  0  0  0.093815  0  1.048039  0  0  0.095959  0  1.048091  0  0  0.09892  0.092312  0  1.048013  0
H  H15  1  0.23356642  0.60782530  0.60081459  1  0  0.084065  0  0.98335  0  0  0.09384  0  1.048086  0  0  0.095985  0  1.048146  0  0  0.098921  0.092347  0  1.048054  0
H  H16  1  0.27493192  0.36648896  0.60784604  1  0  0.101922  0  0.984304  0  0  0.110788  0  1.048746  0  0  0.113999  0  1.047305  0  0  0.098946  0.108424  0  1.049913  0
H  H17  1  0.72507740  0.63351867  0.39215189  1  0  0.101905  0  0.984156  0  0  0.110735  0  1.048675  0  0  0.113954  0  1.047208  0  0  0.098941  0.108373  0  1.049839  0
H  H18  1  0.43753406  0.53898464  0.32165903  1  0  0.077268  0  0.936745  0  0  0.094989  0  1.001323  0  0  0.095632  0  1.001976  0  0  0.092545  0.094417  0  1.001038  0
H  H19  1  0.56247002  0.46102400  0.67834179  1  0  0.077275  0  0.936746  0  0  0.094996  0  1.001299  0  0  0.09564  0  1.001954  0  0  0.092531  0.094424  0  1.001014  0
H  H20  1  0.66847155  0.47761516  0.22287236  1  0  0.071114  0  0.938078  0  0  0.092042  0  0.996445  0  0  0.092368  0  0.996609  0  0  0.092969  0.091553  0  0.996575  0
H  H21  1  0.33152858  0.52237873  0.77712452  1  0  0.071107  0  0.938143  0  0  0.092  0  0.996526  0  0  0.092329  0  0.996691  0  0  0.092967  0.091513  0  0.996652  0
H  H22  1  0.53591695  0.61370517  0.05738853  1  0  0.081617  0  0.936505  0  0  0.092723  0  0.998126  0  0  0.094118  0  0.999187  0  0  0.102098  0.091722  0  0.997515  0
H  H23  1  0.46407704  0.38628680  0.94260572  1  0  0.081699  0  0.936503  0  0  0.092774  0  0.998121  0  0  0.094181  0  0.999168  0  0  0.102104  0.091777  0  0.99751  0
H  H24  1  0.12067327  0.67901132  0.23570424  1  0  0.078986  0  0.928069  0  0  0.0917  0  0.985573  0  0  0.093149  0  0.98648  0  0  0.099285  0.090667  0  0.985055  0
H  H25  1  0.87933503  0.32098154  0.76429794  1  0  0.079009  0  0.928075  0  0  0.09172  0  0.985594  0  0  0.093167  0  0.986504  0  0  0.099299  0.090686  0  0.985077  0
H  H26  1  0.27848709  0.01372882  0.13849273  1  0  0.417873  0  0.893139  0  0  0.386107  0  0.959377  0  0  0.396444  0  0.944503  0  0  0.285801  0.378818  0  0.969862  0
H  H27  1  0.72150341  0.98627301  0.86150583  1  0  0.417913  0  0.893082  0  0  0.386141  0  0.95933  0  0  0.396477  0  0.944458  0  0  0.285821  0.378853  0  0.969814  0
H  H28  1  0.41455556  0.30538935  0.24778979  1  0  0.084567  0  0.969531  0  0  0.094668  0  1.034749  0  0  0.097054  0  1.034321  0  0  0.090622  0.093062  0  1.035029  0
H  H29  1  0.58542373  0.69461646  0.75222375  1  0  0.084624  0  0.969442  0  0  0.0947  0  1.034702  0  0  0.097087  0  1.034267  0  0  0.090607  0.093094  0  1.034982  0
H  H30  1  0.12111469  0.34338853  0.13293940  1  0  0.084208  0  0.965464  0  0  0.095213  0  1.030743  0  0  0.098061  0  1.029469  0  0  0.092773  0.093107  0  1.031958  0
H  H31  1  0.87888878  0.65661322  0.86706393  1  0  0.084163  0  0.965345  0  0  0.095194  0  1.030616  0  0  0.098038  0  1.02936  0  0  0.092772  0.093083  0  1.031836  0
H  H32  1  0.36710756  0.14132443  0.06768540  1  0  0.429389  0  0.871193  0  0  0.395901  0  0.939973  0  0  0.407208  0  0.923704  0  0  0.290772  0.387879  0  0.951509  0
H  H33  1  0.63289610  0.85867732  0.93231369  1  0  0.429405  0  0.871183  0  0  0.395912  0  0.939964  0  0  0.407219  0  0.923695  0  0  0.290765  0.387889  0  0.951501  0
C  C34  1  0.02421155  0.36154207  0.50379677  1  0  0.06773  0  3.752947  0  0  0.087421  0  3.992305  0  0  0.086484  0  4.016906  0  0  -0.011745  0.087744  0  3.975711  0
C  C35  1  0.97578070  0.63846074  0.49619559  1  0  0.067907  0  3.752869  0  0  0.087527  0  3.992294  0  0  0.08661  0  4.01687  0  0  -0.011703  0.087844  0  3.975702  0
C  C36  1  0.95733784  0.12370304  0.34053454  1  0  0.157337  0  3.616832  0  0  0.092049  0  3.879759  0  0  0.105731  0  3.892706  0  0  0.16003  0.083299  0  3.870673  0
C  C37  1  0.04265609  0.87629778  0.65946467  1  0  0.157277  0  3.61687  0  0  0.091981  0  3.879779  0  0  0.105667  0  3.892724  0  0  0.160017  0.083234  0  3.870693  0
C  C38  1  0.36479096  0.40521626  0.21120563  1  0  -0.080142  0  3.709745  0  0  -0.094384  0  3.971094  0  0  -0.095906  0  3.992  0  0  -0.106466  -0.093275  0  3.956697  0
C  C39  1  0.63521451  0.59479236  0.78880100  1  0  -0.080214  0  3.710043  0  0  -0.094445  0  3.971364  0  0  -0.095961  0  3.992272  0  0  -0.106489  -0.093336  0  3.956965  0
C  C40  1  0.56408866  0.75419609  0.16854944  1  0  0.662484  0  3.846253  0  0  0.608946  0  4.149275  0  0  0.64229  0  4.143858  0  0  0.200819  0.586234  0  4.152211  0
C  C41  1  0.43591934  0.24580072  0.83144471  1  0  0.662246  0  3.84634  0  0  0.608781  0  4.149244  0  0  0.642112  0  4.143855  0  0  0.20085  0.586074  0  4.152179  0
C  C42  1  0.05714154  0.21259300  0.51034362  1  0  -0.038353  0  3.624489  0  0  -0.104154  0  3.872494  0  0  -0.099944  0  3.883005  0  0  -0.041849  -0.106808  0  3.864952  0
C  C43  1  0.94286119  0.78740482  0.48965429  1  0  -0.038502  0  3.624742  0  0  -0.104236  0  3.872697  0  0  -0.100034  0  3.883205  0  0  -0.041854  -0.106895  0  3.865184  0
C  C44  1  0.68557419  0.14845967  0.48728337  1  0  0.132156  0  3.624748  0  0  0.075407  0  3.901298  0  0  0.086257  0  3.911751  0  0  0.152684  0.068368  0  3.894267  0
C  C45  1  0.31442840  0.85153716  0.51272143  1  0  0.132284  0  3.62461  0  0  0.075485  0  3.901182  0  0  0.086334  0  3.911633  0  0  0.152725  0.068446  0  3.894153  0
C  C46  1  0.12304023  0.56033605  0.09620109  1  0  -0.112943  0  3.731447  0  0  -0.161  0  3.98522  0  0  -0.160175  0  3.99883  0  0  -0.161973  -0.161306  0  3.97582  0
C  C47  1  0.87695898  0.43966376  0.90379437  1  0  -0.112964  0  3.731366  0  0  -0.160923  0  3.985025  0  0  -0.160101  0  3.998634  0  0  -0.161961  -0.161222  0  3.975625  0
C  C48  1  0.86957333  0.43832304  0.44422397  1  0  -0.120408  0  3.785269  0  0  -0.143887  0  4.038264  0  0  -0.146513  0  4.061055  0  0  -0.096882  -0.142259  0  4.022831  0
C  C49  1  0.13045165  0.56168254  0.55576260  1  0  -0.120666  0  3.784643  0  0  -0.144136  0  4.037728  0  0  -0.146775  0  4.060513  0  0  -0.097002  -0.142517  0  4.022311  0
C  C50  1  0.15489684  0.42473245  0.55963247  1  0  -0.116089  0  3.739433  0  0  -0.132686  0  3.98345  0  0  -0.135702  0  4.005066  0  0  -0.093902  -0.130133  0  3.968731  0
C  C51  1  0.84511107  0.57526239  0.44037123  1  0  -0.116162  0  3.73999  0  0  -0.132736  0  3.984033  0  0  -0.135755  0  4.005645  0  0  -0.093947  -0.13018  0  3.969309  0
C  C52  1  0.20232303  0.42621989  0.14831217  1  0  -0.100937  0  3.739646  0  0  -0.117506  0  4.00722  0  0  -0.119924  0  4.027965  0  0  -0.111332  -0.115921  0  3.993093  0
C  C53  1  0.79765620  0.57378003  0.85168762  1  0  -0.100779  0  3.739903  0  0  -0.117395  0  4.007454  0  0  -0.119812  0  4.028191  0  0  -0.111288  -0.1158  0  3.993311  0
C  C54  1  0.49026970  0.51333992  0.23173705  1  0  -0.111114  0  3.720663  0  0  -0.157668  0  3.971968  0  0  -0.156758  0  3.984362  0  0  -0.160297  -0.158054  0  3.963518  0
C  C55  1  0.50973348  0.48666479  0.76826175  1  0  -0.111179  0  3.720603  0  0  -0.157685  0  3.971822  0  0  -0.156789  0  3.984233  0  0  -0.16031  -0.158071  0  3.963382  0
C  C56  1  0.45914764  0.63613880  0.14591679  1  0  -0.12644  0  3.609774  0  0  -0.127254  0  3.839948  0  0  -0.133218  0  3.853785  0  0  -0.084039  -0.123226  0  3.830684  0
C  C57  1  0.54085786  0.36386294  0.85407789  1  0  -0.126501  0  3.609665  0  0  -0.127254  0  3.839709  0  0  -0.133224  0  3.853556  0  0  -0.084037  -0.123243  0  3.830471  0
C  C58  1  0.20559725  0.67110474  0.14550108  1  0  -0.119888  0  3.600352  0  0  -0.121556  0  3.82997  0  0  -0.127573  0  3.843604  0  0  -0.083478  -0.117306  0  3.820438  0
C  C59  1  0.79440304  0.32888818  0.85449589  1  0  -0.119771  0  3.60026  0  0  -0.121553  0  3.829967  0  0  -0.127568  0  3.843601  0  0  -0.083517  -0.117298  0  3.820433  0
C  C60  1  0.16410471  0.80394859  0.07599507  1  0  0.695571  0  3.825417  0  0  0.637194  0  4.132186  0  0  0.672161  0  4.123639  0  0  0.21241  0.613353  0  4.137225  0
C  C61  1  0.83589623  0.19604726  0.92401338  1  0  0.69532  0  3.825475  0  0  0.636977  0  4.13221  0  0  0.67194  0  4.12367  0  0  0.212384  0.613138  0  4.137247  0
N  N62  1  0.90816904  0.15929028  0.45027963  1  0  -0.084725  0  3.558831  0  0  0.007714  0  3.785238  0  0  -0.008492  0  3.809237  0  0  -0.235445  0.018454  0  3.76858  0
N  N63  1  0.09182473  0.84071152  0.54971949  1  0  -0.084657  0  3.558687  0  0  0.007792  0  3.78509  0  0  -0.008414  0  3.80909  0  0  -0.23544  0.018527  0  3.76843  0
N  N64  1  0.77424964  0.09152240  0.31296835  1  0  -0.290033  0  3.205127  0  0  -0.218926  0  3.504734  0  0  -0.238382  0  3.520937  0  0  -0.248216  -0.205807  0  3.493175  0
N  N65  1  0.22574482  0.90847448  0.68703379  1  0  -0.29001  0  3.205161  0  0  -0.218888  0  3.504743  0  0  -0.238346  0  3.520949  0  0  -0.24819  -0.205767  0  3.493181  0
N  N66  1  0.60108251  0.10772428  0.40525589  1  0  -0.232628  0  2.967909  0  0  -0.214847  0  3.254901  0  0  -0.222359  0  3.270557  0  0  -0.227796  -0.2099  0  3.244117  0
N  N67  1  0.39891725  0.89226961  0.59474949  1  0  -0.232681  0  2.967938  0  0  -0.214897  0  3.254944  0  0  -0.222408  0  3.270599  0  0  -0.227794  -0.209948  0  3.244158  0
O  O68  1  0.65400803  0.82568231  0.07716405  1  0  -0.683859  0  2.050395  0  0  -0.602001  0  2.296443  0  0  -0.634095  0  2.286371  0  0  -0.329788  -0.579456  0  2.302764  0
O  O69  1  0.34601260  0.17430853  0.92282793  1  0  -0.683789  0  2.050625  0  0  -0.60197  0  2.296647  0  0  -0.634053  0  2.286563  0  0  -0.329819  -0.579426  0  2.302967  0
O  O70  1  0.55980479  0.78305311  0.26949842  1  0  -0.62942  0  1.931936  0  0  -0.572283  0  2.164587  0  0  -0.597504  0  2.154995  0  0  -0.32024  -0.554387  0  2.170314  0
O  O71  1  0.44021700  0.21695150  0.73048939  1  0  -0.629322  0  1.931877  0  0  -0.572233  0  2.164544  0  0  -0.597434  0  2.154934  0  0  -0.320264  -0.554336  0  2.170268  0
O  O72  1  0.36544974  0.08746063  0.14438863  1  0  -0.830407  0  1.881224  0  0  -0.764342  0  2.074778  0  0  -0.788519  0  2.042138  0  0  -0.581031  -0.74733  0  2.097507  0
O  O73  1  0.63454588  0.91254018  0.85560959  1  0  -0.830484  0  1.881244  0  0  -0.764402  0  2.07481  0  0  -0.788576  0  2.04217  0  0  -0.58105  -0.747389  0  2.09754  0
O  O74  1  0.10469688  0.90492208  0.13344558  1  0  -0.722537  0  2.058791  0  0  -0.652397  0  2.325168  0  0  -0.679343  0  2.308399  0  0  -0.348682  -0.633326  0  2.336176  0
O  O75  1  0.89530541  0.09507474  0.86656603  1  0  -0.7225  0  2.058893  0  0  -0.652365  0  2.325256  0  0  -0.679312  0  2.30849  0  0  -0.348679  -0.633294  0  2.336265  0
O  O76  1  0.19740468  0.80855932  0.96655057  1  0  -0.621698  0  2.005429  0  0  -0.55332  0  2.262467  0  0  -0.582034  0  2.251008  0  0  -0.317159  -0.533214  0  2.269989  0
O  O77  1  0.80260123  0.19144635  0.03345720  1  0  -0.62161  0  2.005422  0  0  -0.553207  0  2.262396  0  0  -0.581922  0  2.250944  0  0  -0.317123  -0.533099  0  2.269915  0
