# generated using pymatgen
data_CuH5C7N3
_symmetry_space_group_name_H-M   'P 1'
_cell_length_a   7.88833598
_cell_length_b   7.83435337
_cell_length_c   13.11506658
_cell_angle_alpha   90.00273359
_cell_angle_beta   89.99785930
_cell_angle_gamma   111.67044971
_symmetry_Int_Tables_number   1
_chemical_formula_structural   CuH5C7N3
_chemical_formula_sum   'Cu4 H20 C28 N12'
_cell_volume   753.22687781
_cell_formula_units_Z   4
loop_
 _symmetry_equiv_pos_site_id
 _symmetry_equiv_pos_as_xyz
  1  'x, y, z'
loop_
 _atom_site_type_symbol
 _atom_site_label
 _atom_site_symmetry_multiplicity
 _atom_site_fract_x
 _atom_site_fract_y
 _atom_site_fract_z
 _atom_site_occupancy
 _atom_site_pbe_cm5_charge
 _atom_site_pbe_ddec_charge
 _atom_site_pbe_ddec_spin_density
 _atom_site_pbe_ddec_sum_bond_order
 _atom_site_pbe_magmom
Cu  Cu0  1  0.49999814  0.50002216  0.75064006  1  0.444582  0.208716  -0.134594  3.519893  -0.106
Cu  Cu1  1  0.50000335  0.49996362  0.24935324  1  0.444638  0.208777  -0.134279  3.519786  -0.105
Cu  Cu2  1  0.49998926  0.99998484  0.49999622  1  0.93743  0.873068  -1.105927  2.667527  -0.805
Cu  Cu3  1  0.00000555  0.50000389  0.99999852  1  0.904987  0.84475  0.70868  2.617104  0.516
H  H4  1  0.79151728  0.14816065  0.65753811  1  0.120511  0.096725  -0.00209  0.99747  -0.002
H  H5  1  0.20842596  0.85183021  0.65751649  1  0.120455  0.096667  -0.002094  0.997494  -0.002
H  H6  1  0.85051695  0.21207736  0.84263840  1  0.12033  0.095873  0.002054  1.000402  0.002
H  H7  1  0.14941352  0.78787701  0.84262096  1  0.120249  0.095787  0.002059  1.000122  0.002
H  H8  1  0.20850230  0.85184717  0.34246357  1  0.120534  0.096679  -0.002087  0.997649  -0.002
H  H9  1  0.79155147  0.14817320  0.34247909  1  0.12057  0.096733  -0.002092  0.997688  -0.002
H  H10  1  0.14949953  0.78793592  0.15739150  1  0.120341  0.09589  0.002049  1.000419  0.002
H  H11  1  0.85057132  0.21212235  0.15740055  1  0.120302  0.095916  0.002054  1.000315  0.002
H  H12  1  0.12800296  0.33539854  0.66480724  1  0.101466  0.103891  -0.001259  1.044266  -0.001
H  H13  1  0.87193840  0.66457775  0.66480848  1  0.101491  0.103987  -0.001257  1.044343  -0.001
H  H14  1  0.66273454  0.87341697  0.83526813  1  0.10023  0.10198  0.00089  1.047558  0.001
H  H15  1  0.33722194  0.12660831  0.83526541  1  0.100299  0.102138  0.000889  1.047504  0.001
H  H16  1  0.87205803  0.66463971  0.33515022  1  0.101553  0.103946  -0.001261  1.044258  -0.001
H  H17  1  0.12800551  0.33536788  0.33514593  1  0.101494  0.103921  -0.00126  1.044302  -0.001
H  H18  1  0.33726809  0.12658252  0.16477244  1  0.100248  0.101996  0.000889  1.047345  0.001
H  H19  1  0.66277640  0.87341443  0.16477973  1  0.100214  0.101998  0.000889  1.047385  0.001
H  H20  1  0.29916214  0.43162315  0.49995953  1  0.109822  0.113795  -0.00038  0.992862  -0.001
H  H21  1  0.70082982  0.56837488  0.49995904  1  0.109838  0.113813  -0.00038  0.992862  -0.001
H  H22  1  0.56651179  0.70126328  0.00002826  1  0.109334  0.113603  0.000296  0.9935  0.0
H  H23  1  0.43348459  0.29873828  0.00001510  1  0.109326  0.11355  0.000296  0.993534  0.0
C  C24  1  0.48144490  0.29495494  0.66275760  1  -0.013075  -0.036704  -0.017534  3.721577  -0.024
C  C25  1  0.51852556  0.70504196  0.66277808  1  -0.013093  -0.036529  -0.017544  3.721587  -0.024
C  C26  1  0.70211968  0.52069698  0.83897685  1  -0.016519  -0.041582  -0.004234  3.743676  -0.001
C  C27  1  0.29792289  0.47924423  0.83897945  1  -0.016719  -0.04197  -0.00428  3.745257  -0.001
C  C28  1  0.51853817  0.70504303  0.33722274  1  -0.013075  -0.036745  -0.0175  3.721735  -0.024
C  C29  1  0.48148829  0.29495349  0.33722437  1  -0.013093  -0.036713  -0.017494  3.722378  -0.024
C  C30  1  0.29788302  0.47929566  0.16101797  1  -0.016436  -0.041549  -0.004223  3.744446  -0.001
C  C31  1  0.70207839  0.52073744  0.16101308  1  -0.016615  -0.041946  -0.004251  3.745445  -0.001
C  C32  1  0.87292892  0.19308215  0.58864755  1  0.051081  0.09388  -0.001086  3.925975  0.0
C  C33  1  0.12702460  0.80690124  0.58862582  1  0.051152  0.094048  -0.001084  3.926401  0.0
C  C34  1  0.80521016  0.12998484  0.91139612  1  0.049978  0.092705  0.000963  3.922694  0.0
C  C35  1  0.19475927  0.87001158  0.91138218  1  0.050119  0.092864  0.000962  3.923033  0.0
C  C36  1  0.12709170  0.80689691  0.41133812  1  0.050852  0.093604  -0.001088  3.926049  0.0
C  C37  1  0.87294591  0.19310760  0.41135604  1  0.051015  0.093903  -0.001087  3.926314  0.0
C  C38  1  0.19479495  0.87002151  0.08863607  1  0.049874  0.092501  0.000961  3.923081  0.0
C  C39  1  0.80523256  0.13000015  0.08864848  1  0.050004  0.09249  0.000962  3.923116  0.0
C  C40  1  0.05900680  0.29684228  0.59160392  1  -0.079598  -0.117922  -0.008132  3.950424  -0.009
C  C41  1  0.94094826  0.70315641  0.59160538  1  -0.07961  -0.118193  -0.008132  3.950926  -0.009
C  C42  1  0.70119738  0.94288839  0.90843717  1  -0.079698  -0.116569  0.006283  3.95092  0.007
C  C43  1  0.29876890  0.05710232  0.90841283  1  -0.079829  -0.116866  0.006285  3.950296  0.007
C  C44  1  0.94102491  0.70314645  0.40837337  1  -0.079583  -0.117806  -0.008125  3.951176  -0.009
C  C45  1  0.05901527  0.29686472  0.40836810  1  -0.079447  -0.117794  -0.008131  3.951127  -0.009
C  C46  1  0.29880171  0.05710833  0.09159731  1  -0.079675  -0.116477  0.006276  3.950803  0.007
C  C47  1  0.70122526  0.94290532  0.09162393  1  -0.079729  -0.116379  0.006283  3.949655  0.007
C  C48  1  0.15356179  0.35006176  0.49997916  1  -0.057209  -0.000564  0.004005  3.907799  0.004
C  C49  1  0.84642559  0.64993761  0.49996686  1  -0.057084  -0.00032  0.004005  3.907738  0.004
C  C50  1  0.64798715  0.84777758  0.00002400  1  -0.057994  -0.002163  -0.003577  3.907044  -0.003
C  C51  1  0.35200640  0.15222670  0.00001783  1  -0.05805  -0.001996  -0.003577  3.906968  -0.003
N  N52  1  0.47479866  0.17385014  0.60810207  1  -0.385626  -0.357352  -0.07238  3.456102  -0.089
N  N53  1  0.52520059  0.82614727  0.60812269  1  -0.385643  -0.357476  -0.072357  3.455371  -0.089
N  N54  1  0.82848095  0.53206630  0.88992458  1  -0.381307  -0.357296  0.015577  3.424723  0.018
N  N55  1  0.17159154  0.46794168  0.88990388  1  -0.381155  -0.356814  0.015539  3.424724  0.018
N  N56  1  0.52518919  0.82612595  0.39187674  1  -0.385647  -0.357289  -0.072323  3.455891  -0.089
N  N57  1  0.47482819  0.17388254  0.39187671  1  -0.385717  -0.357402  -0.072312  3.455909  -0.089
N  N58  1  0.17155769  0.46794166  0.11006186  1  -0.381346  -0.357301  0.015604  3.425439  0.018
N  N59  1  0.82839773  0.53204538  0.11008179  1  -0.381244  -0.356856  0.01557  3.424955  0.018
N  N60  1  0.78319781  0.14378797  0.50000330  1  -0.320691  -0.206349  -0.102551  3.578753  -0.127
N  N61  1  0.21680643  0.85620194  0.50000220  1  -0.320614  -0.206176  -0.102523  3.578719  -0.127
N  N62  1  0.85456557  0.22033203  0.00002666  1  -0.324636  -0.201585  0.099008  3.592625  0.122
N  N63  1  0.14543589  0.77966957  0.99999841  1  -0.324562  -0.201513  0.099001  3.592643  0.122
