# generated using pymatgen
data_Mo2H3C2(NO2)3
_symmetry_space_group_name_H-M   'P 1'
_cell_length_a   3.92067124
_cell_length_b   13.44889899
_cell_length_c   13.97689197
_cell_angle_alpha   89.99995774
_cell_angle_beta   90.00025525
_cell_angle_gamma   90.00289345
_symmetry_Int_Tables_number   1
_chemical_formula_structural   Mo2H3C2(NO2)3
_chemical_formula_sum   'Mo8 H12 C8 N12 O24'
_cell_volume   736.98350208
_cell_formula_units_Z   4
loop_
 _symmetry_equiv_pos_site_id
 _symmetry_equiv_pos_as_xyz
  1  'x, y, z'
loop_
 _atom_site_type_symbol
 _atom_site_label
 _atom_site_symmetry_multiplicity
 _atom_site_fract_x
 _atom_site_fract_y
 _atom_site_fract_z
 _atom_site_occupancy
 _atom_site_pbe_bader_spin_density
 _atom_site_pbe_cm5_charge
 _atom_site_pbe_ddec_charge
 _atom_site_pbe_ddec_spin_density
 _atom_site_pbe_ddec_sum_bond_order
 _atom_site_pbe_magmom
Mo  Mo0  1  0.67893046  0.11296235  0.67139002  1  0  1.588538  2.175112  0  4.656051  0
Mo  Mo1  1  0.32063893  0.61321198  0.32859528  1  0  1.589123  2.17528  0  4.657055  0
Mo  Mo2  1  0.67824209  0.88643823  0.82938919  1  0  1.588529  2.175105  0  4.654873  0
Mo  Mo3  1  0.32137819  0.38666860  0.17066824  1  0  1.588403  2.174999  0  4.656111  0
Mo  Mo4  1  0.32138364  0.88666856  0.32933358  1  0  1.588404  2.174972  0  4.656233  0
Mo  Mo5  1  0.67824429  0.38643827  0.67061009  1  0  1.58854  2.175134  0  4.654847  0
Mo  Mo6  1  0.32064114  0.11321202  0.17140739  1  0  1.589127  2.175342  0  4.656765  0
Mo  Mo7  1  0.67893080  0.61296231  0.82860940  1  0  1.588502  2.175066  0  4.655987  0
H  H8  1  0.87530731  0.09259747  0.92886084  1  0  0.147543  0.133266  0  1.016666  0
H  H9  1  0.12458925  0.59276161  0.07113878  1  0  0.147707  0.133929  0  1.015686  0
H  H10  1  0.87484155  0.90776550  0.57202666  1  0  0.147248  0.133097  0  1.018284  0
H  H11  1  0.12629861  0.40793663  0.42815811  1  0  0.147295  0.133033  0  1.019021  0
H  H12  1  0.12632566  0.90793759  0.07184129  1  0  0.147263  0.132999  0  1.01908  0
H  H13  1  0.87485275  0.40776528  0.92797502  1  0  0.147233  0.133028  0  1.018306  0
H  H14  1  0.12460812  0.09276140  0.42885935  1  0  0.147702  0.133948  0  1.015713  0
H  H15  1  0.87533180  0.59259843  0.57113813  1  0  0.147535  0.133242  0  1.016746  0
H  H16  1  0.00892948  0.25038995  0.02906506  1  0  0.316096  0.301459  0  0.983791  0
H  H17  1  0.99189758  0.75047377  0.97082502  1  0  0.316194  0.301595  0  0.98352  0
H  H18  1  0.00894728  0.75039126  0.47093427  1  0  0.316103  0.301478  0  0.983665  0
H  H19  1  0.99188998  0.25047246  0.52917188  1  0  0.316244  0.301707  0  0.983416  0
C  C20  1  0.85065057  0.16897859  0.90451419  1  0  0.17674  0.182577  0  3.832913  0
C  C21  1  0.14942186  0.66914468  0.09545248  1  0  0.176447  0.181543  0  3.831825  0
C  C22  1  0.85054234  0.83121362  0.59590965  1  0  0.175665  0.180976  0  3.833087  0
C  C23  1  0.15019741  0.33138676  0.40422508  1  0  0.176142  0.181929  0  3.83324  0
C  C24  1  0.15021463  0.83138472  0.09577082  1  0  0.176177  0.181956  0  3.833269  0
C  C25  1  0.85054298  0.33121417  0.90409060  1  0  0.175655  0.181143  0  3.832903  0
C  C26  1  0.14942250  0.16914300  0.40454636  1  0  0.176426  0.181536  0  3.831591  0
C  C27  1  0.85066523  0.66897729  0.59548399  1  0  0.176775  0.182591  0  3.83291  0
N  N28  1  0.75648421  0.19875998  0.81831113  1  0  -0.253494  -0.24279  0  3.441398  0
N  N29  1  0.24322207  0.69896370  0.18167127  1  0  -0.253179  -0.241523  0  3.441136  0
N  N30  1  0.75631483  0.80096251  0.68196664  1  0  -0.25205  -0.240481  0  3.437739  0
N  N31  1  0.24377319  0.30116750  0.31810943  1  0  -0.25266  -0.241874  0  3.438219  0
N  N32  1  0.24377640  0.80116686  0.18188803  1  0  -0.252645  -0.241943  0  3.438218  0
N  N33  1  0.75631927  0.30096315  0.81803278  1  0  -0.252031  -0.240545  0  3.437766  0
N  N34  1  0.24322906  0.19896434  0.31832767  1  0  -0.25309  -0.241488  0  3.441097  0
N  N35  1  0.75648487  0.69875860  0.68168835  1  0  -0.253515  -0.242829  0  3.441256  0
N  N36  1  0.91102184  0.25025925  0.95964163  1  0  -0.353884  -0.209569  0  3.578569  0
N  N37  1  0.08970570  0.75041188  0.04024773  1  0  -0.35404  -0.20982  0  3.578876  0
N  N38  1  0.91102801  0.75026099  0.54036303  1  0  -0.353887  -0.2095  0  3.578642  0
N  N39  1  0.08969188  0.25041461  0.45975672  1  0  -0.354112  -0.209975  0  3.578642  0
O  O40  1  0.23443208  0.12120988  0.68556813  1  0  -0.553844  -0.792234  0  2.03484  0
O  O41  1  0.76513097  0.62152863  0.31441502  1  0  -0.553904  -0.792428  0  2.035016  0
O  O42  1  0.23384678  0.87824577  0.81518903  1  0  -0.554195  -0.792627  0  2.036603  0
O  O43  1  0.76576970  0.37853333  0.18492993  1  0  -0.554132  -0.792368  0  2.036022  0
O  O44  1  0.76577238  0.87853107  0.31507104  1  0  -0.554144  -0.792343  0  2.035996  0
O  O45  1  0.23384920  0.37824654  0.68481110  1  0  -0.554203  -0.79264  0  2.036643  0
O  O46  1  0.76513085  0.12152791  0.18558679  1  0  -0.553907  -0.792452  0  2.034996  0
O  O47  1  0.23443220  0.62121060  0.81443142  1  0  -0.553847  -0.792226  0  2.034861  0
O  O48  1  0.73217916  0.06254090  0.55990463  1  0  -0.495889  -0.622011  0  1.697357  0
O  O49  1  0.26750447  0.56278873  0.44009215  1  0  -0.496192  -0.622201  0  1.697155  0
O  O50  1  0.73121236  0.93646356  0.94107069  1  0  -0.496227  -0.622655  0  1.695224  0
O  O51  1  0.26853580  0.43667302  0.05897026  1  0  -0.4958  -0.622069  0  1.695641  0
O  O52  1  0.26854294  0.93667287  0.44103075  1  0  -0.495817  -0.62209  0  1.695776  0
O  O53  1  0.73121032  0.43646148  0.55892792  1  0  -0.496243  -0.62267  0  1.695153  0
O  O54  1  0.26750499  0.06278740  0.05990904  1  0  -0.496157  -0.622148  0  1.697046  0
O  O55  1  0.73218119  0.56253927  0.94009489  1  0  -0.495874  -0.621997  0  1.69725  0
O  O56  1  0.74975600  0.24963193  0.63220965  1  0  -0.588428  -0.894253  0  2.150358  0
O  O57  1  0.24973679  0.74989934  0.36776915  1  0  -0.58881  -0.894372  0  2.151356  0
O  O58  1  0.74975694  0.74963185  0.86778979  1  0  -0.588422  -0.894221  0  2.150366  0
O  O59  1  0.24972820  0.24990017  0.13223193  1  0  -0.588795  -0.894406  0  2.151315  0
O  O60  1  0.74498354  0.99988365  0.75063207  1  0  -0.59247  -0.865331  0  2.117401  0
O  O61  1  0.25445495  0.50014882  0.24940241  1  0  -0.592521  -0.865311  0  2.118334  0
O  O62  1  0.25446857  0.00014655  0.25059951  1  0  -0.592492  -0.865308  0  2.118312  0
O  O63  1  0.74498948  0.49988361  0.74936653  1  0  -0.592458  -0.865344  0  2.117427  0
