# generated using pymatgen
data_Zn2H25C39NO7
_symmetry_space_group_name_H-M   'P 1'
_cell_length_a   11.96119275
_cell_length_b   18.04579245
_cell_length_c   18.72946508
_cell_angle_alpha   89.99995976
_cell_angle_beta   89.99975958
_cell_angle_gamma   89.99996466
_symmetry_Int_Tables_number   1
_chemical_formula_structural   Zn2H25C39NO7
_chemical_formula_sum   'Zn8 H100 C156 N4 O28'
_cell_volume   4042.74008559
_cell_formula_units_Z   4
loop_
 _symmetry_equiv_pos_site_id
 _symmetry_equiv_pos_as_xyz
  1  'x, y, z'
loop_
 _atom_site_type_symbol
 _atom_site_label
 _atom_site_symmetry_multiplicity
 _atom_site_fract_x
 _atom_site_fract_y
 _atom_site_fract_z
 _atom_site_occupancy
 _atom_site_pbe_bader_charge
 _atom_site_pbe_bader_spin_density
 _atom_site_pbe_cm5_charge
 _atom_site_pbe_ddec_charge
 _atom_site_pbe_ddec_spin_density
 _atom_site_pbe_ddec_sum_bond_order
 _atom_site_pbe_magmom
Zn  Zn0  1  0.39208447  0.30157271  0.00927460  1  1.315793  0  0.680072  0.951809  0  2.374941  0
Zn  Zn1  1  0.10791478  0.30157296  0.99072586  1  1.315808  0  0.680032  0.951781  0  2.374953  0
Zn  Zn2  1  0.60791584  0.19842674  0.00927434  1  1.31633  0  0.680053  0.951786  0  2.374926  0
Zn  Zn3  1  0.89208411  0.19842743  0.99072698  1  1.316464  0  0.680045  0.951751  0  2.374915  0
Zn  Zn4  1  0.60792325  0.69842437  0.99072559  1  1.316282  0  0.680107  0.951972  0  2.374722  0
Zn  Zn5  1  0.89208459  0.69842578  0.00927753  1  1.315791  0  0.680038  0.951844  0  2.374854  0
Zn  Zn6  1  0.39208520  0.80157201  0.99072638  1  1.315861  0  0.680116  0.951865  0  2.374839  0
Zn  Zn7  1  0.10791275  0.80157298  0.00927427  1  1.316353  0  0.680104  0.951814  0  2.374924  0
H  H8  1  0.87257724  0.76569603  0.79569828  1  0.119548  0  0.105526  0.118323  0  1.005021  0
H  H9  1  0.53899565  0.49225003  0.92606347  1  0.087928  0  0.105434  0.114025  0  1.007975  0
H  H10  1  0.87408818  0.66491373  0.23200203  1  0.098829  0  0.100479  0.099688  0  1.046247  0
H  H11  1  0.64457392  0.58936187  0.86151740  1  0.079163  0  0.097909  0.098887  0  1.057146  0
H  H12  1  0.87828549  0.66142478  0.36277137  1  0.05106  0  0.099724  0.099693  0  1.013851  0
H  H13  1  0.84314441  0.69170711  0.59566220  1  0.052586  0  0.100726  0.106987  0  1.022485  0
H  H14  1  0.91065461  0.43319911  0.82152503  1  0.055293  0  0.099675  0.100585  0  1.01763  0
H  H15  1  0.80241942  0.33596315  0.88501715  1  0.105633  0  0.100863  0.106977  0  1.029216  0
H  H16  1  0.78342708  0.66608277  0.86438700  1  0.105159  0  0.100336  0.104728  0  1.048863  0
H  H17  1  0.84204043  0.69256664  0.46485228  1  0.033623  0  0.09788  0.093918  0  1.030936  0
H  H18  1  0.01766471  0.60396658  0.65379581  1  0.07671  0  0.105853  0.116032  0  0.990173  0
H  H19  1  0.92573785  0.50356291  0.72179069  1  0.074562  0  0.101373  0.100802  0  1.005148  0
H  H20  1  0.75000125  0.09397577  0.00000003  1  0.594611  0  0.300145  0.393982  0  0.915179  0
H  H21  1  0.62742135  0.76569629  0.20430105  1  0.119531  0  0.105515  0.118297  0  1.00501  0
H  H22  1  0.96100486  0.49225081  0.07393552  1  0.08791  0  0.105427  0.113999  0  1.007961  0
H  H23  1  0.62591050  0.66491359  0.76799845  1  0.098838  0  0.100494  0.099699  0  1.046248  0
H  H24  1  0.85542316  0.58936098  0.13848152  1  0.079222  0  0.097903  0.098891  0  1.057106  0
H  H25  1  0.62171152  0.66142640  0.63722963  1  0.051156  0  0.09972  0.099744  0  1.013844  0
H  H26  1  0.65685592  0.69170777  0.40433825  1  0.052607  0  0.100733  0.107008  0  1.022447  0
H  H27  1  0.58934512  0.43319886  0.17847399  1  0.055326  0  0.099671  0.100574  0  1.017645  0
H  H28  1  0.69758291  0.33596289  0.11498248  1  0.105654  0  0.100893  0.107001  0  1.029137  0
H  H29  1  0.71656992  0.66608194  0.13561187  1  0.105156  0  0.10031  0.104682  0  1.049019  0
H  H30  1  0.65795822  0.69256721  0.53514657  1  0.033856  0  0.09788  0.093912  0  1.03096  0
H  H31  1  0.48233510  0.60396716  0.34620231  1  0.076752  0  0.105863  0.116045  0  0.990146  0
H  H32  1  0.57425931  0.50356259  0.27820882  1  0.074714  0  0.101393  0.100848  0  1.00517  0
H  H33  1  0.12742247  0.73430326  0.79569876  1  0.119518  0  0.105515  0.118295  0  1.004991  0
H  H34  1  0.46100366  0.00775096  0.92606267  1  0.087955  0  0.105447  0.114044  0  1.007951  0
H  H35  1  0.12590937  0.83508430  0.23200137  1  0.098848  0  0.100489  0.099725  0  1.046262  0
H  H36  1  0.35542619  0.91063904  0.86151661  1  0.079183  0  0.097914  0.098871  0  1.057124  0
H  H37  1  0.12170953  0.83857371  0.36276912  1  0.051161  0  0.099717  0.09975  0  1.013872  0
H  H38  1  0.15685410  0.80829288  0.59566041  1  0.052619  0  0.100732  0.106997  0  1.0225  0
H  H39  1  0.08934622  0.06680085  0.82152572  1  0.055317  0  0.099681  0.10058  0  1.017628  0
H  H40  1  0.19758016  0.16403732  0.88501695  1  0.105639  0  0.100855  0.106981  0  1.029221  0
H  H41  1  0.21657384  0.83391702  0.86438824  1  0.105106  0  0.10036  0.104751  0  1.048979  0
H  H42  1  0.15795726  0.80743234  0.46485209  1  0.033967  0  0.097887  0.093913  0  1.030969  0
H  H43  1  0.98233843  0.89603225  0.65379762  1  0.076787  0  0.105852  0.116054  0  0.990085  0
H  H44  1  0.07426150  0.99643587  0.72179060  1  0.074606  0  0.101375  0.100798  0  1.005174  0
H  H45  1  0.24999913  0.40602479  0.00000006  1  0.594595  0  0.300129  0.393993  0  0.915159  0
H  H46  1  0.37258056  0.73430398  0.20430140  1  0.119539  0  0.105521  0.118306  0  1.005043  0
H  H47  1  0.03899586  0.00774969  0.07393692  1  0.087951  0  0.105432  0.114028  0  1.007979  0
H  H48  1  0.37408938  0.83508627  0.76799979  1  0.098803  0  0.100466  0.099724  0  1.046281  0
H  H49  1  0.14457584  0.91063823  0.13848290  1  0.079177  0  0.097899  0.098887  0  1.057129  0
H  H50  1  0.37828839  0.83857522  0.63723044  1  0.051137  0  0.099711  0.099721  0  1.013823  0
H  H51  1  0.34314551  0.80829291  0.40433970  1  0.052615  0  0.100729  0.106993  0  1.022493  0
H  H52  1  0.41065492  0.06680102  0.17847276  1  0.055337  0  0.099651  0.100531  0  1.017579  0
H  H53  1  0.30241755  0.16403703  0.11498093  1  0.105664  0  0.100874  0.106985  0  1.029161  0
H  H54  1  0.28343077  0.83391783  0.13561186  1  0.105173  0  0.100315  0.104667  0  1.049017  0
H  H55  1  0.34203984  0.80743283  0.53514803  1  0.033713  0  0.097883  0.09391  0  1.030984  0
H  H56  1  0.51766505  0.89603301  0.34620216  1  0.076752  0  0.105889  0.116055  0  0.990206  0
H  H57  1  0.42574128  0.99643818  0.27820885  1  0.0747  0  0.101393  0.100864  0  1.005127  0
H  H58  1  0.12742297  0.23430272  0.20430083  1  0.119518  0  0.105521  0.118321  0  1.004977  0
H  H59  1  0.46100455  0.50774982  0.07393672  1  0.087923  0  0.105423  0.114015  0  1.00799  0
H  H60  1  0.12590952  0.33508501  0.76799869  1  0.098833  0  0.10047  0.099704  0  1.046259  0
H  H61  1  0.35542712  0.41063743  0.13848278  1  0.079148  0  0.097901  0.098884  0  1.05713  0
H  H62  1  0.12171053  0.33857396  0.63723095  1  0.051171  0  0.099718  0.09974  0  1.013869  0
H  H63  1  0.15685580  0.30829274  0.40433852  1  0.052594  0  0.100716  0.106972  0  1.022528  0
H  H64  1  0.08934726  0.56680074  0.17847302  1  0.055358  0  0.099674  0.10057  0  1.017558  0
H  H65  1  0.19758245  0.66403726  0.11498197  1  0.105612  0  0.100881  0.10699  0  1.029192  0
H  H66  1  0.21657395  0.33391763  0.13561158  1  0.105102  0  0.100364  0.104762  0  1.048952  0
H  H67  1  0.15796061  0.30743321  0.53514684  1  0.033713  0  0.097912  0.093952  0  1.030939  0
H  H68  1  0.98233633  0.39603271  0.34620331  1  0.076759  0  0.105837  0.116031  0  0.990099  0
H  H69  1  0.07426152  0.49643638  0.27820843  1  0.074746  0  0.101367  0.100793  0  1.005184  0
H  H70  1  0.24999979  0.90602353  0.99999962  1  0.594623  0  0.300144  0.394029  0  0.915114  0
H  H71  1  0.37257885  0.23430411  0.79569860  1  0.119546  0  0.105527  0.118312  0  1.004996  0
H  H72  1  0.03899451  0.50774848  0.92606306  1  0.087934  0  0.105438  0.114016  0  1.007962  0
H  H73  1  0.37408970  0.33508626  0.23200067  1  0.098842  0  0.100472  0.099692  0  1.046272  0
H  H74  1  0.14457704  0.41063831  0.86151867  1  0.079195  0  0.097906  0.098923  0  1.057082  0
H  H75  1  0.37828869  0.33857400  0.36276948  1  0.051158  0  0.099712  0.09974  0  1.013851  0
H  H76  1  0.34314345  0.30829318  0.59566140  1  0.052588  0  0.100729  0.107003  0  1.022486  0
H  H77  1  0.41065090  0.56680266  0.82152726  1  0.055368  0  0.099681  0.100581  0  1.017557  0
H  H78  1  0.30241479  0.66403917  0.88501824  1  0.105592  0  0.10091  0.107039  0  1.029172  0
H  H79  1  0.28343112  0.33391846  0.86438832  1  0.105156  0  0.100316  0.104671  0  1.049004  0
H  H80  1  0.34204114  0.30743209  0.46485254  1  0.03384  0  0.097905  0.093958  0  1.030977  0
H  H81  1  0.51766427  0.39603269  0.65379681  1  0.07674  0  0.105868  0.116039  0  0.990199  0
H  H82  1  0.42574173  0.49643781  0.72179083  1  0.074553  0  0.101389  0.100871  0  1.005119  0
H  H83  1  0.87257690  0.26569769  0.20430089  1  0.119495  0  0.105512  0.118312  0  1.004964  0
H  H84  1  0.53899655  0.99224944  0.07393592  1  0.087957  0  0.105428  0.114021  0  1.00797  0
H  H85  1  0.87408665  0.16491333  0.76799775  1  0.098779  0  0.100469  0.099692  0  1.046267  0
H  H86  1  0.64457402  0.08936137  0.13848197  1  0.079173  0  0.097898  0.098874  0  1.05715  0
H  H87  1  0.87828901  0.16142558  0.63722893  1  0.051133  0  0.099727  0.099725  0  1.013857  0
H  H88  1  0.84314694  0.19170753  0.40433977  1  0.052653  0  0.100733  0.107022  0  1.022516  0
H  H89  1  0.91065565  0.93320011  0.17847446  1  0.055276  0  0.099677  0.100589  0  1.017584  0
H  H90  1  0.80242005  0.83596419  0.11498377  1  0.105696  0  0.100873  0.106994  0  1.029177  0
H  H91  1  0.78342804  0.16608338  0.13561195  1  0.105126  0  0.100328  0.104701  0  1.048958  0
H  H92  1  0.84204127  0.19256751  0.53514756  1  0.033947  0  0.097905  0.093929  0  1.030961  0
H  H93  1  0.01766261  0.10396870  0.34620150  1  0.076797  0  0.105851  0.116067  0  0.990109  0
H  H94  1  0.92573870  0.00356453  0.27820852  1  0.074764  0  0.10138  0.100834  0  1.005173  0
H  H95  1  0.75000352  0.59396600  0.00000039  1  0.594306  0  0.300293  0.394028  0  0.915144  0
H  H96  1  0.62742048  0.26569642  0.79569878  1  0.119524  0  0.105517  0.118292  0  1.00503  0
H  H97  1  0.96100267  0.99224849  0.92606380  1  0.087621  0  0.105441  0.114035  0  1.007955  0
H  H98  1  0.62591166  0.16491413  0.23200146  1  0.098815  0  0.100477  0.099722  0  1.046262  0
H  H99  1  0.85542436  0.08936051  0.86151675  1  0.0792  0  0.09792  0.098889  0  1.057113  0
H  H100  1  0.62171182  0.16142463  0.36277028  1  0.051126  0  0.099702  0.099707  0  1.013843  0
H  H101  1  0.65685469  0.19170805  0.59565995  1  0.052595  0  0.100746  0.107022  0  1.022465  0
H  H102  1  0.58934278  0.93319939  0.82152476  1  0.055282  0  0.099666  0.100558  0  1.017632  0
H  H103  1  0.69757848  0.83596338  0.88501658  1  0.105669  0  0.100877  0.107018  0  1.029156  0
H  H104  1  0.71656944  0.16608257  0.86438779  1  0.105169  0  0.100323  0.104679  0  1.049024  0
H  H105  1  0.65796036  0.19256758  0.46485216  1  0.033714  0  0.097883  0.093918  0  1.030978  0
H  H106  1  0.48233516  0.10396739  0.65379749  1  0.076753  0  0.105855  0.116033  0  0.990117  0
H  H107  1  0.57425976  0.00356333  0.72179133  1  0.074583  0  0.101404  0.100867  0  1.005173  0
C  C108  1  0.60008738  0.35027897  0.94773623  1  1.518589  0  0.223224  0.599658  0  4.179005  0
C  C109  1  0.66446818  0.40814509  0.90963413  1  -0.032948  0  -0.025679  -0.056348  0  3.99613  0
C  C110  1  0.88400427  0.70824330  0.77934224  1  -0.038202  0  -0.092652  -0.160292  0  3.973332  0
C  C111  1  0.94948540  0.69162448  0.71930734  1  0.319034  0  0.091103  0.174139  0  4.040989  0
C  C112  1  0.62061719  0.47992693  0.90321006  1  -0.053413  0  -0.082963  -0.079643  0  3.972022  0
C  C113  1  0.92967283  0.70204203  0.26092642  1  -0.083529  0  -0.084107  -0.079538  0  3.98359  0
C  C114  1  0.68043657  0.53416395  0.86722175  1  -0.016141  0  -0.094986  -0.148079  0  3.984235  0
C  C115  1  0.78555412  0.51859798  0.83659875  1  -0.048691  0  -0.000509  0.084077  0  3.992993  0
C  C116  1  0.84589018  0.57711135  0.79768029  1  -0.02477  0  -0.015655  0.046191  0  4.010475  0
C  C117  1  0.93113398  0.70130943  0.33502837  1  -0.057577  0  -0.094187  -0.139944  0  3.977278  0
C  C118  1  0.91242270  0.71684261  0.56669865  1  0.043814  0  -0.101783  -0.182973  0  4.014223  0
C  C119  1  0.82865769  0.44634124  0.84358717  1  -0.039584  0  -0.091894  -0.134728  0  3.969641  0
C  C120  1  0.76896289  0.39179501  0.87951781  1  -0.006998  0  -0.085047  -0.079249  0  3.970066  0
C  C121  1  0.83352258  0.65176864  0.81784209  1  -0.033557  0  -0.088569  -0.107761  0  3.973708  0
C  C122  1  0.91301820  0.71702495  0.49263780  1  -0.080574  0  -0.092217  -0.111299  0  4.007443  0
C  C123  1  0.96534094  0.61723927  0.69971309  1  -0.074203  0  -0.097383  -0.174212  0  4.010042  0
C  C124  1  0.91404161  0.56096466  0.73845320  1  -0.054373  0  -0.090438  -0.115087  0  4.001587  0
C  C125  1  0.89991243  0.35028034  0.05226392  1  1.518549  0  0.223249  0.599664  0  4.179155  0
C  C126  1  0.83553241  0.40814480  0.09036651  1  -0.032831  0  -0.025676  -0.056285  0  3.996  0
C  C127  1  0.61599521  0.70824411  0.22065767  1  -0.038208  0  -0.092666  -0.160299  0  3.973082  0
C  C128  1  0.55051493  0.69162472  0.28069204  1  0.319061  0  0.091143  0.174167  0  4.040918  0
C  C129  1  0.87938166  0.47992828  0.09679000  1  -0.053437  0  -0.08292  -0.079573  0  3.972016  0
C  C130  1  0.57032499  0.70204304  0.73907563  1  -0.083522  0  -0.084159  -0.079543  0  3.98364  0
C  C131  1  0.81956140  0.53416142  0.13277774  1  -0.016032  0  -0.095053  -0.148181  0  3.984411  0
C  C132  1  0.71444302  0.51859935  0.16339862  1  -0.048818  0  -0.000487  0.084161  0  3.992919  0
C  C133  1  0.65410858  0.57711105  0.20231811  1  -0.024979  0  -0.015649  0.046167  0  4.010624  0
C  C134  1  0.56886300  0.70130993  0.66497368  1  -0.05751  0  -0.094174  -0.140034  0  3.97728  0
C  C135  1  0.58757593  0.71684272  0.43330339  1  0.043844  0  -0.101804  -0.183005  0  4.014273  0
C  C136  1  0.67134370  0.44633986  0.15641292  1  -0.039593  0  -0.091928  -0.134813  0  3.969736  0
C  C137  1  0.73103689  0.39179751  0.12048284  1  -0.007065  0  -0.085054  -0.079222  0  3.970072  0
C  C138  1  0.66647527  0.65176835  0.18215625  1  -0.033543  0  -0.088522  -0.107683  0  3.973602  0
C  C139  1  0.58698127  0.71702612  0.50736317  1  -0.080554  0  -0.092213  -0.11127  0  4.007525  0
C  C140  1  0.53465862  0.61723895  0.30028475  1  -0.074158  0  -0.097443  -0.174269  0  4.009961  0
C  C141  1  0.58595717  0.56096379  0.26154413  1  -0.054374  0  -0.090419  -0.115131  0  4.001704  0
C  C142  1  0.39991346  0.14971813  0.94773604  1  1.518618  0  0.223261  0.599776  0  4.178871  0
C  C143  1  0.33553040  0.09185481  0.90963361  1  -0.03287  0  -0.025698  -0.056388  0  3.996125  0
C  C144  1  0.11599638  0.79175655  0.77934324  1  -0.038212  0  -0.092709  -0.160345  0  3.973172  0
C  C145  1  0.05051731  0.80837431  0.71930851  1  0.319504  0  0.091152  0.174232  0  4.040774  0
C  C146  1  0.37938143  0.02007408  0.90320948  1  -0.053406  0  -0.083007  -0.079701  0  3.972003  0
C  C147  1  0.07032788  0.79795654  0.26092540  1  -0.083476  0  -0.084177  -0.079632  0  3.983578  0
C  C148  1  0.31956099  0.96583695  0.86722049  1  -0.016162  0  -0.095011  -0.14807  0  3.984255  0
C  C149  1  0.21444448  0.98140183  0.83660042  1  -0.04876  0  -0.000494  0.084087  0  3.993081  0
C  C150  1  0.15410867  0.92288905  0.79768217  1  -0.024987  0  -0.01564  0.046193  0  4.010631  0
C  C151  1  0.06886206  0.79869020  0.33502843  1  -0.057546  0  -0.09418  -0.140054  0  3.977369  0
C  C152  1  0.08757516  0.78315740  0.56669813  1  0.043841  0  -0.101776  -0.182971  0  4.014223  0
C  C153  1  0.17134132  0.05365815  0.84358818  1  -0.039629  0  -0.09187  -0.134672  0  3.969523  0
C  C154  1  0.23103590  0.10820436  0.87951810  1  -0.007006  0  -0.08504  -0.079273  0  3.969965  0
C  C155  1  0.16647781  0.84823174  0.81784399  1  -0.033582  0  -0.088564  -0.10778  0  3.973726  0
C  C156  1  0.08698098  0.78297290  0.49263568  1  -0.080622  0  -0.092187  -0.111251  0  4.007476  0
C  C157  1  0.03466273  0.88276008  0.69971371  1  -0.074605  0  -0.097375  -0.174293  0  4.0098  0
C  C158  1  0.08595930  0.93903523  0.73845525  1  -0.054228  0  -0.090448  -0.115059  0  4.001656  0
C  C159  1  0.10008593  0.14971685  0.05226292  1  1.518574  0  0.223395  0.599974  0  4.178861  0
C  C160  1  0.16446988  0.09185348  0.09036485  1  -0.032933  0  -0.025664  -0.056427  0  3.996135  0
C  C161  1  0.38400743  0.79175670  0.22065635  1  -0.038184  0  -0.092657  -0.160373  0  3.973163  0
C  C162  1  0.44948481  0.80837550  0.28069214  1  0.318997  0  0.091125  0.174185  0  4.04087  0
C  C163  1  0.12061724  0.02007055  0.09679010  1  -0.053444  0  -0.08295  -0.079643  0  3.971979  0
C  C164  1  0.42967007  0.79795740  0.73907632  1  -0.083543  0  -0.084196  -0.079718  0  3.983622  0
C  C165  1  0.18044015  0.96583614  0.13277792  1  -0.016195  0  -0.095028  -0.148124  0  3.984314  0
C  C166  1  0.28555832  0.98140151  0.16339744  1  -0.048776  0  -0.000547  0.084038  0  3.993073  0
C  C167  1  0.34589418  0.92288922  0.20231627  1  -0.025204  0  -0.015627  0.046128  0  4.010752  0
C  C168  1  0.43113672  0.79869056  0.66497383  1  -0.057515  0  -0.094103  -0.139883  0  3.977196  0
C  C169  1  0.41242447  0.78315794  0.43330253  1  0.043849  0  -0.101773  -0.182954  0  4.014161  0
C  C170  1  0.32865816  0.05365892  0.15641084  1  -0.039683  0  -0.09192  -0.134693  0  3.96962  0
C  C171  1  0.26896353  0.10820185  0.12048089  1  -0.006976  0  -0.084992  -0.079156  0  3.970022  0
C  C172  1  0.33352678  0.84823250  0.18215449  1  -0.033606  0  -0.088528  -0.107585  0  3.973637  0
C  C173  1  0.41301782  0.78297394  0.50736498  1  -0.080641  0  -0.092216  -0.111267  0  4.007465  0
C  C174  1  0.46534183  0.88276180  0.30028475  1  -0.07407  0  -0.097426  -0.174186  0  4.010005  0
C  C175  1  0.41404437  0.93903700  0.26154263  1  -0.054132  0  -0.090443  -0.115204  0  4.001748  0
C  C176  1  0.39990195  0.64972310  0.05226128  1  1.518083  0  0.223264  0.599746  0  4.178783  0
C  C177  1  0.33553035  0.59185310  0.09036285  1  -0.032525  0  -0.02567  -0.056315  0  3.995985  0
C  C178  1  0.11599761  0.29175710  0.22065634  1  -0.038259  0  -0.092665  -0.16034  0  3.973273  0
C  C179  1  0.05051814  0.30837482  0.28069124  1  0.319569  0  0.091042  0.174053  0  4.040981  0
C  C180  1  0.37938217  0.52007292  0.09678852  1  -0.053434  0  -0.082948  -0.079672  0  3.972031  0
C  C181  1  0.07032654  0.29795671  0.73907697  1  -0.083517  0  -0.084207  -0.079664  0  3.983612  0
C  C182  1  0.31956280  0.46583590  0.13277790  1  -0.016172  0  -0.095001  -0.148104  0  3.984282  0
C  C183  1  0.21444608  0.48140186  0.16339877  1  -0.048731  0  -0.000508  0.084093  0  3.99299  0
C  C184  1  0.15411002  0.42288905  0.20231830  1  -0.024775  0  -0.015656  0.046178  0  4.010538  0
C  C185  1  0.06886288  0.29868987  0.66497448  1  -0.057508  0  -0.094134  -0.139943  0  3.977273  0
C  C186  1  0.08757667  0.28315835  0.43330260  1  0.043835  0  -0.101764  -0.182951  0  4.014183  0
C  C187  1  0.17134335  0.55365805  0.15641035  1  -0.039595  0  -0.091964  -0.134785  0  3.969648  0
C  C188  1  0.23103648  0.60820484  0.12048023  1  -0.007005  0  -0.084986  -0.079171  0  3.969932  0
C  C189  1  0.16647929  0.34823121  0.18215649  1  -0.033595  0  -0.088524  -0.107722  0  3.97375  0
C  C190  1  0.08698284  0.28297435  0.50736452  1  -0.080645  0  -0.09223  -0.111293  0  4.007439  0
C  C191  1  0.03466177  0.38276058  0.30028603  1  -0.07459  0  -0.097325  -0.174166  0  4.009882  0
C  C192  1  0.08595943  0.43903519  0.26154485  1  -0.054548  0  -0.090449  -0.115086  0  4.001656  0
C  C193  1  0.10009446  0.64972228  0.94773680  1  1.518097  0  0.223229  0.599654  0  4.179043  0
C  C194  1  0.16446863  0.59185394  0.90963741  1  -0.032421  0  -0.02564  -0.0563  0  3.996061  0
C  C195  1  0.38400583  0.29175684  0.77934305  1  -0.038186  0  -0.092695  -0.160361  0  3.973103  0
C  C196  1  0.44948444  0.30837569  0.71930708  1  0.319  0  0.09113  0.174143  0  4.040912  0
C  C197  1  0.12061938  0.52007157  0.90321072  1  -0.0534  0  -0.082938  -0.07957  0  3.972012  0
C  C198  1  0.42967438  0.29795792  0.26092402  1  -0.08355  0  -0.084189  -0.079638  0  3.983584  0
C  C199  1  0.18044048  0.46583677  0.86722351  1  -0.01646  0  -0.095008  -0.148141  0  3.984287  0
C  C200  1  0.28555718  0.48140216  0.83660263  1  -0.048464  0  -0.000575  0.08397  0  3.993018  0
C  C201  1  0.34589496  0.42289046  0.79768368  1  -0.025166  0  -0.01564  0.046111  0  4.010699  0
C  C202  1  0.43113720  0.29868991  0.33502651  1  -0.057513  0  -0.094146  -0.139961  0  3.977235  0
C  C203  1  0.41242260  0.28315713  0.56669680  1  0.043851  0  -0.101796  -0.183021  0  4.014329  0
C  C204  1  0.32865483  0.55366165  0.84359047  1  -0.039563  0  -0.091905  -0.13469  0  3.969545  0
C  C205  1  0.26896165  0.60820567  0.87952055  1  -0.007071  0  -0.085087  -0.079319  0  3.970206  0
C  C206  1  0.33352744  0.34823261  0.81784500  1  -0.033551  0  -0.088527  -0.107602  0  3.973558  0
C  C207  1  0.41301726  0.28297318  0.49263648  1  -0.080552  0  -0.092282  -0.111348  0  4.007578  0
C  C208  1  0.46534075  0.38276145  0.69971437  1  -0.074083  0  -0.097442  -0.174201  0  4.010033  0
C  C209  1  0.41404471  0.43903717  0.73845605  1  -0.053998  0  -0.090383  -0.115144  0  4.001693  0
C  C210  1  0.60008256  0.85028726  0.05225667  1  1.518615  0  0.223478  0.600061  0  4.178745  0
C  C211  1  0.66447064  0.90814615  0.09036497  1  -0.032989  0  -0.025639  -0.056355  0  3.996109  0
C  C212  1  0.88400466  0.20824385  0.22065587  1  -0.038221  0  -0.092667  -0.160376  0  3.973105  0
C  C213  1  0.94948457  0.19162609  0.28069061  1  0.319516  0  0.091145  0.174252  0  4.040872  0
C  C214  1  0.62061794  0.97992743  0.09678964  1  -0.053355  0  -0.082975  -0.079654  0  3.971959  0
C  C215  1  0.92967149  0.20204165  0.73907585  1  -0.083522  0  -0.084137  -0.079549  0  3.983554  0
C  C216  1  0.68043921  0.03416401  0.13277809  1  -0.016186  0  -0.095004  -0.148105  0  3.984289  0
C  C217  1  0.78555573  0.01859913  0.16339976  1  -0.048748  0  -0.000549  0.084052  0  3.993034  0
C  C218  1  0.84589069  0.07711191  0.20231802  1  -0.024819  0  -0.015674  0.04618  0  4.010605  0
C  C219  1  0.93113647  0.20130910  0.66497336  1  -0.057514  0  -0.094144  -0.139951  0  3.977187  0
C  C220  1  0.91242671  0.21684189  0.43330259  1  0.043838  0  -0.101839  -0.183126  0  4.014245  0
C  C221  1  0.82865888  0.94634225  0.15641254  1  -0.039615  0  -0.091838  -0.134688  0  3.969515  0
C  C222  1  0.76896347  0.89179771  0.12048262  1  -0.006982  0  -0.085121  -0.079303  0  3.970062  0
C  C223  1  0.83352156  0.15176921  0.18215673  1  -0.033611  0  -0.088522  -0.107663  0  3.973567  0
C  C224  1  0.91301838  0.21702640  0.50736450  1  -0.080638  0  -0.092187  -0.111157  0  4.007377  0
C  C225  1  0.96533831  0.11723976  0.30028540  1  -0.0746  0  -0.097396  -0.174317  0  4.009898  0
C  C226  1  0.91404090  0.06096518  0.26154386  1  -0.054553  0  -0.090433  -0.115122  0  4.001709  0
C  C227  1  0.89991845  0.85028854  0.94774314  1  1.518613  0  0.223435  0.599908  0  4.178854  0
C  C228  1  0.83552865  0.90814582  0.90963587  1  -0.033093  0  -0.025689  -0.056401  0  3.996166  0
C  C229  1  0.61599361  0.20824425  0.77934277  1  -0.038185  0  -0.092651  -0.160321  0  3.973042  0
C  C230  1  0.55051372  0.19162435  0.71930751  1  0.319018  0  0.091109  0.174147  0  4.040958  0
C  C231  1  0.87938129  0.97992709  0.90321008  1  -0.052997  0  -0.082989  -0.079679  0  3.971928  0
C  C232  1  0.57032930  0.20204356  0.26092386  1  -0.083505  0  -0.084207  -0.079683  0  3.983594  0
C  C233  1  0.81956005  0.03416316  0.86722120  1  -0.016533  0  -0.095012  -0.148096  0  3.9842  0
C  C234  1  0.71444272  0.01859890  0.83660008  1  -0.048404  0  -0.00053  0.084087  0  3.992973  0
C  C235  1  0.65410770  0.07711173  0.79768178  1  -0.024967  0  -0.0157  0.046137  0  4.010606  0
C  C236  1  0.56886432  0.20130929  0.33502636  1  -0.057515  0  -0.094106  -0.139897  0  3.977191  0
C  C237  1  0.58757573  0.21684246  0.56669658  1  0.043881  0  -0.101784  -0.182982  0  4.014168  0
C  C238  1  0.67134121  0.94634148  0.84358774  1  -0.039621  0  -0.091889  -0.134742  0  3.969638  0
C  C239  1  0.73103583  0.89179744  0.87951823  1  -0.006986  0  -0.08501  -0.079197  0  3.970026  0
C  C240  1  0.66647509  0.15176791  0.81784355  1  -0.033568  0  -0.088501  -0.107627  0  3.973529  0
C  C241  1  0.58698239  0.21702647  0.49263467  1  -0.080651  0  -0.092252  -0.111308  0  4.007477  0
C  C242  1  0.53465838  0.11723971  0.69971490  1  -0.074179  0  -0.09743  -0.174238  0  4.010047  0
C  C243  1  0.58595667  0.06096396  0.73845541  1  -0.054231  0  -0.090419  -0.115166  0  4.001691  0
C  C244  1  0.00000017  0.75000065  0.60543935  1  0.305267  0  0.097907  0.191055  0  4.038345  0
C  C245  1  0.99999819  0.74999831  0.37437108  1  0.092789  0  -0.000814  0.085965  0  3.993305  0
C  C246  1  0.00001172  0.75000192  0.14342830  1  1.541017  0  0.22375  0.594297  0  4.17185  0
C  C247  1  0.00000067  0.74999738  0.45303351  1  -0.035637  0  -0.022211  0.035777  0  4.019493  0
C  C248  1  0.99999953  0.74999781  0.22268816  1  0.025814  0  -0.027785  -0.057196  0  3.991417  0
C  C249  1  0.49999950  0.75000007  0.39456133  1  0.305284  0  0.097895  0.190992  0  4.038361  0
C  C250  1  0.49999957  0.75000054  0.62563040  1  0.092756  0  -0.000864  0.08593  0  3.993372  0
C  C251  1  0.49999046  0.75000433  0.85657399  1  1.541009  0  0.223729  0.59427  0  4.172023  0
C  C252  1  0.49999900  0.74999946  0.54696718  1  -0.035668  0  -0.022166  0.035767  0  4.019506  0
C  C253  1  0.49999908  0.74999937  0.77731385  1  0.02582  0  -0.027761  -0.057217  0  3.991643  0
C  C254  1  0.00000193  0.24999996  0.39456110  1  0.305272  0  0.097888  0.19104  0  4.038369  0
C  C255  1  0.00000117  0.24999988  0.62563070  1  0.092758  0  -0.000841  0.085945  0  3.993376  0
C  C256  1  0.99999601  0.24999737  0.85657669  1  1.540936  0  0.223764  0.594351  0  4.171882  0
C  C257  1  0.00000060  0.24999991  0.54696749  1  -0.035661  0  -0.022222  0.035696  0  4.01958  0
C  C258  1  0.99999878  0.24999795  0.77731549  1  0.025833  0  -0.027782  -0.057293  0  3.991576  0
C  C259  1  0.50000071  0.24999978  0.60543832  1  0.305298  0  0.097912  0.191048  0  4.038352  0
C  C260  1  0.49999979  0.24999931  0.37436925  1  0.092753  0  -0.000851  0.085932  0  3.993322  0
C  C261  1  0.50000139  0.25000106  0.14342512  1  1.540916  0  0.22381  0.594385  0  4.171739  0
C  C262  1  0.49999954  0.24999984  0.45303247  1  -0.035666  0  -0.022115  0.0358  0  4.019485  0
C  C263  1  0.50000113  0.25000103  0.22268526  1  0.025808  0  -0.027758  -0.057228  0  3.991492  0
N  N264  1  0.00000160  0.74999951  0.68026744  1  -1.212452  0  -0.250296  -0.146308  0  3.679266  0
N  N265  1  0.49999891  0.74999954  0.31973325  1  -1.212453  0  -0.250304  -0.146219  0  3.679155  0
N  N266  1  0.00000301  0.24999943  0.31973249  1  -1.212413  0  -0.250238  -0.146224  0  3.679236  0
N  N267  1  0.49999879  0.24999975  0.68026640  1  -1.21243  0  -0.250255  -0.146172  0  3.679032  0
O  O268  1  0.50751959  0.36988632  0.97613278  1  -1.173295  0  -0.316023  -0.556472  0  2.376631  0
O  O269  1  0.91922953  0.71682781  0.11202842  1  -1.184989  0  -0.310027  -0.558495  0  2.398516  0
O  O270  1  0.64110255  0.28485429  0.94936038  1  -1.179336  0  -0.312822  -0.560131  0  2.404304  0
O  O271  1  0.99247937  0.36988712  0.02386628  1  -1.173305  0  -0.315996  -0.556458  0  2.376631  0
O  O272  1  0.58076910  0.71683037  0.88797255  1  -1.185079  0  -0.30996  -0.558423  0  2.39857  0
O  O273  1  0.85889732  0.28485568  0.05064088  1  -1.179089  0  -0.312844  -0.560168  0  2.404467  0
O  O274  1  0.49247939  0.13011131  0.97613289  1  -1.173335  0  -0.315983  -0.556507  0  2.376711  0
O  O275  1  0.08078051  0.78316865  0.11203166  1  -1.185478  0  -0.309781  -0.558126  0  2.399142  0
O  O276  1  0.35889745  0.21514558  0.94936238  1  -1.179298  0  -0.312893  -0.560237  0  2.404175  0
O  O277  1  0.00752001  0.13010899  0.02386555  1  -1.173378  0  -0.316038  -0.556547  0  2.376622  0
O  O278  1  0.41922164  0.78316941  0.88797061  1  -1.185524  0  -0.30986  -0.558187  0  2.399148  0
O  O279  1  0.14110021  0.21514429  0.05063973  1  -1.179024  0  -0.312963  -0.560355  0  2.404233  0
O  O280  1  0.49247727  0.63011464  0.02386633  1  -1.173144  0  -0.316095  -0.556602  0  2.376262  0
O  O281  1  0.08077234  0.28316705  0.88797337  1  -1.185083  0  -0.309953  -0.558367  0  2.398731  0
O  O282  1  0.35889180  0.71514556  0.05063980  1  -1.179412  0  -0.312826  -0.560177  0  2.404524  0
O  O283  1  0.00752084  0.63011107  0.97613283  1  -1.173228  0  -0.316011  -0.556514  0  2.37645  0
O  O284  1  0.41922441  0.28316782  0.11202817  1  -1.185181  0  -0.309966  -0.558352  0  2.398748  0
O  O285  1  0.14110121  0.71514583  0.94936037  1  -1.179192  0  -0.312862  -0.560145  0  2.404532  0
O  O286  1  0.50751997  0.86989075  0.02386356  1  -1.173433  0  -0.316074  -0.556602  0  2.376733  0
O  O287  1  0.91922220  0.21683230  0.88797387  1  -1.185472  0  -0.309907  -0.558287  0  2.399086  0
O  O288  1  0.64110192  0.78485649  0.05063620  1  -1.178892  0  -0.313016  -0.560492  0  2.404139  0
O  O289  1  0.99248103  0.86989031  0.97613624  1  -1.173462  0  -0.31606  -0.556494  0  2.376752  0
O  O290  1  0.58077606  0.21683266  0.11202744  1  -1.18519  0  -0.309912  -0.558323  0  2.398922  0
O  O291  1  0.85889665  0.78485723  0.94936419  1  -1.179121  0  -0.312969  -0.560389  0  2.404094  0
O  O292  1  0.25000089  0.35227893  0.99999981  1  -1.222598  0  -0.587337  -0.842283  0  2.187565  0
O  O293  1  0.75000039  0.14772182  0.00000161  1  -1.222604  0  -0.587327  -0.842186  0  2.18752  0
O  O294  1  0.75000099  0.64770540  0.00000518  1  -1.222282  0  -0.587615  -0.842461  0  2.187245  0
O  O295  1  0.24999892  0.85227840  0.00000044  1  -1.222601  0  -0.587372  -0.842356  0  2.187501  0
