# generated using pymatgen
data_CuH3C5N5O2
_symmetry_space_group_name_H-M   'P 1'
_cell_length_a   7.62449750
_cell_length_b   7.62496886
_cell_length_c   13.08041237
_cell_angle_alpha   96.55054381
_cell_angle_beta   96.55045553
_cell_angle_gamma   99.20458722
_symmetry_Int_Tables_number   1
_chemical_formula_structural   CuH3C5N5O2
_chemical_formula_sum   'Cu4 H12 C20 N20 O8'
_cell_volume   738.93737386
_cell_formula_units_Z   4
loop_
 _symmetry_equiv_pos_site_id
 _symmetry_equiv_pos_as_xyz
  1  'x, y, z'
loop_
 _atom_site_type_symbol
 _atom_site_label
 _atom_site_symmetry_multiplicity
 _atom_site_fract_x
 _atom_site_fract_y
 _atom_site_fract_z
 _atom_site_occupancy
 _atom_site_hle17_ddec_charge
 _atom_site_hle17_ddec_spin_density
 _atom_site_hle17_ddec_sum_bond_order
 _atom_site_hle17_magmom
 _atom_site_hse06_10hf_ddec_charge
 _atom_site_hse06_10hf_ddec_spin_density
 _atom_site_hse06_10hf_ddec_sum_bond_order
 _atom_site_hse06_10hf_magmom
 _atom_site_hse06_ddec_charge
 _atom_site_hse06_ddec_spin_density
 _atom_site_hse06_ddec_sum_bond_order
 _atom_site_hse06_magmom
 _atom_site_pbe_cm5_charge
 _atom_site_pbe_ddec_charge
 _atom_site_pbe_ddec_spin_density
 _atom_site_pbe_ddec_sum_bond_order
 _atom_site_pbe_magmom
Cu  Cu0  1  0.60427546  0.39572873  0.75000037  1  0.765187  -0.641395  1.973363  -0.442  0.77187  -0.7551  2.362319  -0.586  0.85881  -0.834285  2.302724  -0.682  0.76385  0.737249  -0.72988  2.395853  -0.545
Cu  Cu1  1  0.39576353  0.60423242  0.24999017  1  0.762112  -0.518971  1.982019  -0.357  0.766828  -0.719075  2.373399  -0.558  0.854218  -0.824205  2.313536  -0.673  0.761588  0.724412  -0.577179  2.409527  -0.43
Cu  Cu2  1  0.32439797  0.67561642  0.74999728  1  0.760052  -0.643734  1.904206  -0.447  0.774233  -0.772463  2.272758  -0.604  0.880374  -0.875674  2.206024  -0.723  0.735161  0.704608  -0.669111  2.321076  -0.504
Cu  Cu3  1  0.67537081  0.32462769  0.25000330  1  0.765515  0.670433  1.918178  0.445  0.775285  0.805603  2.289246  0.607  0.878645  0.932703  2.22328  0.724  0.741828  0.707979  0.664425  2.336007  0.491
H  H4  1  0.83071342  0.30398478  0.94583015  1  0.110073  -0.001286  0.91221  -0.002  0.117715  -0.001043  0.971588  -0.001  0.120975  -0.000741  0.967246  -0.001  0.132588  0.114359  -0.001297  0.975769  -0.002
H  H5  1  0.69600642  0.16928833  0.55418545  1  0.110184  -0.001288  0.912138  -0.002  0.117711  -0.001043  0.971614  -0.001  0.120967  -0.000742  0.967283  -0.001  0.132576  0.114359  -0.001298  0.975795  -0.002
H  H6  1  0.17115357  0.69568615  0.05582795  1  0.110516  -0.000395  0.912371  0.0  0.117538  -0.000764  0.972095  -0.001  0.120589  -0.00063  0.967896  -0.001  0.133246  0.1147  -0.000801  0.975915  -0.001
H  H7  1  0.30433491  0.82881857  0.44415873  1  0.110601  -0.000398  0.912295  0.0  0.117555  -0.000763  0.972081  -0.001  0.120609  -0.000629  0.967872  -0.001  0.133218  0.114717  -0.0008  0.975903  -0.001
H  H8  1  0.61324750  0.74203344  0.94352950  1  0.104873  -0.000955  0.938143  -0.002  0.112083  -0.000835  1.002318  -0.002  0.115464  -0.000557  0.997986  -0.001  0.128442  0.108694  -0.000948  1.006134  -0.002
H  H9  1  0.25797943  0.38676737  0.55647353  1  0.104933  -0.000953  0.938183  -0.002  0.112065  -0.000834  1.002441  -0.002  0.115446  -0.000556  0.998108  -0.001  0.128456  0.108677  -0.000947  1.006252  -0.002
H  H10  1  0.38758582  0.25765855  0.05698997  1  0.106428  0.000927  0.935443  0.001  0.112909  0.001005  0.999987  0.001  0.116072  0.000864  0.995837  0.001  0.129333  0.110341  0.000931  1.003076  0.001
H  H11  1  0.74232220  0.61243974  0.44301178  1  0.106359  0.000923  0.935512  0.001  0.112807  0.001004  1.000129  0.001  0.115974  0.000863  0.995973  0.001  0.129273  0.110238  0.00093  1.003222  0.001
H  H12  1  0.83480028  0.02070487  0.02882169  1  0.141115  -0.000156  0.949052  0.0  0.148351  -0.000609  1.00881  -0.001  0.153105  -0.000465  1.006188  -0.001  0.120983  0.144276  -0.000602  1.011472  -0.001
H  H13  1  0.97929994  0.16519787  0.47119165  1  0.141153  -0.000156  0.949041  0.0  0.148352  -0.000609  1.0088  -0.001  0.153101  -0.000465  1.006182  -0.001  0.121068  0.144285  -0.000602  1.011469  -0.001
H  H14  1  0.16658423  0.97820607  0.97190458  1  0.143122  -0.000351  0.946775  0.0  0.14974  -0.00022  1.007293  0.0  0.154563  -0.000129  1.004685  0.0  0.121764  0.145762  -0.000352  1.009773  0.0
H  H15  1  0.02180593  0.83342215  0.52808983  1  0.143193  -0.000353  0.946616  0.0  0.14975  -0.00022  1.007211  0.0  0.154568  -0.000129  1.004609  0.0  0.121755  0.145768  -0.000352  1.009691  0.0
C  C16  1  0.39512947  0.02699740  0.68527653  1  0.573621  0.003031  3.977216  0.004  0.529769  -0.000717  4.285392  0.0  0.564649  -0.000841  4.278149  -0.001  0.20179  0.506228  -5.7e-05  4.285158  0.001
C  C17  1  0.97301002  0.60487406  0.81472470  1  0.573663  0.003028  3.976889  0.004  0.529709  -0.000718  4.285224  0.0  0.564591  -0.000843  4.277982  -0.001  0.201742  0.506166  -5.9e-05  4.284983  0.001
C  C18  1  0.60612009  0.97555251  0.31657409  1  0.570823  -0.003228  3.984411  -0.004  0.528397  -0.000703  4.288894  -0.001  0.56305  -0.00028  4.281787  -0.001  0.200392  0.504832  -0.001188  4.291359  -0.002
C  C19  1  0.02440694  0.39385728  0.18344041  1  0.571166  -0.003252  3.984514  -0.004  0.528639  -0.000706  4.289178  -0.001  0.5633  -0.000281  4.28208  -0.001  0.20053  0.505064  -0.001191  4.291656  -0.002
C  C20  1  0.51691694  0.02815900  0.78603284  1  0.254146  0.013595  3.726812  0.013  0.239298  0.003015  3.981185  0.004  0.253406  0.004471  3.996332  0.006  0.24198  0.228906  0.002009  3.974777  0.003
C  C21  1  0.97184548  0.48308695  0.71396481  1  0.254102  0.013574  3.726668  0.013  0.239244  0.003016  3.98108  0.004  0.253358  0.004472  3.996228  0.006  0.241981  0.228872  0.00201  3.974652  0.003
C  C22  1  0.48393015  0.97291958  0.21573658  1  0.257699  -0.002984  3.71882  -0.002  0.240983  -0.000779  3.975736  0.0  0.25539  -0.000385  3.990641  0.0  0.243542  0.23058  -0.001313  3.968175  -0.001
C  C23  1  0.02706668  0.51605619  0.28426694  1  0.257634  -0.002979  3.718654  -0.002  0.24106  -0.000778  3.975568  0.0  0.255482  -0.000384  3.990441  0.0  0.243677  0.230657  -0.001313  3.96802  -0.001
C  C24  1  0.62158298  0.86987164  0.91337152  1  0.201742  0.010515  3.601044  0.01  0.167681  0.002706  3.854246  0.003  0.183842  0.003943  3.865866  0.005  0.080437  0.156967  0.001848  3.848189  0.002
C  C25  1  0.13014042  0.37842501  0.58662675  1  0.201634  0.010497  3.601028  0.01  0.167609  0.002707  3.854203  0.003  0.183774  0.003943  3.865822  0.005  0.080433  0.156904  0.001848  3.848147  0.002
C  C26  1  0.37921317  0.13005778  0.08746743  1  0.203536  -0.000202  3.595093  -0.001  0.168899  0.001739  3.8503  0.001  0.185052  0.001047  3.862265  0.0  0.082508  0.158358  0.001985  3.842679  0.001
C  C27  1  0.86992546  0.62079818  0.41253319  1  0.203742  -0.000199  3.595023  -0.001  0.169068  0.001739  3.850254  0.001  0.185223  0.001048  3.862211  0.0  0.08268  0.158519  0.001985  3.842648  0.001
C  C28  1  0.74397374  0.02186017  0.95865284  1  -0.129557  -0.015247  3.624095  -0.015  -0.141382  -0.007474  3.867454  -0.009  -0.151854  -0.006914  3.881753  -0.008  -0.059506  -0.134742  -0.007458  3.858929  -0.008
C  C29  1  0.97814975  0.25603363  0.54135622  1  -0.129463  -0.015225  3.624002  -0.015  -0.141208  -0.007475  3.867217  -0.009  -0.151678  -0.006913  3.881517  -0.008  -0.059521  -0.13458  -0.007457  3.858702  -0.008
C  C30  1  0.25728939  0.97764453  0.04224326  1  -0.130305  0.003202  3.620109  0.003  -0.142629  0.000646  3.865088  0.001  -0.153437  0.00045  3.879733  0.001  -0.059122  -0.135586  0.000384  3.855987  0.001
C  C31  1  0.02236369  0.74270656  0.45775161  1  -0.130412  0.003207  3.620053  0.003  -0.142661  0.000648  3.864959  0.001  -0.153466  0.000451  3.879609  0.001  -0.059098  -0.135616  0.000387  3.855863  0.001
C  C32  1  0.74256153  0.17826323  0.91338447  1  0.211724  0.010761  3.582675  0.01  0.179608  0.002931  3.835453  0.003  0.195697  0.00405  3.844367  0.005  0.086773  0.168545  0.001804  3.831914  0.002
C  C33  1  0.82173607  0.25744202  0.58662711  1  0.211407  0.010749  3.58278  0.01  0.179365  0.002933  3.835428  0.003  0.195454  0.004052  3.844342  0.005  0.086675  0.168298  0.001804  3.831906  0.002
C  C34  1  0.25899090  0.82176525  0.08801663  1  0.212874  -0.002255  3.577004  -0.002  0.180511  -0.001233  3.831049  -0.001  0.196543  -0.000583  3.840579  0.0  0.088022  0.169117  -0.001769  3.826529  -0.001
C  C35  1  0.17824875  0.74099535  0.41197675  1  0.212867  -0.002234  3.577087  -0.002  0.180654  -0.001228  3.831042  -0.001  0.196686  -0.000581  3.84057  0.0  0.088119  0.169253  -0.001765  3.826529  -0.001
N  N36  1  0.50697369  0.87511907  0.82792562  1  -0.329665  -0.069025  3.32146  -0.083  -0.277303  -0.054511  3.595774  -0.07  -0.312986  -0.045538  3.616908  -0.062  -0.33613  -0.259588  -0.051673  3.587532  -0.064
N  N37  1  0.12489301  0.49303639  0.67207084  1  -0.329644  -0.069007  3.321453  -0.083  -0.277277  -0.054509  3.595728  -0.07  -0.31297  -0.045536  3.61688  -0.062  -0.336187  -0.25959  -0.051671  3.587502  -0.064
N  N38  1  0.49324318  0.12552626  0.17327585  1  -0.326757  0.066155  3.319831  0.075  -0.277443  0.050281  3.598733  0.062  -0.313482  0.042708  3.619878  0.054  -0.336645  -0.256958  0.047307  3.587893  0.056
N  N39  1  0.87444985  0.50676197  0.32673040  1  -0.326732  0.066151  3.319709  0.075  -0.277435  0.050285  3.598619  0.062  -0.313488  0.042713  3.61978  0.054  -0.336734  -0.256928  0.047313  3.587723  0.056
N  N40  1  0.62951556  0.17915301  0.82663328  1  -0.337567  -0.0598  3.304768  -0.072  -0.288393  -0.049099  3.579888  -0.065  -0.317833  -0.041175  3.597043  -0.058  -0.326495  -0.273916  -0.05391  3.574064  -0.068
N  N41  1  0.82084387  0.37048713  0.67337229  1  -0.337394  -0.059776  3.304956  -0.072  -0.288132  -0.049101  3.579923  -0.065  -0.31757  -0.041178  3.597077  -0.058  -0.326431  -0.273671  -0.053906  3.574108  -0.068
N  N42  1  0.37184149  0.82166649  0.17507375  1  -0.333562  -0.035982  3.306997  -0.043  -0.287524  -0.040115  3.586263  -0.053  -0.318267  -0.035379  3.604205  -0.05  -0.325724  -0.269484  -0.039868  3.577438  -0.05
N  N43  1  0.17834188  0.62812803  0.32492620  1  -0.333728  -0.035908  3.307071  -0.043  -0.287932  -0.040082  3.586544  -0.053  -0.318671  -0.035359  3.604463  -0.05  -0.325992  -0.269895  -0.03982  3.577739  -0.05
N  N44  1  0.42143991  0.46724189  0.84289274  1  -0.496572  -0.115693  2.740587  -0.138  -0.563164  -0.056475  3.111259  -0.074  -0.618969  -0.033045  3.132926  -0.049  -0.323551  -0.534199  -0.068584  3.101819  -0.083
N  N45  1  0.53276540  0.57857580  0.65709674  1  -0.496498  -0.115692  2.740155  -0.138  -0.563103  -0.056474  3.110752  -0.074  -0.618903  -0.03304  3.132416  -0.049  -0.32353  -0.534137  -0.068581  3.10131  -0.083
N  N46  1  0.57653719  0.53372367  0.15689417  1  -0.504302  -0.047043  2.74646  -0.055  -0.564983  -0.022621  3.114485  -0.029  -0.618806  -0.014116  3.134502  -0.02  -0.325167  -0.53387  -0.029396  3.103799  -0.035
N  N47  1  0.46634630  0.42338315  0.34304023  1  -0.50487  -0.046176  2.747532  -0.054  -0.565418  -0.022377  3.115604  -0.028  -0.619279  -0.013979  3.135635  -0.02  -0.325293  -0.534331  -0.029154  3.104964  -0.034
N  N48  1  0.29917906  0.35374001  0.85685956  1  0.372454  0.043688  4.144351  0.062  0.422844  0.005436  4.476727  0.015  0.444114  0.007619  4.517818  0.015  0.080137  0.409889  0.001427  4.451641  0.011
N  N49  1  0.64626977  0.70083692  0.64313777  1  0.372282  0.043709  4.144157  0.062  0.42272  0.005439  4.476489  0.015  0.443985  0.007623  4.517589  0.015  0.079998  0.409769  0.001431  4.4514  0.011
N  N50  1  0.69958317  0.64676539  0.14328819  1  0.373532  0.019176  4.149646  0.027  0.422564  0.001623  4.476685  0.005  0.443453  0.003478  4.516597  0.007  0.080142  0.409517  5.1e-05  4.450552  0.004
N  N51  1  0.35329022  0.30039206  0.35669482  1  0.374075  0.01888  4.149947  0.027  0.422971  0.001597  4.476932  0.005  0.443865  0.003444  4.516834  0.007  0.08007  0.409923  4.5e-05  4.45082  0.004
N  N52  1  0.17832557  0.24781718  0.87020783  1  -0.295146  -0.164759  2.306729  -0.177  -0.331868  -0.077464  2.541191  -0.088  -0.347168  -0.060465  2.557254  -0.073  -0.163218  -0.324594  -0.087779  2.532134  -0.095
N  N53  1  0.75219773  0.82169626  0.62979565  1  -0.295057  -0.164804  2.306751  -0.177  -0.331782  -0.077475  2.541146  -0.088  -0.347085  -0.060474  2.557211  -0.073  -0.163116  -0.324517  -0.087791  2.532101  -0.095
N  N54  1  0.82133809  0.75162449  0.12998925  1  -0.300452  -0.078926  2.313421  -0.085  -0.332485  -0.036  2.544274  -0.041  -0.346383  -0.031065  2.55946  -0.038  -0.162915  -0.324119  -0.040447  2.534393  -0.043
N  N55  1  0.24841510  0.17870182  0.37003755  1  -0.300357  -0.077793  2.313297  -0.084  -0.332232  -0.035644  2.544107  -0.04  -0.346116  -0.030782  2.559281  -0.037  -0.162525  -0.323903  -0.040121  2.53425  -0.043
O  O56  1  0.41083566  0.16961738  0.64450008  1  -0.572736  -0.025405  2.006154  -0.033  -0.546848  -0.007248  2.256242  -0.011  -0.575721  -0.001126  2.246355  -0.003  -0.307327  -0.51937  -0.024067  2.256612  -0.033
O  O57  1  0.83038180  0.58916808  0.85550326  1  -0.572775  -0.025397  2.00609  -0.033  -0.546825  -0.007249  2.256177  -0.011  -0.575696  -0.001128  2.246286  -0.003  -0.307316  -0.519357  -0.024069  2.256552  -0.033
O  O58  1  0.59126354  0.83411221  0.35814798  1  -0.574981  0.018825  2.003153  0.022  -0.545024  0.007784  2.247434  0.01  -0.572851  0.003474  2.237471  0.004  -0.308928  -0.522823  0.015563  2.25143  0.02
O  O59  1  0.16582219  0.40866211  0.14184639  1  -0.575086  0.018902  2.003598  0.022  -0.545163  0.007822  2.247883  0.01  -0.573007  0.003491  2.237942  0.004  -0.309064  -0.522973  0.015613  2.251889  0.02
O  O60  1  0.29126932  0.88015747  0.65049113  1  -0.571634  -0.038218  2.027781  -0.05  -0.542038  -0.026022  2.279916  -0.038  -0.57686  -0.018145  2.271593  -0.029  -0.308397  -0.513157  -0.035087  2.282135  -0.049
O  O61  1  0.11986053  0.70873528  0.84950369  1  -0.571599  -0.038241  2.027721  -0.05  -0.541979  -0.026041  2.279895  -0.038  -0.576801  -0.01816  2.271575  -0.029  -0.308381  -0.513108  -0.0351  2.282118  -0.049
O  O62  1  0.70986827  0.12326481  0.35015451  1  -0.571797  0.037708  2.032794  0.047  -0.542227  0.026826  2.284853  0.038  -0.577641  0.019887  2.277169  0.03  -0.310316  -0.516033  0.028692  2.288619  0.04
O  O63  1  0.87665623  0.29013287  0.14987919  1  -0.571489  0.03821  2.032498  0.048  -0.54193  0.027107  2.284679  0.039  -0.577406  0.020107  2.277027  0.03  -0.310129  -0.515743  0.028967  2.288454  0.04
