# generated using pymatgen
data_LiH15(C4O3)2
_symmetry_space_group_name_H-M   'P 1'
_cell_length_a   5.28007196
_cell_length_b   12.13205358
_cell_length_c   16.22164806
_cell_angle_alpha   98.15958653
_cell_angle_beta   89.99999279
_cell_angle_gamma   89.99983441
_symmetry_Int_Tables_number   1
_chemical_formula_structural   LiH15(C4O3)2
_chemical_formula_sum   'Li4 H60 C32 O24'
_cell_volume   1028.60868876
_cell_formula_units_Z   4
loop_
 _symmetry_equiv_pos_site_id
 _symmetry_equiv_pos_as_xyz
  1  'x, y, z'
loop_
 _atom_site_type_symbol
 _atom_site_label
 _atom_site_symmetry_multiplicity
 _atom_site_fract_x
 _atom_site_fract_y
 _atom_site_fract_z
 _atom_site_occupancy
 _atom_site_hle17_bader_spin_density
 _atom_site_hle17_ddec_charge
 _atom_site_hle17_ddec_spin_density
 _atom_site_hle17_ddec_sum_bond_order
 _atom_site_hle17_magmom
 _atom_site_hse06_10hf_bader_spin_density
 _atom_site_hse06_10hf_ddec_charge
 _atom_site_hse06_10hf_ddec_spin_density
 _atom_site_hse06_10hf_ddec_sum_bond_order
 _atom_site_hse06_10hf_magmom
 _atom_site_hse06_bader_spin_density
 _atom_site_hse06_ddec_charge
 _atom_site_hse06_ddec_spin_density
 _atom_site_hse06_ddec_sum_bond_order
 _atom_site_hse06_magmom
 _atom_site_pbe_bader_spin_density
 _atom_site_pbe_cm5_charge
 _atom_site_pbe_ddec_charge
 _atom_site_pbe_ddec_spin_density
 _atom_site_pbe_ddec_sum_bond_order
 _atom_site_pbe_magmom
Li  Li0  1  0.54021385  0.63456684  0.10377756  1  0  0.856126  0  0.416309  0  0  0.82684  0  0.505269  0  0  0.834412  0  0.490755  0  0  0.525529  0.821366  0  0.515723  0
Li  Li1  1  0.04021359  0.86543532  0.89622914  1  0  0.856149  0  0.416291  0  0  0.826839  0  0.505295  0  0  0.834413  0  0.490778  0  0  0.525503  0.821363  0  0.515761  0
Li  Li2  1  0.45978914  0.36543525  0.89622261  1  0  0.856177  0  0.416207  0  0  0.826845  0  0.505243  0  0  0.834419  0  0.490723  0  0  0.525494  0.821367  0  0.51571  0
Li  Li3  1  0.95978183  0.13457098  0.10377639  1  0  0.856101  0  0.416347  0  0  0.826796  0  0.505338  0  0  0.834369  0  0.490821  0  0  0.525529  0.821323  0  0.515797  0
H  H4  1  0.30239716  0.55114288  0.29706086  1  0  0.084174  0  0.915897  0  0  0.097476  0  0.975396  0  0  0.099289  0  0.97465  0  0  0.108187  0.096154  0  0.97609  0
H  H5  1  0.80240950  0.94885478  0.70294416  1  0  0.084156  0  0.915853  0  0  0.097477  0  0.975349  0  0  0.09929  0  0.974605  0  0  0.108192  0.096159  0  0.976044  0
H  H6  1  0.69759826  0.44885999  0.70293384  1  0  0.084075  0  0.9159  0  0  0.097405  0  0.975392  0  0  0.09922  0  0.974644  0  0  0.108133  0.096084  0  0.976091  0
H  H7  1  0.19759160  0.05114731  0.29705600  1  0  0.084155  0  0.915727  0  0  0.097474  0  0.975237  0  0  0.099286  0  0.974493  0  0  0.108195  0.096148  0  0.975929  0
H  H8  1  0.31751951  0.72208202  0.23817806  1  0  0.094943  0  0.941598  0  0  0.099895  0  1.011088  0  0  0.103581  0  1.008592  0  0  0.118719  0.097147  0  1.013128  0
H  H9  1  0.81752726  0.77791482  0.76183058  1  0  0.094862  0  0.941642  0  0  0.099828  0  1.011091  0  0  0.103505  0  1.008603  0  0  0.11872  0.097103  0  1.01311  0
H  H10  1  0.68248726  0.27792338  0.76182059  1  0  0.094929  0  0.941593  0  0  0.099901  0  1.011028  0  0  0.103578  0  1.00854  0  0  0.118743  0.097192  0  1.013026  0
H  H11  1  0.18246058  0.22208814  0.23817337  1  0  0.094886  0  0.94161  0  0  0.099849  0  1.01106  0  0  0.103527  0  1.008571  0  0  0.118725  0.097119  0  1.013084  0
H  H12  1  0.45196062  0.82737829  0.08398068  1  0  0.422591  0  0.880266  0  0  0.388439  0  0.949392  0  0  0.399713  0  0.93264  0  0  0.299668  0.380459  0  0.96125  0
H  H13  1  0.95194234  0.67262584  0.91602378  1  0  0.422587  0  0.880287  0  0  0.388438  0  0.949406  0  0  0.399713  0  0.932653  0  0  0.29965  0.380461  0  0.96126  0
H  H14  1  0.54805184  0.17263050  0.91602448  1  0  0.422634  0  0.880229  0  0  0.388495  0  0.949332  0  0  0.399761  0  0.932592  0  0  0.29968  0.380517  0  0.961188  0
H  H15  1  0.04804361  0.32737793  0.08397840  1  0  0.422631  0  0.88021  0  0  0.388473  0  0.949347  0  0  0.399749  0  0.932592  0  0  0.299686  0.380493  0  0.961206  0
H  H16  1  0.27698413  0.75767049  0.01597361  1  0  0.440831  0  0.839156  0  0  0.41639  0  0.890664  0  0  0.425696  0  0.876874  0  0  0.315846  0.409759  0  0.900501  0
H  H17  1  0.77695958  0.74233216  0.98402760  1  0  0.440833  0  0.839135  0  0  0.416404  0  0.890621  0  0  0.425708  0  0.876835  0  0  0.315908  0.409771  0  0.900461  0
H  H18  1  0.72303212  0.24233578  0.98402883  1  0  0.440804  0  0.839166  0  0  0.416358  0  0.890687  0  0  0.425666  0  0.876895  0  0  0.315825  0.409724  0  0.900531  0
H  H19  1  0.22302636  0.25767158  0.01597150  1  0  0.440756  0  0.83924  0  0  0.416314  0  0.890752  0  0  0.425619  0  0.876963  0  0  0.315821  0.409681  0  0.900595  0
H  H20  1  0.74167110  0.51019060  0.97196765  1  0  0.42441  0  0.883931  0  0  0.395935  0  0.944204  0  0  0.406785  0  0.928071  0  0  0.302366  0.388214  0  0.955696  0
H  H21  1  0.24167130  0.98979627  0.02803135  1  0  0.424488  0  0.883849  0  0  0.39601  0  0.944122  0  0  0.406859  0  0.927996  0  0  0.302395  0.388281  0  0.955621  0
H  H22  1  0.25834515  0.48980060  0.02802278  1  0  0.424494  0  0.88385  0  0  0.396052  0  0.944057  0  0  0.406896  0  0.927936  0  0  0.302459  0.388346  0  0.955535  0
H  H23  1  0.75833737  0.01020834  0.97197154  1  0  0.424466  0  0.883913  0  0  0.395984  0  0.944194  0  0  0.406839  0  0.928052  0  0  0.302385  0.388272  0  0.955679  0
H  H24  1  0.77734980  0.89323474  0.20563047  1  0  0.411594  0  0.878291  0  0  0.375757  0  0.963535  0  0  0.38916  0  0.948386  0  0  0.309288  0.366369  0  0.973496  0
H  H25  1  0.27735148  0.60675706  0.79436595  1  0  0.411554  0  0.878332  0  0  0.375751  0  0.963563  0  0  0.389154  0  0.948406  0  0  0.309236  0.366365  0  0.973522  0
H  H26  1  0.22264182  0.10676069  0.79436902  1  0  0.411546  0  0.878267  0  0  0.375754  0  0.963461  0  0  0.389149  0  0.948386  0  0  0.30925  0.366369  0  0.973417  0
H  H27  1  0.72265530  0.39324170  0.20563388  1  0  0.411485  0  0.878269  0  0  0.375681  0  0.963517  0  0  0.389085  0  0.948473  0  0  0.309243  0.366291  0  0.97348  0
H  H28  1  0.83981448  0.48634852  0.06020783  1  0  0.417499  0  0.88017  0  0  0.389948  0  0.942092  0  0  0.399623  0  0.927618  0  0  0.306929  0.383112  0  0.952319  0
H  H29  1  0.33981847  0.01365374  0.93979691  1  0  0.41748  0  0.88024  0  0  0.389927  0  0.94213  0  0  0.3996  0  0.927659  0  0  0.306896  0.383094  0  0.952353  0
H  H30  1  0.16017336  0.51365189  0.93979031  1  0  0.417437  0  0.880231  0  0  0.389888  0  0.942174  0  0  0.399564  0  0.927698  0  0  0.306894  0.383057  0  0.952394  0
H  H31  1  0.66017884  0.98635585  0.06020525  1  0  0.417428  0  0.880426  0  0  0.389768  0  0.942358  0  0  0.399443  0  0.927883  0  0  0.306826  0.382936  0  0.952579  0
H  H32  1  0.35639192  0.73792561  0.38771422  1  0  0.063325  0  0.94723  0  0  0.081033  0  1.013045  0  0  0.081878  0  1.013305  0  0  0.088696  0.080334  0  1.013011  0
H  H33  1  0.85640190  0.76207950  0.61229465  1  0  0.063228  0  0.94712  0  0  0.08089  0  1.013055  0  0  0.081731  0  1.013318  0  0  0.088622  0.080194  0  1.013013  0
H  H34  1  0.64360728  0.26208481  0.61228741  1  0  0.063269  0  0.947216  0  0  0.080994  0  1.013023  0  0  0.08184  0  1.013282  0  0  0.088649  0.080293  0  1.012993  0
H  H35  1  0.14358973  0.23792510  0.38770762  1  0  0.063351  0  0.947175  0  0  0.081056  0  1.013022  0  0  0.081901  0  1.013281  0  0  0.088725  0.080357  0  1.012989  0
H  H36  1  0.19263998  0.85563169  0.36191318  1  0  0.076527  0  0.938614  0  0  0.094625  0  0.99843  0  0  0.095911  0  0.998372  0  0  0.093196  0.093627  0  0.998581  0
H  H37  1  0.69266209  0.64436613  0.63809555  1  0  0.076673  0  0.938645  0  0  0.094883  0  0.998327  0  0  0.096177  0  0.998249  0  0  0.093296  0.093884  0  0.998481  0
H  H38  1  0.80737248  0.14436953  0.63808258  1  0  0.076571  0  0.938574  0  0  0.094669  0  0.998379  0  0  0.095957  0  0.998319  0  0  0.093191  0.093671  0  0.998533  0
H  H39  1  0.30734658  0.35563601  0.36191078  1  0  0.076534  0  0.938601  0  0  0.094661  0  0.998392  0  0  0.095947  0  0.99833  0  0  0.093193  0.093663  0  0.998544  0
H  H40  1  0.98621645  0.78170031  0.48229592  1  0  0.056167  0  0.964274  0  0  0.074613  0  1.029499  0  0  0.075085  0  1.030196  0  0  0.086098  0.074224  0  1.02906  0
H  H41  1  0.48623482  0.71829379  0.51770814  1  0  0.056161  0  0.964285  0  0  0.074587  0  1.029448  0  0  0.075056  0  1.030146  0  0  0.086072  0.0742  0  1.029004  0
H  H42  1  0.01377518  0.21831007  0.51770138  1  0  0.056147  0  0.964287  0  0  0.074613  0  1.029481  0  0  0.075084  0  1.030176  0  0  0.086096  0.074227  0  1.029041  0
H  H43  1  0.51375302  0.28170331  0.48229214  1  0  0.05616  0  0.964288  0  0  0.074617  0  1.029454  0  0  0.075089  0  1.030152  0  0  0.086105  0.07423  0  1.029015  0
H  H44  1  0.77969285  0.77095672  0.39610845  1  0  0.056553  0  0.942078  0  0  0.077639  0  1.001802  0  0  0.07814  0  1.002434  0  0  0.086356  0.077167  0  1.001527  0
H  H45  1  0.27969965  0.72902513  0.60389312  1  0  0.056734  0  0.941927  0  0  0.077714  0  1.001671  0  0  0.07823  0  1.002279  0  0  0.086349  0.077218  0  1.001428  0
H  H46  1  0.22031582  0.22904449  0.60388608  1  0  0.056585  0  0.942151  0  0  0.077669  0  1.001851  0  0  0.078168  0  1.002488  0  0  0.086363  0.077205  0  1.001565  0
H  H47  1  0.72029008  0.27096535  0.39611080  1  0  0.056593  0  0.942106  0  0  0.077673  0  1.001767  0  0  0.078177  0  1.002395  0  0  0.086368  0.077199  0  1.001498  0
H  H48  1  0.77710444  0.59313949  0.45753858  1  0  0.056781  0  0.943083  0  0  0.076673  0  1.002199  0  0  0.077652  0  1.002162  0  0  0.084763  0.075881  0  1.002337  0
H  H49  1  0.27709495  0.90684745  0.54247399  1  0  0.056714  0  0.943185  0  0  0.076625  0  1.002262  0  0  0.077595  0  1.002233  0  0  0.08471  0.075833  0  1.002397  0
H  H50  1  0.22288719  0.40686588  0.54245637  1  0  0.056729  0  0.943175  0  0  0.076619  0  1.002301  0  0  0.077605  0  1.002256  0  0  0.084719  0.075826  0  1.002439  0
H  H51  1  0.72289289  0.09314888  0.45753361  1  0  0.056684  0  0.943038  0  0  0.076583  0  1.00216  0  0  0.077549  0  1.002134  0  0  0.08471  0.075791  0  1.002296  0
H  H52  1  0.10940335  0.58371833  0.44808819  1  0  0.053982  0  0.934488  0  0  0.074551  0  0.994778  0  0  0.07516  0  0.995351  0  0  0.084426  0.074039  0  0.99445  0
H  H53  1  0.60939720  0.91627127  0.55191970  1  0  0.054037  0  0.934491  0  0  0.074543  0  0.994821  0  0  0.075152  0  0.995392  0  0  0.084393  0.074034  0  0.99449  0
H  H54  1  0.89059585  0.41628707  0.55190923  1  0  0.054018  0  0.93433  0  0  0.074534  0  0.994704  0  0  0.075144  0  0.995279  0  0  0.084411  0.074023  0  0.994376  0
H  H55  1  0.39060011  0.08372255  0.44808702  1  0  0.054026  0  0.934407  0  0  0.074543  0  0.994748  0  0  0.075152  0  0.995319  0  0  0.08442  0.074032  0  0.99442  0
H  H56  1  0.90855585  0.45953017  0.33284434  1  0  0.068922  0  0.944886  0  0  0.085784  0  1.008046  0  0  0.086844  0  1.008124  0  0  0.090128  0.084936  0  1.008098  0
H  H57  1  0.40854871  0.04046535  0.66715972  1  0  0.06901  0  0.944708  0  0  0.085774  0  1.007958  0  0  0.086861  0  1.008008  0  0  0.090173  0.084932  0  1.008003  0
H  H58  1  0.09145093  0.54047854  0.66715156  1  0  0.06893  0  0.944831  0  0  0.085764  0  1.008022  0  0  0.08685  0  1.008079  0  0  0.090109  0.084919  0  1.008068  0
H  H59  1  0.59143156  0.95953509  0.33284212  1  0  0.069011  0  0.944767  0  0  0.085783  0  1.007966  0  0  0.086869  0  1.008019  0  0  0.090161  0.084939  0  1.00801  0
H  H60  1  0.72518868  0.56970978  0.30460473  1  0  0.074051  0  0.94906  0  0  0.091106  0  1.012196  0  0  0.092361  0  1.012025  0  0  0.093242  0.090114  0  1.012486  0
H  H61  1  0.22519774  0.93028305  0.69540719  1  0  0.074027  0  0.949012  0  0  0.091109  0  1.012099  0  0  0.092366  0  1.011931  0  0  0.09326  0.090117  0  1.012395  0
H  H62  1  0.27481621  0.43029729  0.69539347  1  0  0.074054  0  0.94903  0  0  0.091097  0  1.012187  0  0  0.092353  0  1.012021  0  0  0.093224  0.090103  0  1.012482  0
H  H63  1  0.77481473  0.06971164  0.30460332  1  0  0.074077  0  0.949031  0  0  0.091073  0  1.012191  0  0  0.092331  0  1.012024  0  0  0.093256  0.090081  0  1.012485  0
C  C64  1  0.12065145  0.57854815  0.27283220  1  0  -0.133667  0  3.626136  0  0  -0.140417  0  3.866131  0  0  -0.14556  0  3.88052  0  0  -0.082657  -0.13695  0  3.856316  0
C  C65  1  0.62064879  0.92144556  0.72717117  1  0  -0.133622  0  3.62623  0  0  -0.140434  0  3.86614  0  0  -0.14558  0  3.880545  0  0  -0.082649  -0.136977  0  3.856344  0
C  C66  1  0.87935911  0.42145057  0.72716269  1  0  -0.133612  0  3.626084  0  0  -0.14037  0  3.865947  0  0  -0.145518  0  3.88035  0  0  -0.08263  -0.136917  0  3.856158  0
C  C67  1  0.37935420  0.07855566  0.27282459  1  0  -0.133525  0  3.626283  0  0  -0.140309  0  3.866194  0  0  -0.145452  0  3.880595  0  0  -0.08261  -0.13683  0  3.856357  0
C  C68  1  0.14654650  0.70539027  0.27320583  1  0  -0.144815  0  3.628126  0  0  -0.151368  0  3.866201  0  0  -0.157683  0  3.880825  0  0  -0.07901  -0.14683  0  3.855863  0
C  C69  1  0.64655229  0.79460176  0.72679923  1  0  -0.144859  0  3.628152  0  0  -0.151296  0  3.866134  0  0  -0.157614  0  3.880772  0  0  -0.07902  -0.146764  0  3.855798  0
C  C70  1  0.85346975  0.29460928  0.72678853  1  0  -0.144941  0  3.628141  0  0  -0.151441  0  3.866164  0  0  -0.157749  0  3.880787  0  0  -0.079001  -0.146922  0  3.855829  0
C  C71  1  0.35344881  0.20539702  0.27320307  1  0  -0.144976  0  3.628391  0  0  -0.151407  0  3.866345  0  0  -0.157719  0  3.880967  0  0  -0.079018  -0.146878  0  3.856007  0
C  C72  1  0.17667081  0.76560685  0.36286259  1  0  -0.112112  0  3.662075  0  0  -0.15957  0  3.926918  0  0  -0.159914  0  3.940495  0  0  -0.16285  -0.15911  0  3.917417  0
C  C73  1  0.67668662  0.73438432  0.63714423  1  0  -0.112068  0  3.661952  0  0  -0.159704  0  3.926754  0  0  -0.160069  0  3.940365  0  0  -0.162876  -0.159239  0  3.917255  0
C  C74  1  0.82332839  0.23439023  0.63713460  1  0  -0.111991  0  3.661938  0  0  -0.159492  0  3.926732  0  0  -0.159842  0  3.94031  0  0  -0.16279  -0.159032  0  3.917243  0
C  C75  1  0.32331448  0.26561114  0.36285958  1  0  -0.112093  0  3.662029  0  0  -0.159662  0  3.926876  0  0  -0.160017  0  3.940472  0  0  -0.162877  -0.159199  0  3.91738  0
C  C76  1  0.95860717  0.73857342  0.41860794  1  0  -0.110547  0  3.696197  0  0  -0.151028  0  3.960729  0  0  -0.15232  0  3.976248  0  0  -0.170629  -0.149957  0  3.949931  0
C  C77  1  0.45861568  0.76141660  0.58140125  1  0  -0.110834  0  3.696069  0  0  -0.151053  0  3.960304  0  0  -0.152346  0  3.975807  0  0  -0.170535  -0.149978  0  3.949515  0
C  C78  1  0.04140150  0.26143114  0.58138877  1  0  -0.110663  0  3.696203  0  0  -0.151117  0  3.960687  0  0  -0.152406  0  3.9762  0  0  -0.170655  -0.150058  0  3.949897  0
C  C79  1  0.54137974  0.23857723  0.41860547  1  0  -0.110648  0  3.696156  0  0  -0.151052  0  3.960616  0  0  -0.152346  0  3.976126  0  0  -0.170605  -0.14999  0  3.949829  0
C  C80  1  0.93763630  0.61280860  0.41881777  1  0  -0.101023  0  3.692956  0  0  -0.14108  0  3.957835  0  0  -0.142243  0  3.973044  0  0  -0.166958  -0.140082  0  3.947177  0
C  C81  1  0.43763826  0.88718475  0.58118929  1  0  -0.10096  0  3.692868  0  0  -0.141  0  3.957526  0  0  -0.142153  0  3.972737  0  0  -0.166926  -0.140002  0  3.946874  0
C  C82  1  0.06236858  0.38719595  0.58117833  1  0  -0.100985  0  3.692847  0  0  -0.141058  0  3.957747  0  0  -0.142226  0  3.972963  0  0  -0.166931  -0.140057  0  3.947087  0
C  C83  1  0.56234769  0.11281154  0.41881399  1  0  -0.100835  0  3.692733  0  0  -0.140874  0  3.957476  0  0  -0.142026  0  3.972696  0  0  -0.166908  -0.139882  0  3.946836  0
C  C84  1  0.90904607  0.54960020  0.33063760  1  0  -0.127774  0  3.683413  0  0  -0.173761  0  3.944224  0  0  -0.174172  0  3.957589  0  0  -0.171669  -0.173258  0  3.934949  0
C  C85  1  0.40905124  0.95039067  0.66936736  1  0  -0.127825  0  3.683348  0  0  -0.173773  0  3.944137  0  0  -0.174203  0  3.957502  0  0  -0.171732  -0.173271  0  3.934863  0
C  C86  1  0.09095124  0.45040434  0.66935727  1  0  -0.127743  0  3.683383  0  0  -0.17369  0  3.94414  0  0  -0.174128  0  3.95752  0  0  -0.171622  -0.173181  0  3.934862  0
C  C87  1  0.59094417  0.04960644  0.33063414  1  0  -0.127952  0  3.683538  0  0  -0.173779  0  3.94424  0  0  -0.174214  0  3.95761  0  0  -0.171716  -0.173277  0  3.93496  0
C  C88  1  0.11207231  0.51610550  0.18400049  1  0  0.719778  0  3.784081  0  0  0.660554  0  4.097727  0  0  0.694207  0  4.088935  0  0  0.238334  0.63773  0  4.103018  0
C  C89  1  0.61211075  0.98388081  0.81601138  1  0  0.719589  0  3.784742  0  0  0.660455  0  4.098279  0  0  0.694095  0  4.0895  0  0  0.238401  0.637643  0  4.103559  0
C  C90  1  0.88789470  0.48387833  0.81600460  1  0  0.719775  0  3.784478  0  0  0.660609  0  4.09802  0  0  0.694261  0  4.08923  0  0  0.238392  0.637797  0  4.103301  0
C  C91  1  0.38792065  0.01611469  0.18399675  1  0  0.719568  0  3.784298  0  0  0.660302  0  4.098039  0  0  0.693957  0  4.089246  0  0  0.23831  0.637482  0  4.103325  0
C  C92  1  0.92705277  0.75340454  0.22919430  1  0  0.711532  0  3.708417  0  0  0.664496  0  4.006513  0  0  0.697039  0  3.99762  0  0  0.25616  0.642312  0  4.012083  0
C  C93  1  0.42709708  0.74657964  0.77080813  1  0  0.711717  0  3.707399  0  0  0.664676  0  4.005548  0  0  0.697231  0  3.996653  0  0  0.25623  0.642488  0  4.011125  0
C  C94  1  0.07295401  0.24659585  0.77080137  1  0  0.711536  0  3.708266  0  0  0.664406  0  4.006467  0  0  0.696948  0  3.997569  0  0  0.256051  0.642221  0  4.012046  0
C  C95  1  0.57290970  0.25341830  0.22919285  1  0  0.711707  0  3.707686  0  0  0.664628  0  4.005873  0  0  0.697184  0  3.996975  0  0  0.256175  0.64244  0  4.011452  0
O  O96  1  0.43909933  0.75590223  0.04574290  1  0  -0.890598  0  1.793506  0  0  -0.842866  0  1.948917  0  0  -0.859168  0  1.915776  0  0  -0.635746  -0.831386  0  1.972268  0
O  O97  1  0.93908618  0.74409774  0.95425990  1  0  -0.890633  0  1.793512  0  0  -0.842899  0  1.948944  0  0  -0.859203  0  1.915796  0  0  -0.635835  -0.83142  0  1.972294  0
O  O98  1  0.56090556  0.24409985  0.95425664  1  0  -0.890638  0  1.793505  0  0  -0.842896  0  1.948924  0  0  -0.859193  0  1.915781  0  0  -0.635763  -0.831416  0  1.972276  0
O  O99  1  0.06090734  0.25590186  0.04574124  1  0  -0.890545  0  1.793509  0  0  -0.842794  0  1.948934  0  0  -0.859095  0  1.915788  0  0  -0.635734  -0.831315  0  1.972286  0
O  O100  1  0.75081932  0.54086181  0.03193755  1  0  -0.914529  0  1.850885  0  0  -0.873467  0  2.025293  0  0  -0.889465  0  1.993094  0  0  -0.676019  -0.862171  0  2.047926  0
O  O101  1  0.25083344  0.95913670  0.96806262  1  0  -0.914629  0  1.850935  0  0  -0.873528  0  2.0253  0  0  -0.889532  0  1.993095  0  0  -0.676035  -0.862225  0  2.04797  0
O  O102  1  0.24917042  0.45913691  0.96805857  1  0  -0.914577  0  1.850949  0  0  -0.87352  0  2.025382  0  0  -0.889514  0  1.993183  0  0  -0.676082  -0.862213  0  2.047927  0
O  O103  1  0.74916387  0.04087624  0.03194173  1  0  -0.914482  0  1.851134  0  0  -0.873306  0  2.025678  0  0  -0.889304  0  1.993473  0  0  -0.675898  -0.861992  0  2.048237  0
O  O104  1  0.95645882  0.43516575  0.16403020  1  0  -0.664126  0  2.035086  0  0  -0.589135  0  2.253899  0  0  -0.616591  0  2.242532  0  0  -0.29597  -0.570055  0  2.261157  0
O  O105  1  0.45645693  0.06483056  0.83597579  1  0  -0.664172  0  2.034349  0  0  -0.589255  0  2.253111  0  0  -0.616725  0  2.241786  0  0  -0.296123  -0.570184  0  2.260381  0
O  O106  1  0.04354606  0.56483051  0.83596937  1  0  -0.664348  0  2.034301  0  0  -0.589421  0  2.25315  0  0  -0.616856  0  2.241707  0  0  -0.296178  -0.570355  0  2.26042  0
O  O107  1  0.54354227  0.93516822  0.16402650  1  0  -0.664025  0  2.03474  0  0  -0.589009  0  2.253543  0  0  -0.616471  0  2.242173  0  0  -0.295971  -0.569939  0  2.260809  0
O  O108  1  0.26841671  0.54536728  0.13242316  1  0  -0.704331  0  2.018286  0  0  -0.656568  0  2.258688  0  0  -0.67967  0  2.246104  0  0  -0.380798  -0.640522  0  2.266955  0
O  O109  1  0.76840603  0.95463452  0.86757426  1  0  -0.704014  0  2.019468  0  0  -0.656288  0  2.259867  0  0  -0.679368  0  2.247252  0  0  -0.380666  -0.640241  0  2.268134  0
O  O110  1  0.73161091  0.45462643  0.86756998  1  0  -0.704013  0  2.019455  0  0  -0.656224  0  2.259794  0  0  -0.679345  0  2.247244  0  0  -0.380548  -0.640177  0  2.268058  0
O  O111  1  0.23157803  0.04536670  0.13242088  1  0  -0.704182  0  2.018571  0  0  -0.656433  0  2.259074  0  0  -0.679541  0  2.246498  0  0  -0.380799  -0.640382  0  2.267337  0
O  O112  1  0.75377316  0.69546087  0.19476257  1  0  -0.631005  0  1.974673  0  0  -0.589851  0  2.20735  0  0  -0.609621  0  2.196536  0  0  -0.348074  -0.57631  0  2.214595  0
O  O113  1  0.25379050  0.80453698  0.80525850  1  0  -0.631229  0  1.973564  0  0  -0.589977  0  2.20618  0  0  -0.609755  0  2.19537  0  0  -0.348167  -0.576426  0  2.213428  0
O  O114  1  0.24622225  0.30452868  0.80523016  1  0  -0.630856  0  1.974773  0  0  -0.589628  0  2.207454  0  0  -0.609388  0  2.196635  0  0  -0.347877  -0.576092  0  2.214707  0
O  O115  1  0.74620870  0.19546015  0.19474609  1  0  -0.631191  0  1.973708  0  0  -0.589928  0  2.20634  0  0  -0.609706  0  2.195528  0  0  -0.348143  -0.576384  0  2.213589  0
O  O116  1  0.93819808  0.86269582  0.23168194  1  0  -0.555335  0  2.095168  0  0  -0.502728  0  2.31994  0  0  -0.526204  0  2.305816  0  0  -0.317562  -0.486423  0  2.328753  0
O  O117  1  0.43820147  0.63728917  0.76831934  1  0  -0.555172  0  2.094997  0  0  -0.502783  0  2.319962  0  0  -0.526263  0  2.305829  0  0  -0.317542  -0.486474  0  2.328773  0
O  O118  1  0.06178787  0.13729464  0.76831951  1  0  -0.555351  0  2.094857  0  0  -0.502759  0  2.319596  0  0  -0.526233  0  2.305527  0  0  -0.317572  -0.486451  0  2.328407  0
O  O119  1  0.56179016  0.36270627  0.23168077  1  0  -0.555059  0  2.095  0  0  -0.502618  0  2.319896  0  0  -0.526095  0  2.305852  0  0  -0.31748  -0.486309  0  2.328708  0
