# generated using pymatgen
data_Ag2H6C9SBrNO6
_symmetry_space_group_name_H-M   'P 1'
_cell_length_a   6.97502441
_cell_length_b   8.18068428
_cell_length_c   12.28371305
_cell_angle_alpha   85.13016988
_cell_angle_beta   73.81476031
_cell_angle_gamma   68.41761291
_symmetry_Int_Tables_number   1
_chemical_formula_structural   Ag2H6C9SBrNO6
_chemical_formula_sum   'Ag4 H12 C18 S2 Br2 N2 O12'
_cell_volume   625.81826565
_cell_formula_units_Z   2
loop_
 _symmetry_equiv_pos_site_id
 _symmetry_equiv_pos_as_xyz
  1  'x, y, z'
loop_
 _atom_site_type_symbol
 _atom_site_label
 _atom_site_symmetry_multiplicity
 _atom_site_fract_x
 _atom_site_fract_y
 _atom_site_fract_z
 _atom_site_occupancy
 _atom_site_hle17_bader_spin_density
 _atom_site_hle17_ddec_charge
 _atom_site_hle17_ddec_spin_density
 _atom_site_hle17_ddec_sum_bond_order
 _atom_site_hle17_magmom
 _atom_site_hse06_10hf_bader_spin_density
 _atom_site_hse06_10hf_ddec_charge
 _atom_site_hse06_10hf_ddec_spin_density
 _atom_site_hse06_10hf_ddec_sum_bond_order
 _atom_site_hse06_10hf_magmom
 _atom_site_hse06_bader_spin_density
 _atom_site_hse06_ddec_charge
 _atom_site_hse06_ddec_spin_density
 _atom_site_hse06_ddec_sum_bond_order
 _atom_site_hse06_magmom
 _atom_site_pbe_bader_spin_density
 _atom_site_pbe_cm5_charge
 _atom_site_pbe_ddec_charge
 _atom_site_pbe_ddec_spin_density
 _atom_site_pbe_ddec_sum_bond_order
 _atom_site_pbe_magmom
Ag  Ag0  1  0.94348414  0.83211999  0.76491445  1  0  0.674315  0  1.324308  0  0  0.551787  0  1.762641  0  0  0.582001  0  1.712854  0  0  0.468681  0.530228  0  1.797446  0
Ag  Ag1  1  0.05651592  0.16788502  0.23508272  1  0  0.674268  0  1.324108  0  0  0.551739  0  1.762396  0  0  0.581956  0  1.712616  0  0  0.468637  0.530179  0  1.797206  0
Ag  Ag2  1  0.73111577  0.99276563  0.49690701  1  0  0.716627  0  1.24128  0  0  0.613733  0  1.649576  0  0  0.643167  0  1.597605  0  0  0.452549  0.592256  0  1.686039  0
Ag  Ag3  1  0.26888721  0.00723284  0.50309336  1  0  0.71661  0  1.241335  0  0  0.613719  0  1.649627  0  0  0.643152  0  1.597654  0  0  0.452541  0.59224  0  1.68609  0
H  H4  1  0.30668452  0.36765702  0.56380790  1  0  0.389981  0  0.900773  0  0  0.362552  0  0.971143  0  0  0.37518  0  0.959351  0  0  0.29803  0.353809  0  0.979089  0
H  H5  1  0.69332055  0.63234015  0.43619223  1  0  0.389986  0  0.900697  0  0  0.36256  0  0.971062  0  0  0.375188  0  0.959271  0  0  0.298022  0.353819  0  0.97901  0
H  H6  1  0.12949767  0.83093417  0.35466228  1  0  0.104847  0  0.971792  0  0  0.108092  0  1.052859  0  0  0.113328  0  1.045362  0  0  0.098789  0.104161  0  1.058534  0
H  H7  1  0.87050591  0.16906961  0.64533930  1  0  0.104834  0  0.971825  0  0  0.108083  0  1.052881  0  0  0.113319  0  1.04538  0  0  0.098784  0.104152  0  1.058556  0
H  H8  1  0.46951082  0.39529125  0.11512604  1  0  0.108708  0  0.979396  0  0  0.111235  0  1.054064  0  0  0.115158  0  1.050838  0  0  0.100485  0.108469  0  1.056243  0
H  H9  1  0.53048116  0.60470846  0.88487681  1  0  0.10873  0  0.979333  0  0  0.111272  0  1.053972  0  0  0.115196  0  1.050746  0  0  0.100486  0.108505  0  1.056152  0
H  H10  1  0.80929554  0.52915696  0.15580980  1  0  0.149255  0  0.946644  0  0  0.165755  0  1.010734  0  0  0.167448  0  1.009735  0  0  0.107135  0.164415  0  1.011588  0
H  H11  1  0.19071192  0.47084152  0.84418742  1  0  0.149221  0  0.946659  0  0  0.165721  0  1.010757  0  0  0.167414  0  1.009759  0  0  0.107118  0.164382  0  1.01161  0
H  H12  1  0.62961855  0.75117105  0.19244582  1  0  0.158901  0  0.956443  0  0  0.174552  0  1.016227  0  0  0.176315  0  1.01608  0  0  0.107646  0.173103  0  1.016578  0
H  H13  1  0.37038801  0.24882611  0.80755244  1  0  0.158921  0  0.956334  0  0  0.174564  0  1.016143  0  0  0.176327  0  1.015998  0  0  0.10766  0.173118  0  1.016491  0
H  H14  1  0.90555615  0.68943084  0.18578950  1  0  0.152467  0  0.945427  0  0  0.169148  0  1.005992  0  0  0.170633  0  1.00596  0  0  0.106397  0.167893  0  1.006283  0
H  H15  1  0.09444629  0.31056886  0.81420437  1  0  0.152478  0  0.945523  0  0  0.169167  0  1.00607  0  0  0.170655  0  1.006029  0  0  0.106402  0.167908  0  1.006369  0
C  C16  1  0.43464213  0.32992004  0.29045327  1  0  -0.229658  0  3.687944  0  0  -0.205494  0  3.94357  0  0  -0.216909  0  3.961666  0  0  -0.033347  -0.19837  0  3.931842  0
C  C17  1  0.56535639  0.67007840  0.70954781  1  0  -0.229684  0  3.687949  0  0  -0.205552  0  3.943643  0  0  -0.216963  0  3.96174  0  0  -0.033389  -0.198428  0  3.931915  0
C  C18  1  0.35447653  0.39213700  0.40400390  1  0  0.356506  0  3.753584  0  0  0.328614  0  4.014471  0  0  0.345921  0  4.028464  0  0  0.09423  0.316972  0  4.004881  0
C  C19  1  0.64552705  0.60786016  0.59599646  1  0  0.356567  0  3.753722  0  0  0.328685  0  4.014568  0  0  0.345992  0  4.028564  0  0  0.094292  0.317043  0  4.00498  0
C  C20  1  0.24049695  0.57492870  0.42644705  1  0  -0.195544  0  3.735057  0  0  -0.174894  0  3.980199  0  0  -0.189228  0  4.002005  0  0  -0.037553  -0.165725  0  3.965707  0
C  C21  1  0.75950783  0.42507243  0.57355287  1  0  -0.195629  0  3.735089  0  0  -0.174957  0  3.980197  0  0  -0.189294  0  4.002005  0  0  -0.037578  -0.16579  0  3.965705  0
C  C22  1  0.21385334  0.69067147  0.33648810  1  0  -0.061306  0  3.72247  0  0  -0.101576  0  3.985492  0  0  -0.094577  0  3.999322  0  0  -0.084953  -0.105846  0  3.976234  0
C  C23  1  0.78614815  0.30932700  0.66351332  1  0  -0.061208  0  3.722355  0  0  -0.101481  0  3.985366  0  0  -0.094482  0  3.999198  0  0  -0.084904  -0.105752  0  3.976107  0
C  C24  1  0.29682368  0.62676235  0.22544266  1  0  0.05131  0  3.725948  0  0  0.069391  0  3.992817  0  0  0.06655  0  4.016307  0  0  -0.028217  0.070869  0  3.976972  0
C  C25  1  0.70316594  0.37324260  0.77455862  1  0  0.051327  0  3.725918  0  0  0.069406  0  3.992774  0  0  0.066563  0  4.016268  0  0  -0.028216  0.070885  0  3.976926  0
C  C26  1  0.40556846  0.44686881  0.20195552  1  0  -0.074085  0  3.755952  0  0  -0.109068  0  4.010462  0  0  -0.10371  0  4.026874  0  0  -0.083728  -0.112117  0  3.99916  0
C  C27  1  0.59442531  0.55313355  0.79804689  1  0  -0.074159  0  3.755979  0  0  -0.109148  0  4.010494  0  0  -0.10379  0  4.026901  0  0  -0.083738  -0.112195  0  3.999188  0
C  C28  1  0.15310761  0.64008323  0.54606624  1  0  0.652416  0  3.877493  0  0  0.597662  0  4.166744  0  0  0.63318  0  4.16159  0  0  0.199856  0.573427  0  4.169586  0
C  C29  1  0.84689833  0.35991530  0.45393611  1  0  0.652377  0  3.877616  0  0  0.597619  0  4.166869  0  0  0.633139  0  4.161712  0  0  0.199804  0.573389  0  4.169703  0
C  C30  1  0.79217655  0.66794359  0.14743463  1  0  -0.37997  0  3.737902  0  0  -0.446975  0  3.957552  0  0  -0.450222  0  3.961586  0  0  -0.219194  -0.444315  0  3.955203  0
C  C31  1  0.20782439  0.33205613  0.85256192  1  0  -0.380007  0  3.737736  0  0  -0.447009  0  3.957358  0  0  -0.450255  0  3.961396  0  0  -0.219221  -0.444354  0  3.955011  0
C  C32  1  0.83607225  0.71412063  0.02976336  1  0  0.453815  0  3.696084  0  0  0.436848  0  3.974814  0  0  0.452364  0  3.990457  0  0  0.22016  0.425843  0  3.964579  0
C  C33  1  0.16392181  0.28587775  0.97023761  1  0  0.453778  0  3.696304  0  0  0.436816  0  3.975021  0  0  0.452328  0  3.990663  0  0  0.220148  0.425817  0  3.964789  0
S  S34  1  0.57282619  0.10097668  0.25446651  1  0  1.307988  0  5.616816  0  0  1.210777  0  6.118737  0  0  1.260009  0  6.098493  0  0  0.504212  1.176719  0  6.131469  0
S  S35  1  0.42717323  0.89902307  0.74553353  1  0  1.308032  0  5.616648  0  0  1.210836  0  6.118533  0  0  1.260065  0  6.098296  0  0  0.504227  1.176779  0  6.131264  0
Br  Br36  1  0.27165379  0.78331458  0.10181337  1  0  0.008576  0  1.412634  0  0  0.026802  0  1.69941  0  0  0.021864  0  1.689719  0  0  0.102218  0.030201  0  1.706858  0
Br  Br37  1  0.72834446  0.21668778  0.89818507  1  0  0.008579  0  1.412616  0  0  0.026813  0  1.699389  0  0  0.021873  0  1.689696  0  0  0.102209  0.030207  0  1.706836  0
N  N38  1  0.87431029  0.74788361  0.93418816  1  0  -0.495057  0  3.002812  0  0  -0.443896  0  3.321597  0  0  -0.463189  0  3.323677  0  0  -0.363988  -0.430933  0  3.320643  0
N  N39  1  0.12568148  0.25211990  0.06580310  1  0  -0.494928  0  3.003051  0  0  -0.443764  0  3.321814  0  0  -0.463056  0  3.323891  0  0  -0.363912  -0.430804  0  3.320865  0
O  O40  1  0.75621913  0.03925377  0.30609672  1  0  -0.710238  0  2.155503  0  0  -0.637903  0  2.460491  0  0  -0.665071  0  2.4415  0  0  -0.354636  -0.61835  0  2.472726  0
O  O41  1  0.24377999  0.96074333  0.69390272  1  0  -0.710278  0  2.155467  0  0  -0.637957  0  2.460488  0  0  -0.665113  0  2.441469  0  0  -0.354655  -0.618402  0  2.472723  0
O  O42  1  0.41722616  0.01311796  0.30697077  1  0  -0.70297  0  2.109992  0  0  -0.633305  0  2.404931  0  0  -0.660232  0  2.387553  0  0  -0.348352  -0.613947  0  2.416065  0
O  O43  1  0.58277325  0.98688182  0.69303090  1  0  -0.703005  0  2.109976  0  0  -0.633358  0  2.404942  0  0  -0.660283  0  2.38756  0  0  -0.348358  -0.614001  0  2.416078  0
O  O44  1  0.63967816  0.08662473  0.13193839  1  0  -0.618087  0  1.981782  0  0  -0.564647  0  2.230898  0  0  -0.587461  0  2.220248  0  0  -0.32486  -0.548292  0  2.237489  0
O  O45  1  0.36032094  0.91337241  0.86806349  1  0  -0.618011  0  1.981687  0  0  -0.56457  0  2.230788  0  0  -0.587387  0  2.220139  0  0  -0.324837  -0.548218  0  2.237386  0
O  O46  1  0.38366560  0.28174873  0.49069869  1  0  -0.568429  0  2.231483  0  0  -0.507745  0  2.488784  0  0  -0.531142  0  2.475196  0  0  -0.343269  -0.491039  0  2.497489  0
O  O47  1  0.61633589  0.71824974  0.50930273  1  0  -0.568474  0  2.231571  0  0  -0.507791  0  2.488858  0  0  -0.531189  0  2.475271  0  0  -0.343285  -0.491089  0  2.497571  0
O  O48  1  0.04469371  0.80412893  0.56870569  1  0  -0.666425  0  2.19135  0  0  -0.580441  0  2.482646  0  0  -0.612891  0  2.467596  0  0  -0.332979  -0.557448  0  2.492219  0
O  O49  1  0.95530719  0.19587086  0.43129575  1  0  -0.66637  0  2.191412  0  0  -0.580393  0  2.482717  0  0  -0.612843  0  2.467667  0  0  -0.332955  -0.557403  0  2.492286  0
O  O50  1  0.18975314  0.52844426  0.62427206  1  0  -0.583945  0  1.985497  0  0  -0.521  0  2.211916  0  0  -0.548488  0  2.205653  0  0  -0.3053  -0.501972  0  2.215783  0
O  O51  1  0.81025341  0.47155292  0.37572783  1  0  -0.583954  0  1.985448  0  0  -0.521024  0  2.211901  0  0  -0.548513  0  2.205635  0  0  -0.305293  -0.501998  0  2.215768  0
