# generated using pymatgen
data_MgH18C8O7
_symmetry_space_group_name_H-M   'P 1'
_cell_length_a   7.99044237
_cell_length_b   9.02638321
_cell_length_c   15.87338543
_cell_angle_alpha   103.82280957
_cell_angle_beta   89.99972932
_cell_angle_gamma   90.00006044
_symmetry_Int_Tables_number   1
_chemical_formula_structural   MgH18C8O7
_chemical_formula_sum   'Mg4 H72 C32 O28'
_cell_volume   1111.70851904
_cell_formula_units_Z   4
loop_
 _symmetry_equiv_pos_site_id
 _symmetry_equiv_pos_as_xyz
  1  'x, y, z'
loop_
 _atom_site_type_symbol
 _atom_site_label
 _atom_site_symmetry_multiplicity
 _atom_site_fract_x
 _atom_site_fract_y
 _atom_site_fract_z
 _atom_site_occupancy
 _atom_site_hle17_bader_spin_density
 _atom_site_hle17_ddec_charge
 _atom_site_hle17_ddec_spin_density
 _atom_site_hle17_ddec_sum_bond_order
 _atom_site_hle17_magmom
 _atom_site_hse06_10hf_bader_spin_density
 _atom_site_hse06_10hf_ddec_charge
 _atom_site_hse06_10hf_ddec_spin_density
 _atom_site_hse06_10hf_ddec_sum_bond_order
 _atom_site_hse06_10hf_magmom
 _atom_site_hse06_bader_spin_density
 _atom_site_hse06_ddec_charge
 _atom_site_hse06_ddec_spin_density
 _atom_site_hse06_ddec_sum_bond_order
 _atom_site_hse06_magmom
 _atom_site_pbe_bader_spin_density
 _atom_site_pbe_cm5_charge
 _atom_site_pbe_ddec_charge
 _atom_site_pbe_ddec_spin_density
 _atom_site_pbe_ddec_sum_bond_order
 _atom_site_pbe_magmom
Mg  Mg0  1  0.86758244  0.30372267  0.37025914  1  0  1.528998  0  1.0751  0  0  1.415873  0  1.33107  0  0  1.439763  0  1.29454  0  0  0.808242  1.398989  0  1.356747  0
Mg  Mg1  1  0.63241805  0.80372075  0.37025929  1  0  1.529011  0  1.075022  0  0  1.415912  0  1.330965  0  0  1.439801  0  1.294434  0  0  0.808267  1.399027  0  1.356642  0
Mg  Mg2  1  0.13241690  0.69627747  0.62974089  1  0  1.529  0  1.075095  0  0  1.415906  0  1.331016  0  0  1.439801  0  1.294485  0  0  0.80826  1.399018  0  1.356704  0
Mg  Mg3  1  0.36758255  0.19627939  0.62974138  1  0  1.528995  0  1.075075  0  0  1.415903  0  1.330993  0  0  1.439803  0  1.294457  0  0  0.808261  1.399013  0  1.356683  0
H  H4  1  0.79271549  0.76721310  0.16865309  1  0  0.10229  0  0.951798  0  0  0.113745  0  1.017977  0  0  0.116177  0  1.017037  0  0  0.09716  0.111825  0  1.018951  0
H  H5  1  0.70729062  0.26721276  0.16865364  1  0  0.102319  0  0.951829  0  0  0.113779  0  1.017978  0  0  0.116213  0  1.017033  0  0  0.097165  0.111859  0  1.018953  0
H  H6  1  0.20728386  0.23278590  0.83134742  1  0  0.102311  0  0.951809  0  0  0.113749  0  1.017982  0  0  0.116185  0  1.017038  0  0  0.097168  0.111831  0  1.018955  0
H  H7  1  0.29271248  0.73278625  0.83134624  1  0  0.102281  0  0.951815  0  0  0.113726  0  1.017992  0  0  0.116152  0  1.017059  0  0  0.097143  0.111811  0  1.018962  0
H  H8  1  0.98710655  0.86209540  0.16482604  1  0  0.101065  0  0.948699  0  0  0.116419  0  1.011599  0  0  0.117908  0  1.011791  0  0  0.099021  0.115309  0  1.011592  0
H  H9  1  0.51289846  0.36208709  0.16482594  1  0  0.101061  0  0.948764  0  0  0.116393  0  1.011682  0  0  0.117881  0  1.011877  0  0  0.099028  0.115283  0  1.011669  0
H  H10  1  0.01289529  0.13790475  0.83517337  1  0  0.101088  0  0.948696  0  0  0.116431  0  1.011592  0  0  0.117921  0  1.011784  0  0  0.099036  0.11532  0  1.011585  0
H  H11  1  0.48710214  0.63791191  0.83517457  1  0  0.101037  0  0.948791  0  0  0.116369  0  1.011716  0  0  0.117859  0  1.011909  0  0  0.099015  0.115259  0  1.011705  0
H  H12  1  0.84898014  0.03960882  0.08663632  1  0  0.063652  0  0.945181  0  0  0.083174  0  1.008158  0  0  0.0838  0  1.009018  0  0  0.089809  0.082449  0  1.008375  0
H  H13  1  0.65102145  0.53960688  0.08663768  1  0  0.063634  0  0.945205  0  0  0.083153  0  1.008186  0  0  0.083778  0  1.009046  0  0  0.089809  0.082431  0  1.008399  0
H  H14  1  0.15101544  0.96039133  0.91336371  1  0  0.063613  0  0.945177  0  0  0.083153  0  1.008133  0  0  0.08378  0  1.008991  0  0  0.089801  0.082429  0  1.00835  0
H  H15  1  0.34898039  0.46039213  0.91336220  1  0  0.063675  0  0.945205  0  0  0.083197  0  1.008178  0  0  0.083824  0  1.009038  0  0  0.089817  0.082473  0  1.008391  0
H  H16  1  0.65724414  0.94234089  0.08669581  1  0  0.056391  0  0.929905  0  0  0.077808  0  0.989288  0  0  0.078452  0  0.989746  0  0  0.086766  0.077315  0  0.988989  0
H  H17  1  0.84275671  0.44233939  0.08669525  1  0  0.0564  0  0.929942  0  0  0.07785  0  0.989281  0  0  0.078493  0  0.989739  0  0  0.086791  0.077353  0  0.988983  0
H  H18  1  0.34275270  0.05765697  0.91330517  1  0  0.056331  0  0.929903  0  0  0.07773  0  0.989323  0  0  0.078373  0  0.989784  0  0  0.086726  0.07724  0  0.989021  0
H  H19  1  0.15724389  0.55766076  0.91330416  1  0  0.056407  0  0.929963  0  0  0.077849  0  0.98931  0  0  0.078493  0  0.989768  0  0  0.086801  0.077354  0  0.989013  0
H  H20  1  0.98108663  0.79936724  0.99902649  1  0  0.058547  0  0.943406  0  0  0.080235  0  1.003588  0  0  0.080257  0  1.00507  0  0  0.086796  0.080168  0  1.002493  0
H  H21  1  0.51891416  0.29936807  0.99902638  1  0  0.058566  0  0.943404  0  0  0.080252  0  1.003589  0  0  0.080273  0  1.005071  0  0  0.086809  0.080184  0  1.002494  0
H  H22  1  0.01891146  0.20063176  0.00097465  1  0  0.058602  0  0.943405  0  0  0.080275  0  1.003614  0  0  0.080296  0  1.005097  0  0  0.086822  0.080208  0  1.00252  0
H  H23  1  0.48108644  0.70063208  0.00097365  1  0  0.058546  0  0.943421  0  0  0.080229  0  1.003612  0  0  0.08025  0  1.005094  0  0  0.086797  0.080162  0  1.002517  0
H  H24  1  0.79233954  0.69991898  0.00134552  1  0  0.053969  0  0.954189  0  0  0.073354  0  1.019372  0  0  0.073744  0  1.020179  0  0  0.084866  0.072378  0  1.019982  0
H  H25  1  0.70765931  0.19991751  0.00134465  1  0  0.053954  0  0.954217  0  0  0.073338  0  1.0194  0  0  0.073728  0  1.020208  0  0  0.084873  0.072362  0  1.020009  0
H  H26  1  0.20765855  0.30008002  0.99865499  1  0  0.053982  0  0.954187  0  0  0.073354  0  1.019401  0  0  0.073743  0  1.020209  0  0  0.084872  0.072378  0  1.020009  0
H  H27  1  0.29234003  0.80008265  0.99865476  1  0  0.053957  0  0.954206  0  0  0.073341  0  1.019387  0  0  0.073731  0  1.020194  0  0  0.084867  0.072363  0  1.019996  0
H  H28  1  0.84409345  0.96952053  0.91710370  1  0  0.057806  0  0.948408  0  0  0.079453  0  1.009199  0  0  0.079613  0  1.010441  0  0  0.087053  0.079001  0  1.009505  0
H  H29  1  0.65590457  0.46952248  0.91710406  1  0  0.057767  0  0.948421  0  0  0.07942  0  1.009211  0  0  0.07958  0  1.010452  0  0  0.087051  0.078963  0  1.009534  0
H  H30  1  0.15590464  0.03047733  0.08289665  1  0  0.057781  0  0.948393  0  0  0.079423  0  1.009192  0  0  0.079584  0  1.010431  0  0  0.087049  0.078965  0  1.009514  0
H  H31  1  0.34409478  0.53047881  0.08289676  1  0  0.05779  0  0.948392  0  0  0.079431  0  1.009199  0  0  0.07959  0  1.010442  0  0  0.087065  0.078973  0  1.009521  0
H  H32  1  0.64866363  0.88406811  0.92547056  1  0  0.052415  0  0.938519  0  0  0.073195  0  1.000893  0  0  0.073732  0  1.00133  0  0  0.084607  0.072837  0  1.00053  0
H  H33  1  0.85133545  0.38406890  0.92547029  1  0  0.052405  0  0.938468  0  0  0.07319  0  1.000852  0  0  0.073728  0  1.001287  0  0  0.084607  0.072823  0  1.000499  0
H  H34  1  0.35133571  0.11593203  0.07453011  1  0  0.052419  0  0.938453  0  0  0.073204  0  1.000829  0  0  0.073741  0  1.001265  0  0  0.084597  0.072834  0  1.000477  0
H  H35  1  0.14866264  0.61593239  0.07452990  1  0  0.052429  0  0.938468  0  0  0.073222  0  1.00084  0  0  0.073761  0  1.001274  0  0  0.084608  0.072857  0  1.000485  0
H  H36  1  0.76155000  0.63242723  0.84007202  1  0  0.05165  0  0.960241  0  0  0.070637  0  1.025725  0  0  0.070818  0  1.026717  0  0  0.084708  0.069791  0  1.026264  0
H  H37  1  0.73844708  0.13242803  0.84007139  1  0  0.051648  0  0.960286  0  0  0.070638  0  1.025756  0  0  0.070822  0  1.026752  0  0  0.084718  0.069791  0  1.026297  0
H  H38  1  0.23844810  0.36757177  0.15992849  1  0  0.051655  0  0.96026  0  0  0.070638  0  1.025743  0  0  0.070819  0  1.026735  0  0  0.084708  0.069792  0  1.026283  0
H  H39  1  0.26155101  0.86757440  0.15992833  1  0  0.051631  0  0.960266  0  0  0.070616  0  1.025759  0  0  0.070799  0  1.026754  0  0  0.084699  0.069771  0  1.026299  0
H  H40  1  0.95438549  0.72056116  0.82758748  1  0  0.078615  0  0.937119  0  0  0.096474  0  0.998742  0  0  0.097907  0  0.998603  0  0  0.094934  0.095352  0  0.998924  0
H  H41  1  0.54561682  0.22056083  0.82758778  1  0  0.078647  0  0.937058  0  0  0.096473  0  0.99871  0  0  0.097908  0  0.998572  0  0  0.094941  0.095351  0  0.998893  0
H  H42  1  0.04561510  0.27943785  0.17241239  1  0  0.078642  0  0.937075  0  0  0.096473  0  0.99873  0  0  0.097904  0  0.998591  0  0  0.094931  0.09535  0  0.998912  0
H  H43  1  0.45438377  0.77944046  0.17241178  1  0  0.078617  0  0.937123  0  0  0.096483  0  0.99874  0  0  0.097917  0  0.998603  0  0  0.094942  0.095362  0  0.998922  0
H  H44  1  0.62225780  0.83204814  0.76824673  1  0  0.093817  0  0.933863  0  0  0.111033  0  0.990793  0  0  0.112887  0  0.990258  0  0  0.095659  0.109698  0  0.991189  0
H  H45  1  0.87774272  0.33205120  0.76824735  1  0  0.09379  0  0.933904  0  0  0.111013  0  0.990791  0  0  0.112867  0  0.990257  0  0  0.095658  0.109671  0  0.991185  0
H  H46  1  0.37774280  0.16795201  0.23175268  1  0  0.093842  0  0.933881  0  0  0.111029  0  0.990797  0  0  0.112881  0  0.990265  0  0  0.095656  0.109691  0  0.991195  0
H  H47  1  0.12225913  0.66795237  0.23175316  1  0  0.09381  0  0.933875  0  0  0.110986  0  0.990795  0  0  0.112842  0  0.990261  0  0  0.09565  0.109646  0  0.991193  0
H  H48  1  0.82983594  0.88331316  0.74408714  1  0  0.114009  0  0.956454  0  0  0.123879  0  1.02384  0  0  0.126643  0  1.023016  0  0  0.101089  0.121791  0  1.024819  0
H  H49  1  0.67016362  0.38330941  0.74408542  1  0  0.113991  0  0.956448  0  0  0.123842  0  1.023825  0  0  0.126604  0  1.023004  0  0  0.101085  0.121753  0  1.024793  0
H  H50  1  0.17016341  0.11668812  0.25591368  1  0  0.11401  0  0.956467  0  0  0.123872  0  1.023822  0  0  0.126635  0  1.022997  0  0  0.101092  0.121783  0  1.024799  0
H  H51  1  0.32983698  0.61669302  0.25591431  1  0  0.113932  0  0.956524  0  0  0.123788  0  1.023904  0  0  0.126551  0  1.023081  0  0  0.10107  0.121718  0  1.024858  0
H  H52  1  0.61773388  0.12697694  0.36062856  1  0  0.428552  0  0.876742  0  0  0.392689  0  0.948297  0  0  0.404232  0  0.931384  0  0  0.302425  0.384526  0  0.96027  0
H  H53  1  0.88227023  0.62697727  0.36062780  1  0  0.428557  0  0.876734  0  0  0.392671  0  0.948321  0  0  0.404216  0  0.931406  0  0  0.302403  0.384508  0  0.960293  0
H  H54  1  0.38226671  0.87302321  0.63937148  1  0  0.428555  0  0.876735  0  0  0.392673  0  0.948318  0  0  0.404215  0  0.931405  0  0  0.302413  0.384508  0  0.960291  0
H  H55  1  0.11773161  0.37302060  0.63937129  1  0  0.428561  0  0.876729  0  0  0.392686  0  0.948299  0  0  0.404229  0  0.931386  0  0  0.302422  0.384523  0  0.960271  0
H  H56  1  0.52998289  0.29196076  0.36317965  1  0  0.423486  0  0.885481  0  0  0.389068  0  0.954283  0  0  0.399663  0  0.93911  0  0  0.29654  0.381608  0  0.964944  0
H  H57  1  0.97002016  0.79196224  0.36317758  1  0  0.423424  0  0.885545  0  0  0.388994  0  0.954365  0  0  0.399587  0  0.939196  0  0  0.296509  0.381538  0  0.965018  0
H  H58  1  0.47001896  0.70803938  0.63682102  1  0  0.423496  0  0.88546  0  0  0.389077  0  0.954261  0  0  0.399672  0  0.939089  0  0  0.296552  0.381619  0  0.964919  0
H  H59  1  0.02998043  0.20803791  0.63682246  1  0  0.423455  0  0.885497  0  0  0.389026  0  0.954314  0  0  0.39962  0  0.939144  0  0  0.296531  0.381569  0  0.964968  0
H  H60  1  0.85202318  0.51395058  0.53893757  1  0  0.437546  0  0.865487  0  0  0.401517  0  0.936481  0  0  0.413249  0  0.919217  0  0  0.299206  0.39324  0  0.948663  0
H  H61  1  0.64797910  0.01394910  0.53893810  1  0  0.437516  0  0.865534  0  0  0.401487  0  0.936529  0  0  0.413218  0  0.919268  0  0  0.299193  0.39321  0  0.948713  0
H  H62  1  0.14797741  0.48604957  0.46106247  1  0  0.437534  0  0.865504  0  0  0.401496  0  0.936511  0  0  0.413227  0  0.919249  0  0  0.299193  0.393219  0  0.948694  0
H  H63  1  0.35202274  0.98605104  0.46106257  1  0  0.437542  0  0.865494  0  0  0.401512  0  0.936491  0  0  0.413244  0  0.919228  0  0  0.299208  0.393235  0  0.948674  0
H  H64  1  0.71872803  0.54239287  0.47069859  1  0  0.42819  0  0.862251  0  0  0.399162  0  0.927391  0  0  0.409304  0  0.912379  0  0  0.302989  0.39191  0  0.938159  0
H  H65  1  0.78127494  0.04239252  0.47069896  1  0  0.428261  0  0.862154  0  0  0.399212  0  0.927333  0  0  0.409358  0  0.912314  0  0  0.303015  0.391959  0  0.938102  0
H  H66  1  0.28127132  0.45760613  0.52930129  1  0  0.428194  0  0.862242  0  0  0.39917  0  0.927379  0  0  0.409311  0  0.912368  0  0  0.302994  0.391917  0  0.938148  0
H  H67  1  0.21872690  0.95760761  0.52930297  1  0  0.428206  0  0.862208  0  0  0.399173  0  0.92737  0  0  0.409315  0  0.912359  0  0  0.30301  0.391921  0  0.938139  0
H  H68  1  0.03884700  0.07434624  0.41444182  1  0  0.437427  0  0.858868  0  0  0.399329  0  0.933644  0  0  0.411104  0  0.916342  0  0  0.301657  0.390971  0  0.94592  0
H  H69  1  0.46115559  0.57434312  0.41444291  1  0  0.437415  0  0.858879  0  0  0.399317  0  0.933665  0  0  0.411094  0  0.91636  0  0  0.301645  0.390959  0  0.945941  0
H  H70  1  0.96115109  0.92565391  0.58555822  1  0  0.437417  0  0.858872  0  0  0.399315  0  0.933657  0  0  0.41109  0  0.916354  0  0  0.301646  0.390955  0  0.945934  0
H  H71  1  0.53884500  0.42565817  0.58555728  1  0  0.437403  0  0.85889  0  0  0.399289  0  0.933701  0  0  0.411065  0  0.916395  0  0  0.301635  0.390931  0  0.945975  0
H  H72  1  0.02390881  0.20453327  0.50234364  1  0  0.44323  0  0.845569  0  0  0.412544  0  0.907137  0  0  0.423264  0  0.891381  0  0  0.304196  0.404885  0  0.918435  0
H  H73  1  0.47609185  0.70453359  0.50234328  1  0  0.443243  0  0.845552  0  0  0.412556  0  0.907121  0  0  0.423276  0  0.891365  0  0  0.304203  0.404897  0  0.918419  0
H  H74  1  0.97609053  0.79546687  0.49765703  1  0  0.443213  0  0.845593  0  0  0.412526  0  0.907161  0  0  0.423246  0  0.891406  0  0  0.304194  0.404867  0  0.91846  0
H  H75  1  0.52390749  0.29546655  0.49765675  1  0  0.443231  0  0.845568  0  0  0.412552  0  0.907123  0  0  0.423271  0  0.891368  0  0  0.304206  0.404895  0  0.918416  0
C  C76  1  0.80704862  0.99424565  0.24869839  1  0  0.766834  0  3.789421  0  0  0.714791  0  4.09118  0  0  0.748635  0  4.080308  0  0  0.233379  0.691864  0  4.097766  0
C  C77  1  0.69294700  0.49425331  0.24869756  1  0  0.766891  0  3.789213  0  0  0.714724  0  4.091155  0  0  0.748566  0  4.080284  0  0  0.233362  0.691799  0  4.097743  0
C  C78  1  0.19295197  0.00575565  0.75130118  1  0  0.766875  0  3.789354  0  0  0.714818  0  4.091124  0  0  0.748663  0  4.080252  0  0  0.233431  0.691893  0  4.097713  0
C  C79  1  0.30705485  0.50574456  0.75130090  1  0  0.767001  0  3.789022  0  0  0.714811  0  4.091035  0  0  0.748654  0  4.080161  0  0  0.233391  0.691884  0  4.097621  0
C  C80  1  0.85042827  0.87652907  0.16645021  1  0  -0.277751  0  3.659992  0  0  -0.318021  0  3.915861  0  0  -0.323504  0  3.923068  0  0  -0.168303  -0.313887  0  3.910297  0
C  C81  1  0.64957675  0.37652529  0.16645168  1  0  -0.277795  0  3.659986  0  0  -0.317995  0  3.915848  0  0  -0.32347  0  3.923036  0  0  -0.168323  -0.313863  0  3.910286  0
C  C82  1  0.14957358  0.12346994  0.83354967  1  0  -0.27784  0  3.660091  0  0  -0.318052  0  3.915918  0  0  -0.323542  0  3.92313  0  0  -0.168326  -0.31392  0  3.910354  0
C  C83  1  0.35042510  0.62347257  0.83354804  1  0  -0.277755  0  3.660003  0  0  -0.31795  0  3.915906  0  0  -0.323429  0  3.923113  0  0  -0.168283  -0.313824  0  3.910342  0
C  C84  1  0.79436295  0.92699406  0.08522521  1  0  -0.079749  0  3.690819  0  0  -0.123559  0  3.955486  0  0  -0.12391  0  3.969551  0  0  -0.163843  -0.123153  0  3.945607  0
C  C85  1  0.70563789  0.42699370  0.08522702  1  0  -0.079819  0  3.690885  0  0  -0.123653  0  3.955535  0  0  -0.124008  0  3.969598  0  0  -0.163897  -0.123247  0  3.945655  0
C  C86  1  0.20563389  0.07300382  0.91477325  1  0  -0.079615  0  3.690836  0  0  -0.123427  0  3.955497  0  0  -0.123779  0  3.969564  0  0  -0.163807  -0.123021  0  3.945623  0
C  C87  1  0.29436270  0.57300531  0.91477286  1  0  -0.079886  0  3.691025  0  0  -0.123711  0  3.955658  0  0  -0.124065  0  3.969722  0  0  -0.163918  -0.1233  0  3.945777  0
C  C88  1  0.84383113  0.81327680  0.00125674  1  0  -0.110134  0  3.699536  0  0  -0.150364  0  3.963464  0  0  -0.151213  0  3.978518  0  0  -0.167302  -0.148932  0  3.952315  0
C  C89  1  0.65616912  0.31327760  0.00125819  1  0  -0.11014  0  3.69955  0  0  -0.150368  0  3.963483  0  0  -0.151218  0  3.978537  0  0  -0.167328  -0.148934  0  3.952332  0
C  C90  1  0.15616571  0.18672107  0.99874173  1  0  -0.11025  0  3.699631  0  0  -0.150487  0  3.963596  0  0  -0.151336  0  3.978649  0  0  -0.167387  -0.149058  0  3.952448  0
C  C91  1  0.34383023  0.68672255  0.99874185  1  0  -0.110086  0  3.69952  0  0  -0.150303  0  3.963446  0  0  -0.151151  0  3.978499  0  0  -0.167289  -0.148871  0  3.952293  0
C  C92  1  0.78444211  0.86069946  0.92010294  1  0  -0.10806  0  3.702585  0  0  -0.150206  0  3.968339  0  0  -0.150988  0  3.983172  0  0  -0.167459  -0.149486  0  3.958115  0
C  C93  1  0.71555700  0.36070139  0.92010378  1  0  -0.10796  0  3.702468  0  0  -0.150139  0  3.96826  0  0  -0.150916  0  3.983097  0  0  -0.167453  -0.149418  0  3.958037  0
C  C94  1  0.21555598  0.13929841  0.07989678  1  0  -0.107984  0  3.70247  0  0  -0.150128  0  3.96824  0  0  -0.150909  0  3.983074  0  0  -0.16739  -0.149399  0  3.958013  0
C  C95  1  0.28444109  0.63929990  0.07989641  1  0  -0.10797  0  3.702386  0  0  -0.15015  0  3.968198  0  0  -0.150928  0  3.983032  0  0  -0.167441  -0.149424  0  3.957971  0
C  C96  1  0.81915015  0.74147744  0.83607015  1  0  -0.082428  0  3.673327  0  0  -0.124779  0  3.938052  0  0  -0.125006  0  3.951401  0  0  -0.163455  -0.124003  0  3.928617  0
C  C97  1  0.68084961  0.24147823  0.83607155  1  0  -0.082449  0  3.673399  0  0  -0.124786  0  3.938064  0  0  -0.125026  0  3.951428  0  0  -0.163464  -0.124017  0  3.928621  0
C  C98  1  0.18084794  0.25852157  0.16392973  1  0  -0.082413  0  3.673377  0  0  -0.124762  0  3.938036  0  0  -0.124989  0  3.951384  0  0  -0.163444  -0.123986  0  3.928593  0
C  C99  1  0.31914973  0.75852420  0.16392881  1  0  -0.082481  0  3.673418  0  0  -0.124863  0  3.938125  0  0  -0.125101  0  3.95149  0  0  -0.163479  -0.124092  0  3.928687  0
C  C100  1  0.75152476  0.79070501  0.75626599  1  0  -0.285144  0  3.674422  0  0  -0.327446  0  3.933441  0  0  -0.33321  0  3.940387  0  0  -0.170495  -0.323367  0  3.928435  0
C  C101  1  0.74847706  0.29070579  0.75626723  1  0  -0.285216  0  3.674441  0  0  -0.327391  0  3.933306  0  0  -0.333151  0  3.940253  0  0  -0.170516  -0.323285  0  3.928261  0
C  C102  1  0.24847583  0.20929515  0.24373341  1  0  -0.285273  0  3.674602  0  0  -0.32745  0  3.933403  0  0  -0.333211  0  3.940349  0  0  -0.170509  -0.323367  0  3.928392  0
C  C103  1  0.25152353  0.70929665  0.24373186  1  0  -0.285113  0  3.674539  0  0  -0.327221  0  3.933352  0  0  -0.332989  0  3.940309  0  0  -0.170469  -0.323143  0  3.928315  0
C  C104  1  0.75317703  0.65818576  0.67719170  1  0  0.745741  0  3.779771  0  0  0.694625  0  4.078718  0  0  0.728152  0  4.069565  0  0  0.232064  0.671948  0  4.083935  0
C  C105  1  0.74681912  0.15818312  0.67719309  1  0  0.745794  0  3.779598  0  0  0.694569  0  4.078662  0  0  0.728105  0  4.069499  0  0  0.232043  0.671881  0  4.083881  0
C  C106  1  0.24681731  0.34181209  0.32280928  1  0  0.745785  0  3.779493  0  0  0.694679  0  4.078353  0  0  0.728207  0  4.0692  0  0  0.23211  0.671998  0  4.083573  0
C  C107  1  0.25318523  0.84181587  0.32280867  1  0  0.745794  0  3.77969  0  0  0.694567  0  4.078739  0  0  0.728106  0  4.069578  0  0  0.232074  0.671887  0  4.083955  0
O  O108  1  0.87350367  0.12520334  0.26099095  1  0  -0.726622  0  2.002776  0  0  -0.667167  0  2.248483  0  0  -0.691027  0  2.237352  0  0  -0.350772  -0.650758  0  2.256002  0
O  O109  1  0.62650389  0.62518658  0.26098967  1  0  -0.726436  0  2.00322  0  0  -0.666967  0  2.249022  0  0  -0.690822  0  2.237891  0  0  -0.350632  -0.650564  0  2.256546  0
O  O110  1  0.12649567  0.87479681  0.73900909  1  0  -0.726665  0  2.002708  0  0  -0.667203  0  2.248408  0  0  -0.691063  0  2.237274  0  0  -0.350804  -0.650799  0  2.255937  0
O  O111  1  0.37349796  0.37481129  0.73901005  1  0  -0.726496  0  2.003224  0  0  -0.667017  0  2.249027  0  0  -0.690876  0  2.237894  0  0  -0.350664  -0.650616  0  2.256551  0
O  O112  1  0.70087025  0.95948638  0.30118836  1  0  -0.754413  0  2.055453  0  0  -0.685257  0  2.294081  0  0  -0.709999  0  2.281133  0  0  -0.356892  -0.668036  0  2.302631  0
O  O113  1  0.79914110  0.45948485  0.30119230  1  0  -0.75459  0  2.05503  0  0  -0.685383  0  2.293734  0  0  -0.710141  0  2.280795  0  0  -0.356985  -0.668159  0  2.302283  0
O  O114  1  0.29913285  0.04051376  0.69881168  1  0  -0.754408  0  2.055455  0  0  -0.685254  0  2.294093  0  0  -0.709997  0  2.281142  0  0  -0.356906  -0.668032  0  2.302647  0
O  O115  1  0.20085825  0.54051417  0.69880632  1  0  -0.754631  0  2.054913  0  0  -0.685429  0  2.293635  0  0  -0.71018  0  2.280687  0  0  -0.357003  -0.668203  0  2.302184  0
O  O116  1  0.89186913  0.61599145  0.63889068  1  0  -0.725705  0  2.042307  0  0  -0.654967  0  2.274392  0  0  -0.68004  0  2.261555  0  0  -0.345651  -0.637602  0  2.28276  0
O  O117  1  0.60813484  0.11599456  0.63888942  1  0  -0.725677  0  2.042363  0  0  -0.654933  0  2.27452  0  0  -0.679999  0  2.261671  0  0  -0.345623  -0.637566  0  2.282893  0
O  O118  1  0.10813772  0.38400983  0.36111141  1  0  -0.725626  0  2.042437  0  0  -0.654888  0  2.274515  0  0  -0.679952  0  2.261677  0  0  -0.345596  -0.637527  0  2.282885  0
O  O119  1  0.39186325  0.88400446  0.36110983  1  0  -0.725614  0  2.042564  0  0  -0.654893  0  2.274751  0  0  -0.679957  0  2.261898  0  0  -0.345597  -0.637531  0  2.283122  0
O  O120  1  0.61531990  0.59030076  0.65289290  1  0  -0.660691  0  2.002045  0  0  -0.590869  0  2.221261  0  0  -0.617068  0  2.210982  0  0  -0.313595  -0.572492  0  2.227817  0
O  O121  1  0.88467765  0.09028891  0.65289962  1  0  -0.66069  0  2.00186  0  0  -0.590853  0  2.221114  0  0  -0.617067  0  2.210854  0  0  -0.313548  -0.572462  0  2.227654  0
O  O122  1  0.38468570  0.40970625  0.34710620  1  0  -0.660784  0  2.001625  0  0  -0.59102  0  2.220867  0  0  -0.617223  0  2.210591  0  0  -0.313686  -0.572634  0  2.227421  0
O  O123  1  0.11531794  0.90971466  0.34710089  1  0  -0.660773  0  2.001685  0  0  -0.590942  0  2.220959  0  0  -0.617155  0  2.210691  0  0  -0.313618  -0.572554  0  2.227499  0
O  O124  1  0.61520704  0.23760522  0.39134057  1  0  -0.91085  0  1.924981  0  0  -0.846796  0  2.111981  0  0  -0.866836  0  2.078535  0  0  -0.594647  -0.832627  0  2.135323  0
O  O125  1  0.88479567  0.73760328  0.39133886  1  0  -0.910799  0  1.925005  0  0  -0.846718  0  2.112053  0  0  -0.866754  0  2.078603  0  0  -0.594606  -0.832549  0  2.13539  0
O  O126  1  0.38479231  0.76239606  0.60866026  1  0  -0.910855  0  1.924963  0  0  -0.846792  0  2.112002  0  0  -0.866831  0  2.078552  0  0  -0.594637  -0.832621  0  2.135343  0
O  O127  1  0.11520492  0.26239802  0.60866071  1  0  -0.910826  0  1.924988  0  0  -0.846762  0  2.112031  0  0  -0.866798  0  2.078575  0  0  -0.594645  -0.832594  0  2.135371  0
O  O128  1  0.81445357  0.47702432  0.47744095  1  0  -0.913276  0  1.8673  0  0  -0.855353  0  2.062802  0  0  -0.873036  0  2.029202  0  0  -0.626376  -0.842866  0  2.086438  0
O  O129  1  0.68554862  0.97702353  0.47744113  1  0  -0.91333  0  1.867248  0  0  -0.855402  0  2.062737  0  0  -0.873087  0  2.029136  0  0  -0.626383  -0.842915  0  2.086373  0
O  O130  1  0.18554452  0.52297468  0.52255956  1  0  -0.913271  0  1.867313  0  0  -0.855349  0  2.062818  0  0  -0.873032  0  2.029219  0  0  -0.626363  -0.842859  0  2.086455  0
O  O131  1  0.31445322  0.02297662  0.52255954  1  0  -0.913294  0  1.86726  0  0  -0.855356  0  2.062749  0  0  -0.87304  0  2.029149  0  0  -0.62638  -0.842866  0  2.086388  0
O  O132  1  0.96446774  0.15788596  0.44704925  1  0  -0.889418  0  1.852372  0  0  -0.824211  0  2.032996  0  0  -0.843457  0  1.999079  0  0  -0.584422  -0.810635  0  2.056919  0
O  O133  1  0.53553310  0.65788519  0.44704916  1  0  -0.889383  0  1.852344  0  0  -0.824191  0  2.032946  0  0  -0.843437  0  1.999028  0  0  -0.584401  -0.810615  0  2.056868  0
O  O134  1  0.03553161  0.84211304  0.55295062  1  0  -0.889376  0  1.852411  0  0  -0.824183  0  2.033036  0  0  -0.843427  0  1.99912  0  0  -0.584406  -0.810607  0  2.056962  0
O  O135  1  0.46446750  0.34211268  0.55294993  1  0  -0.889357  0  1.852369  0  0  -0.824167  0  2.032982  0  0  -0.843416  0  1.999064  0  0  -0.584384  -0.81059  0  2.056903  0
