# generated using pymatgen
data_CuH18C10(NO4)2
_symmetry_space_group_name_H-M   'P 1'
_cell_length_a   7.79773485
_cell_length_b   8.73166358
_cell_length_c   11.12342183
_cell_angle_alpha   106.47115263
_cell_angle_beta   90.00025106
_cell_angle_gamma   90.00036609
_symmetry_Int_Tables_number   1
_chemical_formula_structural   CuH18C10(NO4)2
_chemical_formula_sum   'Cu2 H36 C20 N4 O16'
_cell_volume   726.28243286
_cell_formula_units_Z   2
loop_
 _symmetry_equiv_pos_site_id
 _symmetry_equiv_pos_as_xyz
  1  'x, y, z'
loop_
 _atom_site_type_symbol
 _atom_site_label
 _atom_site_symmetry_multiplicity
 _atom_site_fract_x
 _atom_site_fract_y
 _atom_site_fract_z
 _atom_site_occupancy
 _atom_site_hle17_bader_spin_density
 _atom_site_hle17_ddec_charge
 _atom_site_hle17_ddec_spin_density
 _atom_site_hle17_ddec_sum_bond_order
 _atom_site_hle17_magmom
 _atom_site_hse06_10hf_bader_spin_density
 _atom_site_hse06_10hf_ddec_charge
 _atom_site_hse06_10hf_ddec_spin_density
 _atom_site_hse06_10hf_ddec_sum_bond_order
 _atom_site_hse06_10hf_magmom
 _atom_site_hse06_bader_spin_density
 _atom_site_hse06_ddec_charge
 _atom_site_hse06_ddec_spin_density
 _atom_site_hse06_ddec_sum_bond_order
 _atom_site_hse06_magmom
 _atom_site_pbe_bader_spin_density
 _atom_site_pbe_cm5_charge
 _atom_site_pbe_ddec_charge
 _atom_site_pbe_ddec_spin_density
 _atom_site_pbe_ddec_sum_bond_order
 _atom_site_pbe_magmom
Cu  Cu0  1  0.00000109  0.99999855  0.00000313  1  0  0.945523  0  1.575025  0  0  0.906899  0  1.966544  0  0  0.951938  0  1.903785  0  0  0.646814  0.877787  0  2.010672  0
Cu  Cu1  1  0.49999988  0.50000058  0.50000194  1  0  0.945523  0  1.574924  0  0  0.906843  0  1.966405  0  0  0.95189  0  1.903661  0  0  0.646789  0.877797  0  2.01053  0
H  H2  1  0.88914215  0.38008331  0.16014272  1  0  0.026877  0  0.94877  0  0  0.034609  0  1.024507  0  0  0.036948  0  1.019058  0  0  0.11411  0.03295  0  1.028098  0
H  H3  1  0.61085705  0.88007988  0.66014709  1  0  0.026891  0  0.948754  0  0  0.034611  0  1.024487  0  0  0.036949  0  1.019044  0  0  0.114103  0.032952  0  1.028073  0
H  H4  1  0.11085377  0.61991423  0.83985317  1  0  0.026975  0  0.948775  0  0  0.034684  0  1.024517  0  0  0.037027  0  1.019068  0  0  0.11413  0.033025  0  1.028106  0
H  H5  1  0.38914144  0.11992365  0.33985462  1  0  0.026912  0  0.948726  0  0  0.034635  0  1.024477  0  0  0.036975  0  1.019028  0  0  0.114117  0.032978  0  1.028061  0
H  H6  1  0.58204577  0.54980456  0.93502237  1  0  0.091455  0  0.951453  0  0  0.11265  0  1.015719  0  0  0.112926  0  1.016302  0  0  0.09971  0.112437  0  1.015038  0
H  H7  1  0.91795146  0.04980108  0.43502647  1  0  0.091439  0  0.951379  0  0  0.11264  0  1.01564  0  0  0.112906  0  1.016235  0  0  0.099701  0.112426  0  1.014962  0
H  H8  1  0.41795015  0.45019656  0.06497431  1  0  0.091413  0  0.951439  0  0  0.112599  0  1.015723  0  0  0.11287  0  1.01631  0  0  0.099702  0.112384  0  1.015042  0
H  H9  1  0.08204831  0.95020126  0.56497498  1  0  0.091445  0  0.951375  0  0  0.11265  0  1.015629  0  0  0.112915  0  1.016225  0  0  0.099712  0.112436  0  1.014954  0
H  H10  1  0.74635686  0.41215209  0.86158128  1  0  0.108472  0  0.961998  0  0  0.130485  0  1.022552  0  0  0.131661  0  1.02207  0  0  0.10843  0.129577  0  1.022807  0
H  H11  1  0.75363871  0.91214834  0.36158647  1  0  0.108429  0  0.962119  0  0  0.130434  0  1.022682  0  0  0.131613  0  1.0222  0  0  0.108412  0.129529  0  1.022934  0
H  H12  1  0.25363778  0.58784784  0.13841514  1  0  0.108367  0  0.962095  0  0  0.130393  0  1.022649  0  0  0.131569  0  1.022165  0  0  0.108408  0.129486  0  1.022902  0
H  H13  1  0.24636234  0.08785281  0.63841471  1  0  0.108413  0  0.962127  0  0  0.130422  0  1.022689  0  0  0.131602  0  1.022206  0  0  0.108407  0.129519  0  1.022939  0
H  H14  1  0.78801219  0.62292570  0.91153026  1  0  0.102033  0  0.968362  0  0  0.120696  0  1.03628  0  0  0.12105  0  1.036896  0  0  0.101633  0.12037  0  1.036202  0
H  H15  1  0.71198671  0.12292071  0.41153249  1  0  0.102016  0  0.968389  0  0  0.120711  0  1.036268  0  0  0.121064  0  1.03689  0  0  0.101638  0.120384  0  1.036188  0
H  H16  1  0.21198629  0.37707423  0.08846616  1  0  0.101976  0  0.96839  0  0  0.120645  0  1.036312  0  0  0.120997  0  1.036931  0  0  0.101613  0.120316  0  1.036236  0
H  H17  1  0.28801305  0.87708043  0.58846779  1  0  0.102029  0  0.968371  0  0  0.120723  0  1.036251  0  0  0.121077  0  1.036872  0  0  0.101646  0.120396  0  1.036172  0
H  H18  1  0.62305065  0.68697766  0.17193533  1  0  0.097011  0  0.929163  0  0  0.119329  0  0.989882  0  0  0.119882  0  0.990145  0  0  0.102461  0.119019  0  0.989431  0
H  H19  1  0.87694336  0.18698240  0.67193885  1  0  0.097019  0  0.929208  0  0  0.119317  0  0.989948  0  0  0.119882  0  0.990201  0  0  0.102432  0.119017  0  0.989488  0
H  H20  1  0.37695040  0.31302347  0.82806225  1  0  0.097018  0  0.92914  0  0  0.119335  0  0.989853  0  0  0.119888  0  0.990117  0  0  0.10246  0.119027  0  0.989402  0
H  H21  1  0.12305897  0.81301875  0.32806233  1  0  0.097029  0  0.929214  0  0  0.119329  0  0.989946  0  0  0.119895  0  0.990199  0  0  0.102445  0.119028  0  0.989486  0
H  H22  1  0.83999457  0.74468002  0.15237864  1  0  0.10827  0  0.947841  0  0  0.125169  0  1.015874  0  0  0.126023  0  1.015856  0  0  0.102298  0.124534  0  1.016011  0
H  H23  1  0.65999718  0.24467601  0.65237777  1  0  0.108254  0  0.947928  0  0  0.125159  0  1.015962  0  0  0.126012  0  1.015946  0  0  0.102304  0.124526  0  1.0161  0
H  H24  1  0.16000648  0.25531752  0.84761635  1  0  0.108192  0  0.947956  0  0  0.125106  0  1.015973  0  0  0.12596  0  1.015954  0  0  0.102274  0.124472  0  1.01611  0
H  H25  1  0.34000515  0.75532514  0.34762341  1  0  0.108241  0  0.947879  0  0  0.125152  0  1.015907  0  0  0.126007  0  1.015891  0  0  0.102299  0.12452  0  1.016045  0
H  H26  1  0.79149185  0.61514171  0.24789011  1  0  0.106072  0  0.94242  0  0  0.12495  0  1.008426  0  0  0.126114  0  1.007548  0  0  0.106746  0.124046  0  1.009192  0
H  H27  1  0.70850083  0.11514285  0.74789322  1  0  0.106075  0  0.942435  0  0  0.124978  0  1.008403  0  0  0.126144  0  1.007521  0  0  0.106773  0.124074  0  1.009175  0
H  H28  1  0.20850791  0.38485702  0.75210604  1  0  0.106101  0  0.942386  0  0  0.124977  0  1.008394  0  0  0.126137  0  1.007523  0  0  0.106778  0.124073  0  1.009161  0
H  H29  1  0.29149893  0.88485831  0.25210976  1  0  0.106126  0  0.942384  0  0  0.125001  0  1.008381  0  0  0.126168  0  1.0075  0  0  0.106782  0.124098  0  1.009151  0
H  H30  1  0.18650353  0.88493442  0.80949055  1  0  0.404472  0  0.906737  0  0  0.375368  0  0.971529  0  0  0.386121  0  0.956319  0  0  0.291061  0.367858  0  0.982132  0
H  H31  1  0.31350368  0.38493848  0.30948429  1  0  0.404579  0  0.906637  0  0  0.375494  0  0.971358  0  0  0.386248  0  0.956146  0  0  0.291135  0.367981  0  0.981965  0
H  H32  1  0.81350393  0.11506436  0.19051371  1  0  0.404606  0  0.906611  0  0  0.375521  0  0.971323  0  0  0.386276  0  0.956111  0  0  0.291134  0.368008  0  0.981932  0
H  H33  1  0.68649994  0.61506387  0.69051895  1  0  0.404536  0  0.906653  0  0  0.375451  0  0.971414  0  0  0.386206  0  0.956201  0  0  0.291123  0.36794  0  0.98202  0
H  H34  1  0.99317597  0.84092586  0.77059743  1  0  0.419879  0  0.880183  0  0  0.389429  0  0.945983  0  0  0.400385  0  0.930328  0  0  0.295015  0.381688  0  0.957068  0
H  H35  1  0.50682877  0.34092414  0.27059796  1  0  0.419862  0  0.880268  0  0  0.389381  0  0.946074  0  0  0.400338  0  0.930416  0  0  0.29502  0.381644  0  0.957151  0
H  H36  1  0.00683149  0.15908006  0.22940390  1  0  0.419886  0  0.880201  0  0  0.389407  0  0.946036  0  0  0.400365  0  0.930376  0  0  0.295  0.381665  0  0.95712  0
H  H37  1  0.49317485  0.65907345  0.72940873  1  0  0.419778  0  0.88035  0  0  0.389318  0  0.946149  0  0  0.400272  0  0.930498  0  0  0.294967  0.381582  0  0.957225  0
C  C38  1  0.62354276  0.95736633  0.97228374  1  0  0.196888  0  3.85288  0  0  0.17604  0  4.141566  0  0  0.189509  0  4.155524  0  0  0.105208  0.166507  0  4.133164  0
C  C39  1  0.87645127  0.45736491  0.47228367  1  0  0.196798  0  3.853104  0  0  0.175955  0  4.141784  0  0  0.18942  0  4.155749  0  0  0.105182  0.166428  0  4.133364  0
C  C40  1  0.37645829  0.04263003  0.02771459  1  0  0.196835  0  3.852809  0  0  0.175992  0  4.141487  0  0  0.189463  0  4.155447  0  0  0.105222  0.166465  0  4.133079  0
C  C41  1  0.12354850  0.54263385  0.52771789  1  0  0.196834  0  3.853031  0  0  0.175989  0  4.141702  0  0  0.189456  0  4.155665  0  0  0.105276  0.166463  0  4.133283  0
C  C42  1  0.55010261  0.07986798  0.08114209  1  0  0.201052  0  3.852057  0  0  0.172499  0  4.135839  0  0  0.183851  0  4.150892  0  0  0.108713  0.164883  0  4.125437  0
C  C43  1  0.94989518  0.57986939  0.58114406  1  0  0.201097  0  3.852171  0  0  0.172567  0  4.135971  0  0  0.183911  0  4.151028  0  0  0.108796  0.16495  0  4.125554  0
C  C44  1  0.44990101  0.92013078  0.91885947  1  0  0.201058  0  3.851979  0  0  0.172493  0  4.135782  0  0  0.183842  0  4.150835  0  0  0.10877  0.164883  0  4.125383  0
C  C45  1  0.05010330  0.42012458  0.41885285  1  0  0.200993  0  3.852213  0  0  0.172439  0  4.136032  0  0  0.183783  0  4.151087  0  0  0.108679  0.164817  0  4.125614  0
C  C46  1  0.85035235  0.37323646  0.06310250  1  0  0.389021  0  3.858787  0  0  0.318282  0  4.152497  0  0  0.346085  0  4.152519  0  0  0.160636  0.299714  0  4.151299  0
C  C47  1  0.64964618  0.87323451  0.56310641  1  0  0.388995  0  3.858944  0  0  0.318298  0  4.152573  0  0  0.346098  0  4.152603  0  0  0.160717  0.299728  0  4.151373  0
C  C48  1  0.14964228  0.62676107  0.93689249  1  0  0.38888  0  3.858913  0  0  0.318185  0  4.15256  0  0  0.345984  0  4.152581  0  0  0.160638  0.299616  0  4.151363  0
C  C49  1  0.35035230  0.12676902  0.43689440  1  0  0.389036  0  3.858862  0  0  0.31829  0  4.152551  0  0  0.34609  0  4.152582  0  0  0.160714  0.299718  0  4.151348  0
C  C50  1  0.72013193  0.52414602  0.93345033  1  0  -0.17604  0  3.662575  0  0  -0.277551  0  3.904784  0  0  -0.273857  0  3.914747  0  0  -0.142589  -0.279447  0  3.897689  0
C  C51  1  0.77986383  0.02413793  0.43345029  1  0  -0.175892  0  3.662549  0  0  -0.277454  0  3.904784  0  0  -0.273728  0  3.914696  0  0  -0.14253  -0.279347  0  3.897689  0
C  C52  1  0.27986527  0.47585392  0.06654699  1  0  -0.175772  0  3.662531  0  0  -0.27731  0  3.90476  0  0  -0.273595  0  3.914701  0  0  -0.142528  -0.279204  0  3.897664  0
C  C53  1  0.22013594  0.97586201  0.56654973  1  0  -0.175887  0  3.662543  0  0  -0.277455  0  3.90478  0  0  -0.273732  0  3.914697  0  0  -0.142523  -0.279349  0  3.897684  0
C  C54  1  0.75737025  0.64690501  0.16239564  1  0  -0.177489  0  3.66419  0  0  -0.279181  0  3.914421  0  0  -0.275452  0  3.924286  0  0  -0.135566  -0.281649  0  3.907775  0
C  C55  1  0.74262085  0.14690519  0.66239685  1  0  -0.177499  0  3.664301  0  0  -0.279223  0  3.914552  0  0  -0.275508  0  3.924416  0  0  -0.135566  -0.281697  0  3.907915  0
C  C56  1  0.24262823  0.35309373  0.83760142  1  0  -0.177445  0  3.664288  0  0  -0.279138  0  3.914527  0  0  -0.27541  0  3.924396  0  0  -0.135559  -0.281607  0  3.907884  0
C  C57  1  0.25737892  0.85309834  0.33760306  1  0  -0.177549  0  3.664282  0  0  -0.279261  0  3.914541  0  0  -0.275547  0  3.924405  0  0  -0.135602  -0.281737  0  3.9079  0
N  N58  1  0.77581194  0.50832255  0.05389248  1  0  -0.101134  0  3.513989  0  0  0.004643  0  3.745089  0  0  -0.015737  0  3.770554  0  0  -0.291371  0.018621  0  3.727161  0
N  N59  1  0.72418388  0.00832022  0.55389757  1  0  -0.101157  0  3.514136  0  0  0.004624  0  3.745234  0  0  -0.015757  0  3.770705  0  0  -0.291446  0.018602  0  3.727311  0
N  N60  1  0.22418526  0.49167618  0.94610278  1  0  -0.101207  0  3.514037  0  0  0.004556  0  3.745162  0  0  -0.015823  0  3.770622  0  0  -0.291443  0.018532  0  3.727239  0
N  N61  1  0.27581589  0.99168092  0.44610271  1  0  -0.101186  0  3.514166  0  0  0.004623  0  3.745245  0  0  -0.015757  0  3.770719  0  0  -0.291466  0.018601  0  3.727318  0
O  O62  1  0.76929247  0.90306887  0.93598561  1  0  -0.432911  0  2.188501  0  0  -0.400666  0  2.459465  0  0  -0.423563  0  2.452434  0  0  -0.280931  -0.386454  0  2.466297  0
O  O63  1  0.73070992  0.40306638  0.43598305  1  0  -0.432839  0  2.188748  0  0  -0.400583  0  2.459693  0  0  -0.42348  0  2.452673  0  0  -0.280895  -0.386386  0  2.466527  0
O  O64  1  0.23070601  0.09692871  0.06401929  1  0  -0.432888  0  2.188466  0  0  -0.400632  0  2.459411  0  0  -0.423527  0  2.452373  0  0  -0.28094  -0.386418  0  2.46624  0
O  O65  1  0.26929113  0.59692761  0.56401925  1  0  -0.432863  0  2.188756  0  0  -0.400597  0  2.459686  0  0  -0.423493  0  2.452662  0  0  -0.280967  -0.386401  0  2.466522  0
O  O66  1  0.61139028  0.17291897  0.17923468  1  0  -0.474031  0  2.137507  0  0  -0.422216  0  2.355853  0  0  -0.445911  0  2.354631  0  0  -0.273826  -0.406005  0  2.356491  0
O  O67  1  0.88861265  0.67291871  0.67923070  1  0  -0.474016  0  2.137599  0  0  -0.422267  0  2.356002  0  0  -0.445958  0  2.354781  0  0  -0.273897  -0.406057  0  2.356638  0
O  O68  1  0.38861205  0.82707622  0.82076699  1  0  -0.474032  0  2.137398  0  0  -0.42221  0  2.355739  0  0  -0.445902  0  2.354518  0  0  -0.27388  -0.406009  0  2.356384  0
O  O69  1  0.11138968  0.32708243  0.32076868  1  0  -0.473957  0  2.137706  0  0  -0.422167  0  2.356085  0  0  -0.445859  0  2.354862  0  0  -0.273817  -0.405952  0  2.356717  0
O  O70  1  0.87544924  0.25142271  0.97384470  1  0  -0.560401  0  2.047076  0  0  -0.522519  0  2.308456  0  0  -0.544835  0  2.299996  0  0  -0.316405  -0.506881  0  2.313845  0
O  O71  1  0.62454843  0.75141801  0.47384749  1  0  -0.560432  0  2.047148  0  0  -0.522535  0  2.308454  0  0  -0.544877  0  2.300038  0  0  -0.316425  -0.506911  0  2.313871  0
O  O72  1  0.12454411  0.74857364  0.02615183  1  0  -0.560377  0  2.047202  0  0  -0.522488  0  2.308524  0  0  -0.54482  0  2.300094  0  0  -0.316393  -0.50685  0  2.313917  0
O  O73  1  0.37544621  0.24858552  0.52615332  1  0  -0.560446  0  2.047101  0  0  -0.522539  0  2.30844  0  0  -0.544873  0  2.300006  0  0  -0.316417  -0.506915  0  2.31385  0
O  O74  1  0.06787825  0.93078946  0.81738937  1  0  -0.80223  0  1.963595  0  0  -0.755425  0  2.177829  0  0  -0.777134  0  2.142289  0  0  -0.578733  -0.740622  0  2.202503  0
O  O75  1  0.43212678  0.43078841  0.31738236  1  0  -0.802342  0  1.963655  0  0  -0.75551  0  2.177776  0  0  -0.77721  0  2.142224  0  0  -0.578829  -0.74072  0  2.202458  0
O  O76  1  0.93212793  0.06921289  0.18261477  1  0  -0.802379  0  1.96358  0  0  -0.755573  0  2.177749  0  0  -0.777281  0  2.142198  0  0  -0.578798  -0.740774  0  2.202431  0
O  O77  1  0.56787812  0.56921155  0.68262126  1  0  -0.802283  0  1.96373  0  0  -0.755476  0  2.177928  0  0  -0.777161  0  2.14235  0  0  -0.578794  -0.740684  0  2.202608  0
