# generated using pymatgen
data_ZnH21C23NO6
_symmetry_space_group_name_H-M   'P 1'
_cell_length_a   11.89516232
_cell_length_b   13.06703391
_cell_length_c   16.04248330
_cell_angle_alpha   88.38927685
_cell_angle_beta   84.64788367
_cell_angle_gamma   82.70043564
_symmetry_Int_Tables_number   1
_chemical_formula_structural   ZnH21C23NO6
_chemical_formula_sum   'Zn2 H42 C46 N2 O12'
_cell_volume   2462.22913076
_cell_formula_units_Z   2
loop_
 _symmetry_equiv_pos_site_id
 _symmetry_equiv_pos_as_xyz
  1  'x, y, z'
loop_
 _atom_site_type_symbol
 _atom_site_label
 _atom_site_symmetry_multiplicity
 _atom_site_fract_x
 _atom_site_fract_y
 _atom_site_fract_z
 _atom_site_occupancy
 _atom_site_pbe_bader_charge
 _atom_site_pbe_bader_spin_density
 _atom_site_pbe_cm5_charge
 _atom_site_pbe_ddec_charge
 _atom_site_pbe_ddec_spin_density
 _atom_site_pbe_ddec_sum_bond_order
 _atom_site_pbe_magmom
Zn  Zn0  1  0.62182043  0.50203494  0.48064010  1  1.308241  0  0.676617  0.853191  0  2.37402  0
Zn  Zn1  1  0.37816201  0.49796643  0.51937067  1  1.308803  0  0.676775  0.853477  0  2.373713  0
H  H2  1  0.30491495  0.57996974  0.04003809  1  0.091713  0  0.099184  0.086199  0  0.994727  0
H  H3  1  0.73517457  0.95979335  0.48340917  1  0.053841  0  0.093436  0.09432  0  1.040011  0
H  H4  1  0.80723203  0.42449620  0.57874644  1  0.131239  0  0.129203  0.111068  0  1.005375  0
H  H5  1  0.19275607  0.57548697  0.42122684  1  0.131122  0  0.129277  0.111296  0  1.00515  0
H  H6  1  0.88065649  0.03120008  0.53430133  1  0.018881  0  0.082146  0.104967  0  1.017553  0
H  H7  1  0.88386866  0.03187989  0.42350435  1  0.007774  0  0.082007  0.104957  0  1.0118  0
H  H8  1  0.95424393  0.12125917  0.47339655  1  0.009238  0  0.082771  0.106402  0  1.014158  0
H  H9  1  0.77441658  0.21280385  0.42772002  1  0.05624  0  0.098882  0.108498  0  0.962188  0
H  H10  1  0.77184095  0.21215796  0.53562541  1  0.020164  0  0.090647  0.089826  0  1.008357  0
H  H11  1  0.11611471  0.96813559  0.57647931  1  0.007905  0  0.082034  0.104996  0  1.011921  0
H  H12  1  0.11936136  0.96880259  0.46567524  1  0.018493  0  0.0822  0.105016  0  1.017349  0
H  H13  1  0.69506769  0.42000158  0.95997502  1  0.091765  0  0.099236  0.086345  0  0.994677  0
H  H14  1  0.04574124  0.87875561  0.52657766  1  0.010056  0  0.082677  0.10636  0  1.014126  0
H  H15  1  0.22815383  0.78782467  0.46439231  1  0.020187  0  0.09063  0.089867  0  1.008246  0
H  H16  1  0.22555922  0.78721758  0.57229772  1  0.056404  0  0.09889  0.108454  0  0.962128  0
H  H17  1  0.84470624  0.71585916  0.27392679  1  0.05417  0  0.099922  0.059225  0  0.994163  0
H  H18  1  0.77573189  0.76108862  0.37250591  1  0.024675  0  0.096901  0.049423  0  0.996356  0
H  H19  1  0.58763056  0.72919155  0.32784561  1  0.076715  0  0.094563  0.140385  0  1.008339  0
H  H20  1  0.65310954  0.81559539  0.25591408  1  0.042245  0  0.092507  0.123654  0  0.996121  0
H  H21  1  0.65417793  0.68353475  0.22951175  1  0.037986  0  0.093173  0.12937  0  0.999146  0
H  H22  1  0.22421340  0.23889076  0.62753265  1  0.024697  0  0.096826  0.049322  0  0.996271  0
H  H23  1  0.15526465  0.28418926  0.72609520  1  0.053808  0  0.099962  0.059286  0  0.993959  0
H  H24  1  0.47477370  0.67596958  0.94198452  1  0.051182  0  0.102068  0.088925  0  0.990354  0
H  H25  1  0.34582493  0.31651596  0.77045880  1  0.038325  0  0.093194  0.129494  0  0.999177  0
H  H26  1  0.34685688  0.18444754  0.74412576  1  0.041828  0  0.092565  0.123715  0  0.996127  0
H  H27  1  0.41235005  0.27077619  0.67214276  1  0.076643  0  0.094596  0.140527  0  1.007905  0
H  H28  1  0.03587128  0.21175608  0.62426773  1  0.030326  0  0.09399  0.042853  0  1.00572  0
H  H29  1  0.90766207  0.27188991  0.58567341  1  0.057453  0  0.09915  0.055415  0  1.026121  0
H  H30  1  0.81208237  0.28095525  0.73274189  1  0.060804  0  0.099304  0.138372  0  0.985462  0
H  H31  1  0.86511272  0.15147841  0.70543663  1  0.03142  0  0.09872  0.134686  0  0.987044  0
H  H32  1  0.94053373  0.22038453  0.77127089  1  0.049874  0  0.0938  0.125668  0  0.994054  0
H  H33  1  0.09240696  0.72809543  0.41425760  1  0.057553  0  0.099192  0.055607  0  1.02606  0
H  H34  1  0.96410569  0.78821170  0.37580192  1  0.029339  0  0.094206  0.042946  0  1.005991  0
H  H35  1  0.52521317  0.32400168  0.05802768  1  0.05104  0  0.102086  0.088987  0  0.990494  0
H  H36  1  0.05921517  0.77974157  0.22873425  1  0.047454  0  0.093702  0.125478  0  0.994123  0
H  H37  1  0.13470262  0.84861536  0.29453526  1  0.031534  0  0.098531  0.134497  0  0.986831  0
H  H38  1  0.18774178  0.71918799  0.26711639  1  0.061097  0  0.099333  0.138378  0  0.986057  0
H  H39  1  0.36501653  0.39938394  0.94324152  1  0.069516  0  0.100411  0.087538  0  0.994263  0
H  H40  1  0.63496742  0.60058352  0.05677032  1  0.070377  0  0.100413  0.087551  0  0.994466  0
H  H41  1  0.37101804  0.19248038  0.51108032  1  0.1012  0  0.101371  0.108028  0  1.022758  0
H  H42  1  0.62896337  0.80751573  0.48891937  1  0.101281  0  0.10139  0.108091  0  1.022827  0
H  H43  1  0.26482301  0.04020858  0.51659869  1  0.05344  0  0.093442  0.094357  0  1.04003  0
C  C44  1  0.45950256  0.70063899  0.49811180  1  1.519715  0  0.217654  0.594834  0  4.159097  0
C  C45  1  0.44715667  0.03277326  0.50401764  1  0.079643  0  -0.011507  0.07787  0  4.057885  0
C  C46  1  0.03897554  0.41827276  0.59379876  1  0.528547  0  0.083706  0.066597  0  4.061068  0
C  C47  1  0.96101403  0.58172660  0.40616980  1  0.527518  0  0.083634  0.066529  0  4.061528  0
C  C48  1  0.15416785  0.43122462  0.59142088  1  1.103384  0  0.202776  0.269654  0  4.089164  0
C  C49  1  0.84582572  0.56876237  0.40854698  1  1.102835  0  0.202722  0.269493  0  4.088932  0
C  C50  1  0.14438532  0.53588595  0.47018119  1  0.578453  0  0.066893  0.086735  0  3.873702  0
C  C51  1  0.85560270  0.46410487  0.52979821  1  0.575965  0  0.067057  0.087036  0  3.873791  0
C  C52  1  0.02670256  0.53072245  0.46835760  1  0.046887  0  -0.005985  -0.034082  0  4.043315  0
C  C53  1  0.97329093  0.46926534  0.53160713  1  -0.007869  0  -0.006104  -0.034326  0  4.043402  0
C  C54  1  0.47213665  0.49607904  0.34018724  1  1.675119  0  0.216639  0.668812  0  4.251789  0
C  C55  1  0.54046467  0.29936274  0.50188814  1  1.519949  0  0.217226  0.594072  0  4.160064  0
C  C56  1  0.52787071  0.50392580  0.65982242  1  1.677099  0  0.216674  0.66887  0  4.251322  0
C  C57  1  0.48557392  0.59793792  0.96893225  1  -0.008054  0  -0.07008  -0.07461  0  3.633807  0
C  C58  1  0.51441775  0.40203555  0.03108271  1  -0.008021  0  -0.070062  -0.074513  0  3.634139  0
C  C59  1  0.39165897  0.54441419  0.02180672  1  -0.064157  0  -0.071402  -0.079952  0  3.640085  0
C  C60  1  0.60833091  0.45556009  0.97820648  1  -0.065063  0  -0.071403  -0.080354  0  3.640512  0
C  C61  1  0.46471682  0.49929414  0.25057125  1  0.202993  0  -0.059443  -0.202836  0  4.011207  0
C  C62  1  0.53530275  0.50070746  0.74943389  1  0.20366  0  -0.059469  -0.202519  0  4.010993  0
C  C63  1  0.57543143  0.55582933  0.03049719  1  -0.029941  0  -0.072206  -0.078924  0  3.638276  0
C  C64  1  0.42455855  0.44414422  0.96951165  1  -0.028488  0  -0.072356  -0.079407  0  3.638056  0
C  C65  1  0.48106989  0.50248536  0.08579780  1  0.112623  0  0.006338  0.125097  0  3.803744  0
C  C66  1  0.34419943  0.98791361  0.51058199  1  -0.076353  0  -0.100772  -0.204161  0  3.969787  0
C  C67  1  0.51892413  0.49748275  0.91420961  1  0.111451  0  0.006241  0.125724  0  3.804156  0
C  C68  1  0.46744507  0.50189202  0.17436798  1  -0.529082  0  -0.044322  -0.070469  0  4.116595  0
C  C69  1  0.53254680  0.49808685  0.82564564  1  -0.529276  0  -0.044236  -0.071202  0  4.116836  0
C  C70  1  0.55152291  0.18325110  0.49916915  1  -0.027282  0  -0.016775  -0.085619  0  3.915418  0
C  C71  1  0.44847298  0.81674404  0.50082710  1  -0.026788  0  -0.016749  -0.085607  0  3.915357  0
C  C72  1  0.77146311  0.16057529  0.48266693  1  0.028887  0  -0.165387  -0.146642  0  3.989556  0
C  C73  1  0.87770473  0.08163782  0.47833647  1  -0.053164  0  -0.246335  -0.351974  0  4.012678  0
C  C74  1  0.22853429  0.83942821  0.51733843  1  0.028926  0  -0.165343  -0.146435  0  3.989462  0
C  C75  1  0.12228961  0.91837051  0.52165218  1  -0.053925  0  -0.246354  -0.352145  0  4.012604  0
C  C76  1  0.77086143  0.71028454  0.31957427  1  0.4118  0  -0.059449  0.096595  0  3.883574  0
C  C77  1  0.65579336  0.01208615  0.48941937  1  -0.076389  0  -0.100743  -0.204261  0  3.969568  0
C  C78  1  0.65940855  0.73606874  0.28082935  1  -0.07524  0  -0.243406  -0.396599  0  3.958464  0
C  C79  1  0.22911268  0.28973010  0.68043248  1  0.41127  0  -0.059355  0.097003  0  3.883312  0
C  C80  1  0.34056587  0.26395059  0.71916919  1  -0.074712  0  -0.243551  -0.397096  0  3.958338  0
C  C81  1  0.95751696  0.26480091  0.64040094  1  0.399805  0  -0.065436  0.077899  0  3.918322  0
C  C82  1  0.88977155  0.22761800  0.71713571  1  -0.076451  0  -0.239671  -0.393541  0  3.966521  0
C  C83  1  0.04245171  0.73520321  0.35958826  1  0.400834  0  -0.06579  0.07713  0  3.918859  0
C  C84  1  0.11005981  0.77247650  0.28281451  1  -0.074388  0  -0.239458  -0.392975  0  3.966837  0
C  C85  1  0.34128759  0.88236865  0.50962632  1  -0.019697  0  -0.004147  0.107977  0  3.913906  0
C  C86  1  0.65870264  0.11763101  0.49038956  1  -0.01979  0  -0.004092  0.108241  0  3.913841  0
C  C87  1  0.54971184  0.85981314  0.49464026  1  -0.057566  0  -0.085201  -0.1388  0  3.959958  0
C  C88  1  0.45027981  0.14018885  0.50537112  1  -0.057082  0  -0.085195  -0.138698  0  3.959885  0
C  C89  1  0.55283489  0.96722952  0.49599186  1  0.018318  0  -0.011502  0.078148  0  4.057544  0
N  N90  1  0.79651067  0.51115378  0.47057071  1  -1.223764  0  -0.311804  -0.255748  0  3.508359  0
N  N91  1  0.20348103  0.48883473  0.52940162  1  -1.226007  0  -0.311824  -0.255849  0  3.508737  0
O  O92  1  0.56050424  0.65445808  0.48423885  1  -1.176339  0  -0.319832  -0.560565  0  2.385537  0
O  O93  1  0.22600207  0.39501887  0.64826341  1  -1.062946  0  -0.166434  -0.191057  0  2.558276  0
O  O94  1  0.98931640  0.36510017  0.65897228  1  -1.067813  0  -0.195668  -0.210594  0  2.530919  0
O  O95  1  0.01067017  0.63490312  0.34099392  1  -1.067354  0  -0.195556  -0.210405  0  2.530551  0
O  O96  1  0.43945192  0.34554835  0.51561277  1  -1.177371  0  -0.319693  -0.560264  0  2.38669  0
O  O97  1  0.36993550  0.65633149  0.50935615  1  -1.16311  0  -0.309857  -0.54022  0  2.362864  0
O  O98  1  0.63004948  0.34367988  0.49081075  1  -1.162739  0  -0.309655  -0.539892  0  2.362265  0
O  O99  1  0.57272643  0.48913210  0.36252160  1  -1.141954  0  -0.311684  -0.538768  0  2.299969  0
O  O100  1  0.42729785  0.51069528  0.63749666  1  -1.142409  0  -0.311519  -0.538642  0  2.300204  0
O  O101  1  0.37977065  0.50078937  0.38765174  1  -1.159005  0  -0.318009  -0.560342  0  2.283148  0
O  O102  1  0.62022926  0.49941971  0.61234822  1  -1.16059  0  -0.31813  -0.560377  0  2.282469  0
O  O103  1  0.77399209  0.60497048  0.35169752  1  -1.063544  0  -0.16654  -0.190864  0  2.557702  0
