# generated using pymatgen
data_CdH7C11N9
_symmetry_space_group_name_H-M   'P 1'
_cell_length_a   7.72594623
_cell_length_b   9.90161982
_cell_length_c   9.47859132
_cell_angle_alpha   89.70071150
_cell_angle_beta   105.52839177
_cell_angle_gamma   111.94887411
_symmetry_Int_Tables_number   1
_chemical_formula_structural   CdH7C11N9
_chemical_formula_sum   'Cd2 H14 C22 N18'
_cell_volume   644.33996120
_cell_formula_units_Z   2
loop_
 _symmetry_equiv_pos_site_id
 _symmetry_equiv_pos_as_xyz
  1  'x, y, z'
loop_
 _atom_site_type_symbol
 _atom_site_label
 _atom_site_symmetry_multiplicity
 _atom_site_fract_x
 _atom_site_fract_y
 _atom_site_fract_z
 _atom_site_occupancy
 _atom_site_hle17_bader_spin_density
 _atom_site_hle17_ddec_charge
 _atom_site_hle17_ddec_spin_density
 _atom_site_hle17_ddec_sum_bond_order
 _atom_site_hle17_magmom
 _atom_site_hse06_10hf_bader_spin_density
 _atom_site_hse06_10hf_ddec_charge
 _atom_site_hse06_10hf_ddec_spin_density
 _atom_site_hse06_10hf_ddec_sum_bond_order
 _atom_site_hse06_10hf_magmom
 _atom_site_hse06_bader_spin_density
 _atom_site_hse06_ddec_charge
 _atom_site_hse06_ddec_spin_density
 _atom_site_hse06_ddec_sum_bond_order
 _atom_site_hse06_magmom
 _atom_site_pbe_bader_spin_density
 _atom_site_pbe_cm5_charge
 _atom_site_pbe_ddec_charge
 _atom_site_pbe_ddec_spin_density
 _atom_site_pbe_ddec_sum_bond_order
 _atom_site_pbe_magmom
Cd  Cd0  1  0.89907229  0.16166702  0.20131498  1  0  1.19635  0  1.814712  0  0  1.011296  0  2.302852  0  0  1.056816  0  2.256972  0  0  0.859765  0.980022  0  2.332852  0
Cd  Cd1  1  0.10091909  0.83833249  0.79868614  1  0  1.196333  0  1.814802  0  0  1.011281  0  2.302964  0  0  1.056799  0  2.257084  0  0  0.859762  0.980006  0  2.332968  0
H  H2  1  0.26644015  0.72640324  0.39007305  1  0  0.30224  0  0.93504  0  0  0.282485  0  0.994835  0  0  0.289986  0  0.989685  0  0  0.311885  0.277724  0  0.997876  0
H  H3  1  0.73355186  0.27359743  0.60992083  1  0  0.302232  0  0.935071  0  0  0.282531  0  0.994797  0  0  0.290036  0  0.98964  0  0  0.311898  0.277771  0  0.997839  0
H  H4  1  0.87717990  0.44912564  0.09897023  1  0  0.34067  0  0.901688  0  0  0.324428  0  0.964812  0  0  0.330977  0  0.959538  0  0  0.306332  0.319971  0  0.968235  0
H  H5  1  0.12280802  0.55086728  0.90103224  1  0  0.340577  0  0.901788  0  0  0.324349  0  0.964913  0  0  0.330897  0  0.959643  0  0  0.306294  0.319898  0  0.968317  0
H  H6  1  0.00979762  0.63675151  0.13660883  1  0  0.345742  0  0.893624  0  0  0.328068  0  0.957038  0  0  0.334712  0  0.951922  0  0  0.306632  0.32349  0  0.960489  0
H  H7  1  0.99019223  0.36324251  0.86339195  1  0  0.345628  0  0.893733  0  0  0.327949  0  0.957161  0  0  0.334597  0  0.952039  0  0  0.306582  0.323371  0  0.960613  0
H  H8  1  0.52264707  0.72469843  0.68081535  1  0  0.090038  0  0.974141  0  0  0.10098  0  1.036602  0  0  0.102944  0  1.036447  0  0  0.092433  0.099447  0  1.036953  0
H  H9  1  0.47735986  0.27530765  0.31917971  1  0  0.090128  0  0.974073  0  0  0.101086  0  1.036512  0  0  0.103054  0  1.036351  0  0  0.092482  0.099551  0  1.036865  0
H  H10  1  0.59032175  0.54618775  0.85344148  1  0  0.079581  0  0.968601  0  0  0.091828  0  1.029238  0  0  0.094116  0  1.028952  0  0  0.088301  0.090741  0  1.028129  0
H  H11  1  0.40969171  0.45382051  0.14655292  1  0  0.079637  0  0.968572  0  0  0.09185  0  1.029234  0  0  0.094138  0  1.028949  0  0  0.088318  0.090762  0  1.028123  0
H  H12  1  0.40366628  0.28005444  0.78744249  1  0  0.072197  0  1.006181  0  0  0.084211  0  1.069958  0  0  0.085738  0  1.070528  0  0  0.085679  0.082843  0  1.070204  0
H  H13  1  0.59635267  0.71995152  0.21256050  1  0  0.072227  0  1.006093  0  0  0.084207  0  1.069905  0  0  0.085735  0  1.070474  0  0  0.085688  0.08285  0  1.070139  0
H  H14  1  0.14396487  0.18120997  0.55123349  1  0  0.106349  0  0.968341  0  0  0.115877  0  1.032481  0  0  0.11863  0  1.031379  0  0  0.095444  0.113971  0  1.03317  0
H  H15  1  0.85605044  0.81879932  0.44876870  1  0  0.106364  0  0.968277  0  0  0.11588  0  1.032434  0  0  0.118625  0  1.031335  0  0  0.095497  0.113978  0  1.033128  0
C  C16  1  0.18708670  0.39832372  0.48261969  1  0  0.163216  0  3.85249  0  0  0.159288  0  4.099835  0  0  0.164564  0  4.12257  0  0  0.079465  0.155486  0  4.084994  0
C  C17  1  0.81291233  0.60168013  0.51738312  1  0  0.163302  0  3.85243  0  0  0.159273  0  4.099892  0  0  0.164551  0  4.122626  0  0  0.079464  0.155472  0  4.08505  0
C  C18  1  0.29330799  0.55087028  0.52133567  1  0  0.167453  0  3.792551  0  0  0.158195  0  4.039256  0  0  0.162507  0  4.060731  0  0  0.089375  0.155166  0  4.025164  0
C  C19  1  0.70669527  0.44913138  0.47866492  1  0  0.167458  0  3.792527  0  0  0.158257  0  4.039224  0  0  0.16257  0  4.060697  0  0  0.089417  0.155228  0  4.025133  0
C  C20  1  0.43840486  0.60742960  0.65388914  1  0  -0.157828  0  3.772634  0  0  -0.174879  0  4.027043  0  0  -0.177548  0  4.048308  0  0  -0.106089  -0.172921  0  4.012624  0
C  C21  1  0.56159614  0.39257540  0.34610673  1  0  -0.158003  0  3.772857  0  0  -0.175062  0  4.027225  0  0  -0.177735  0  4.04849  0  0  -0.106202  -0.173103  0  4.012799  0
C  C22  1  0.47529981  0.50682275  0.74952042  1  0  -0.088366  0  3.814253  0  0  -0.106671  0  4.07605  0  0  -0.108944  0  4.098544  0  0  -0.116302  -0.104924  0  4.059609  0
C  C23  1  0.52471245  0.49318327  0.25048004  1  0  -0.088432  0  3.814521  0  0  -0.106714  0  4.076305  0  0  -0.108988  0  4.098806  0  0  -0.116312  -0.104963  0  4.059858  0
C  C24  1  0.36926128  0.35577925  0.71241073  1  0  -0.085114  0  3.817719  0  0  -0.103947  0  4.077305  0  0  -0.10529  0  4.099546  0  0  -0.117803  -0.103031  0  4.062364  0
C  C25  1  0.63075402  0.64423001  0.28759357  1  0  -0.085121  0  3.817769  0  0  -0.103919  0  4.077323  0  0  -0.105262  0  4.099562  0  0  -0.117831  -0.103013  0  4.062377  0
C  C26  1  0.22332719  0.29892579  0.57917656  1  0  -0.162982  0  3.754508  0  0  -0.18247  0  4.008056  0  0  -0.185235  0  4.027348  0  0  -0.111651  -0.18088  0  3.995331  0
C  C27  1  0.77668982  0.70107906  0.42082916  1  0  -0.162971  0  3.75455  0  0  -0.182429  0  4.008169  0  0  -0.18518  0  4.027439  0  0  -0.111674  -0.180852  0  3.995456  0
C  C28  1  0.08511007  0.50888675  0.29630169  1  0  0.649439  0  3.830363  0  0  0.590794  0  4.118078  0  0  0.618553  0  4.124146  0  0  0.342975  0.572243  0  4.114117  0
C  C29  1  0.91489262  0.49111382  0.70369771  1  0  0.649388  0  3.83038  0  0  0.590779  0  4.118048  0  0  0.618538  0  4.124121  0  0  0.342961  0.572228  0  4.114092  0
C  C30  1  0.20517000  0.98299054  0.31228548  1  0  0.532009  0  3.950288  0  0  0.485632  0  4.235419  0  0  0.51147  0  4.246665  0  0  0.31914  0.468266  0  4.227267  0
C  C31  1  0.79482541  0.01700896  0.68771443  1  0  0.531873  0  3.950257  0  0  0.485523  0  4.235401  0  0  0.511371  0  4.246646  0  0  0.319109  0.468157  0  4.227254  0
C  C32  1  0.50153078  0.98268259  0.31374571  1  0  0.525331  0  3.959277  0  0  0.478132  0  4.247234  0  0  0.50381  0  4.258844  0  0  0.314374  0.460559  0  4.239389  0
C  C33  1  0.49845704  0.01731263  0.68624513  1  0  0.525339  0  3.959294  0  0  0.478175  0  4.247249  0  0  0.50386  0  4.258853  0  0  0.314371  0.460603  0  4.239413  0
C  C34  1  0.48981612  0.17793468  0.01823070  1  0  0.527005  0  3.973291  0  0  0.483533  0  4.25851  0  0  0.508704  0  4.27169  0  0  0.318474  0.466533  0  4.248632  0
C  C35  1  0.51019419  0.82207022  0.98177355  1  0  0.52691  0  3.973246  0  0  0.483452  0  4.258495  0  0  0.508642  0  4.271677  0  0  0.318462  0.466455  0  4.248619  0
C  C36  1  0.18326868  0.16982474  0.00750546  1  0  0.526592  0  3.967416  0  0  0.483908  0  4.250611  0  0  0.509037  0  4.264132  0  0  0.318943  0.466693  0  4.241126  0
C  C37  1  0.81672754  0.83016600  0.99249039  1  0  0.526605  0  3.967244  0  0  0.483923  0  4.250467  0  0  0.509067  0  4.263983  0  0  0.318976  0.466716  0  4.240989  0
N  N38  1  0.05865171  0.37543108  0.34158714  1  0  -0.602239  0  3.137197  0  0  -0.526777  0  3.424462  0  0  -0.553722  0  3.434967  0  0  -0.387319  -0.508921  0  3.416761  0
N  N39  1  0.94135019  0.62457057  0.65841525  1  0  -0.602244  0  3.137217  0  0  -0.526768  0  3.4245  0  0  -0.553709  0  3.434987  0  0  -0.387311  -0.508914  0  3.4168  0
N  N40  1  0.22268078  0.61665976  0.40181931  1  0  -0.43718  0  3.32245  0  0  -0.374068  0  3.553271  0  0  -0.393539  0  3.562522  0  0  -0.387194  -0.361717  0  3.547067  0
N  N41  1  0.77732035  0.38334299  0.59818397  1  0  -0.43721  0  3.322599  0  0  -0.374159  0  3.553364  0  0  -0.393629  0  3.562609  0  0  -0.387207  -0.361795  0  3.547128  0
N  N42  1  0.99425630  0.53394332  0.16297837  1  0  -0.702859  0  3.08905  0  0  -0.663036  0  3.321184  0  0  -0.683098  0  3.317002  0  0  -0.573993  -0.6491  0  3.323982  0
N  N43  1  0.00573507  0.46604849  0.83702381  1  0  -0.702601  0  3.089067  0  0  -0.662801  0  3.321151  0  0  -0.682862  0  3.316974  0  0  -0.573911  -0.648859  0  3.323947  0
N  N44  1  0.08236818  0.02912775  0.29803214  1  0  -0.602267  0  2.824192  0  0  -0.545691  0  3.109377  0  0  -0.568857  0  3.114002  0  0  -0.376007  -0.529628  0  3.105348  0
N  N45  1  0.91762550  0.97086845  0.70196949  1  0  -0.602216  0  2.824145  0  0  -0.545619  0  3.109302  0  0  -0.56879  0  3.113924  0  0  -0.375992  -0.529551  0  3.105261  0
N  N46  1  0.32987648  0.92089945  0.33245272  1  0  -0.47483  0  3.298567  0  0  -0.408589  0  3.550715  0  0  -0.43246  0  3.554701  0  0  -0.301663  -0.392272  0  3.546952  0
N  N47  1  0.67011477  0.07909463  0.66754099  1  0  -0.474735  0  3.298502  0  0  -0.408584  0  3.550716  0  0  -0.43247  0  3.554713  0  0  -0.301671  -0.392269  0  3.546962  0
N  N48  1  0.66094328  0.02839068  0.30282763  1  0  -0.602235  0  2.813326  0  0  -0.547254  0  3.100167  0  0  -0.570077  0  3.104542  0  0  -0.383183  -0.532025  0  3.09745  0
N  N49  1  0.33905235  0.97160665  0.69716915  1  0  -0.602247  0  2.813421  0  0  -0.547273  0  3.100255  0  0  -0.570097  0  3.104625  0  0  -0.383175  -0.532046  0  3.097542  0
N  N50  1  0.65990246  0.22482129  0.03637595  1  0  -0.613635  0  2.764259  0  0  -0.565523  0  3.040234  0  0  -0.586595  0  3.044493  0  0  -0.383989  -0.550891  0  3.036376  0
N  N51  1  0.34008223  0.77517057  0.96362370  1  0  -0.613763  0  2.763669  0  0  -0.565661  0  3.039661  0  0  -0.586734  0  3.04392  0  0  -0.384078  -0.55102  0  3.035796  0
N  N52  1  0.30318463  0.11317916  0.99123908  1  0  -0.477271  0  3.35073  0  0  -0.411265  0  3.617965  0  0  -0.437555  0  3.625165  0  0  -0.299722  -0.392834  0  3.61233  0
N  N53  1  0.69680466  0.88681378  0.00876052  1  0  -0.477143  0  3.350893  0  0  -0.411157  0  3.618147  0  0  -0.437484  0  3.625343  0  0  -0.299662  -0.392726  0  3.612485  0
N  N54  1  0.05860381  0.20845180  0.01634822  1  0  -0.617407  0  2.768558  0  0  -0.56847  0  3.044489  0  0  -0.589643  0  3.04875  0  0  -0.384292  -0.554015  0  3.041339  0
N  N55  1  0.94139351  0.79154879  0.98365210  1  0  -0.617313  0  2.768732  0  0  -0.568385  0  3.044677  0  0  -0.589541  0  3.048923  0  0  -0.384269  -0.553932  0  3.041528  0
