# generated using pymatgen
data_ZnH12C22Br(NO2)2
_symmetry_space_group_name_H-M   'P 1'
_cell_length_a   11.55239373
_cell_length_b   15.84308609
_cell_length_c   15.89318172
_cell_angle_alpha   89.99982432
_cell_angle_beta   90.09241666
_cell_angle_gamma   90.00010164
_symmetry_Int_Tables_number   1
_chemical_formula_structural   ZnH12C22Br(NO2)2
_chemical_formula_sum   'Zn2 H24 C44 Br2 N4 O8'
_cell_volume   2908.85483527
_cell_formula_units_Z   2
loop_
 _symmetry_equiv_pos_site_id
 _symmetry_equiv_pos_as_xyz
  1  'x, y, z'
loop_
 _atom_site_type_symbol
 _atom_site_label
 _atom_site_symmetry_multiplicity
 _atom_site_fract_x
 _atom_site_fract_y
 _atom_site_fract_z
 _atom_site_occupancy
 _atom_site_pbe_bader_charge
 _atom_site_pbe_bader_spin_density
 _atom_site_pbe_cm5_charge
 _atom_site_pbe_ddec_charge
 _atom_site_pbe_ddec_spin_density
 _atom_site_pbe_ddec_sum_bond_order
 _atom_site_pbe_magmom
Zn  Zn0  1  0.50148371  0.49999950  0.41327809  1  1.265794  0  0.661658  0.808972  0  2.446434  0
Zn  Zn1  1  0.49851924  0.49999987  0.58672369  1  1.27852  0  0.661682  0.80912  0  2.446244  0
H  H2  1  0.86648427  0.16726372  0.63560370  1  0.068785  0  0.099231  0.101486  0  0.995138  0
H  H3  1  0.13352220  0.16725861  0.36439848  1  0.068821  0  0.099189  0.101391  0  0.99524  0
H  H4  1  0.13351695  0.83274322  0.36439619  1  0.068703  0  0.099247  0.101563  0  0.995181  0
H  H5  1  0.86648594  0.83273697  0.63560456  1  0.068741  0  0.099233  0.1015  0  0.995205  0
H  H6  1  0.74565497  0.29862924  0.36548174  1  0.093655  0  0.101889  0.104596  0  1.00358  0
H  H7  1  0.25433884  0.29863293  0.63451875  1  0.09363  0  0.101892  0.104576  0  1.00364  0
H  H8  1  0.25434106  0.70136760  0.63451562  1  0.093677  0  0.101907  0.104606  0  1.003603  0
H  H9  1  0.74565459  0.70137275  0.36548364  1  0.093448  0  0.101912  0.104592  0  1.003614  0
H  H10  1  0.74461741  0.29785436  0.63503072  1  0.124531  0  0.101452  0.103997  0  1.003771  0
H  H11  1  0.25538592  0.29785256  0.36496979  1  0.124506  0  0.101466  0.104044  0  1.003732  0
H  H12  1  0.25538295  0.70214879  0.36496853  1  0.124535  0  0.101466  0.104021  0  1.003761  0
H  H13  1  0.74461789  0.70214744  0.63503262  1  0.124478  0  0.10145  0.103992  0  1.003817  0
H  H14  1  0.86755629  0.16803103  0.36490019  1  0.059873  0  0.099168  0.101335  0  0.994856  0
H  H15  1  0.13244067  0.16803582  0.63509882  1  0.059712  0  0.099135  0.10135  0  0.99483  0
H  H16  1  0.13244580  0.83196455  0.63509780  1  0.05975  0  0.099156  0.101306  0  0.99492  0
H  H17  1  0.86755535  0.83196607  0.36490358  1  0.059761  0  0.099153  0.101328  0  0.994938  0
H  H18  1  0.31446989  0.49999957  0.29024438  1  0.160646  0  0.134402  0.112253  0  0.963997  0
H  H19  1  0.68553219  0.50000043  0.70976242  1  0.16077  0  0.134415  0.112246  0  0.963865  0
H  H20  1  0.67088034  0.49999920  0.26973898  1  0.114398  0  0.134297  0.110739  0  0.957065  0
H  H21  1  0.32912002  0.50000017  0.73026216  1  0.114  0  0.134267  0.110655  0  0.957032  0
H  H22  1  0.66185148  0.49999944  0.11046804  1  0.122771  0  0.11731  0.124254  0  1.003967  0
H  H23  1  0.33814455  0.49999993  0.88953309  1  0.122669  0  0.117302  0.124267  0  1.003863  0
H  H24  1  0.28954775  0.49999916  0.13127947  1  0.100612  0  0.120997  0.13034  0  0.979424  0
H  H25  1  0.71044740  0.50000083  0.86872795  1  0.100665  0  0.120978  0.130287  0  0.979481  0
C  C26  1  0.88055158  0.00000107  0.50020191  1  -0.073895  0  -0.016373  0.015452  0  3.929711  0
C  C27  1  0.11945188  0.99999995  0.49980392  1  -0.07385  0  -0.016361  0.015385  0  3.92968  0
C  C28  1  0.73781655  0.30577284  0.50020340  1  -0.160758  0  -0.019159  -0.033549  0  3.964402  0
C  C29  1  0.26218594  0.30577380  0.49979393  1  -0.16097  0  -0.019173  -0.033697  0  3.964538  0
C  C30  1  0.26218467  0.69422779  0.49979396  1  -0.160967  0  -0.019091  -0.033563  0  3.96448  0
C  C31  1  0.73781355  0.69422683  0.50020595  1  -0.160762  0  -0.019194  -0.03373  0  3.964496  0
C  C32  1  0.93902986  0.07768484  0.50015353  1  -0.077148  0  -0.009191  -0.01184  0  3.981492  0
C  C33  1  0.06097639  0.07768490  0.49985270  1  0.101096  0  -0.009254  -0.011743  0  3.981529  0
C  C34  1  0.06097394  0.92231769  0.49985391  1  0.101118  0  -0.009206  -0.011802  0  3.98145  0
C  C35  1  0.93902915  0.92231636  0.50015537  1  -0.078288  0  -0.009196  -0.011779  0  3.98138  0
C  C36  1  0.84087267  0.19652135  0.57630853  1  -0.032186  0  -0.094308  -0.138834  0  4.000022  0
C  C37  1  0.15912955  0.19651988  0.42369229  1  -0.032327  0  -0.094286  -0.13871  0  4.00013  0
C  C38  1  0.15912336  0.80348180  0.42368946  1  -0.03259  0  -0.094364  -0.138987  0  4.000139  0
C  C39  1  0.84087426  0.80347886  0.57631074  1  -0.032895  0  -0.094321  -0.138893  0  4.000161  0
C  C40  1  0.77385731  0.26963103  0.42419412  1  0.01695  0  -0.083684  -0.080181  0  3.980563  0
C  C41  1  0.22614249  0.26963550  0.57580584  1  0.017041  0  -0.083611  -0.080021  0  3.98084  0
C  C42  1  0.22614478  0.73036455  0.57580387  1  0.016987  0  -0.083682  -0.080148  0  3.980616  0
C  C43  1  0.77385440  0.73036892  0.42419718  1  0.017159  0  -0.083664  -0.080019  0  3.980717  0
C  C44  1  0.77319914  0.26925146  0.57628648  1  -0.021898  0  -0.084039  -0.081282  0  3.980333  0
C  C45  1  0.22680326  0.26924818  0.42371349  1  -0.021574  0  -0.084043  -0.081327  0  3.980304  0
C  C46  1  0.22679862  0.73075233  0.42371151  1  -0.021819  0  -0.084023  -0.081252  0  3.980227  0
C  C47  1  0.77319796  0.73074866  0.57628702  1  -0.021627  0  -0.084039  -0.081241  0  3.980415  0
C  C48  1  0.87400932  0.15885395  0.50024973  1  0.029111  0  -0.010409  0.082609  0  4.026325  0
C  C49  1  0.12599454  0.15885473  0.49975184  1  0.029143  0  -0.010353  0.082539  0  4.026418  0
C  C50  1  0.12599190  0.84114541  0.49974953  1  0.029839  0  -0.01041  0.082599  0  4.026269  0
C  C51  1  0.87400928  0.84114590  0.50025245  1  0.029861  0  -0.010392  0.082651  0  4.02625  0
C  C52  1  0.65753392  0.38009606  0.49984612  1  1.567342  0  0.213818  0.592363  0  4.170893  0
C  C53  1  0.34246875  0.38009838  0.50014281  1  1.566911  0  0.213912  0.592601  0  4.170626  0
C  C54  1  0.34246818  0.61990394  0.50014244  1  1.566914  0  0.213826  0.592503  0  4.170651  0
C  C55  1  0.65752988  0.61990225  0.49984763  1  1.567358  0  0.213992  0.592614  0  4.17037  0
C  C56  1  0.84152306  0.19695521  0.42420483  1  -0.063791  0  -0.094106  -0.13829  0  4.001029  0
C  C57  1  0.15847742  0.19696022  0.57579787  1  -0.063769  0  -0.094068  -0.13827  0  4.001173  0
C  C58  1  0.15847556  0.80304226  0.57579442  1  -0.063881  0  -0.094104  -0.138246  0  4.000859  0
C  C59  1  0.84152206  0.80304357  0.42420578  1  -0.063786  0  -0.094115  -0.13836  0  4.001117  0
C  C60  1  0.38804607  0.49999968  0.24742258  1  0.463113  0  0.068909  0.117305  0  3.893601  0
C  C61  1  0.61194562  0.49999969  0.75258232  1  0.463292  0  0.068938  0.117396  0  3.893625  0
C  C62  1  0.58882872  0.49999983  0.23573321  1  0.582187  0  0.06731  0.111918  0  3.904663  0
C  C63  1  0.41117249  0.50000080  0.76427108  1  0.581963  0  0.067387  0.112047  0  3.904362  0
C  C64  1  0.58368005  0.49999933  0.14853449  1  -0.024517  0  -0.070525  -0.183649  0  3.915635  0
C  C65  1  0.41631683  0.49999941  0.85147168  1  -0.024553  0  -0.070529  -0.183591  0  3.915478  0
C  C66  1  0.47416397  0.49999995  0.11000015  1  0.292136  0  0.105362  0.19997  0  4.031524  0
C  C67  1  0.52583119  0.49999942  0.89000412  1  0.292417  0  0.105343  0.199821  0  4.031732  0
C  C68  1  0.37493169  0.49999917  0.16039949  1  0.009617  0  -0.064584  -0.180027  0  3.913704  0
C  C69  1  0.62506519  0.50000019  0.83960605  1  0.009262  0  -0.064607  -0.180033  0  3.913646  0
Br  Br70  1  0.71524940  0.99999868  0.49977848  1  -0.056676  0  0.02291  -0.063601  0  1.424341  0
Br  Br71  1  0.28475390  0.99999209  0.50021358  1  -0.057814  0  0.022874  -0.063622  0  1.424264  0
N  N72  1  0.49295021  0.50000032  0.28395994  1  -1.232654  0  -0.307513  -0.17718  0  3.488407  0
N  N73  1  0.50705187  0.49999967  0.71604498  1  -1.23209  0  -0.307551  -0.177271  0  3.488464  0
N  N74  1  0.45435727  0.50000007  0.02182118  1  -0.440167  0  -0.131439  -0.118099  0  3.236222  0
N  N75  1  0.54563615  0.49999993  0.97818372  1  -0.482867  0  -0.131341  -0.117923  0  3.236098  0
O  O76  1  0.62484622  0.40853989  0.57099612  1  -1.164232  0  -0.320191  -0.555411  0  2.326724  0
O  O77  1  0.37515220  0.40853805  0.42898956  1  -1.164186  0  -0.320264  -0.555502  0  2.326576  0
O  O78  1  0.37515155  0.59146390  0.42898928  1  -1.164157  0  -0.320214  -0.555433  0  2.326562  0
O  O79  1  0.62484384  0.59145753  0.57099898  1  -1.164342  0  -0.320263  -0.55551  0  2.326651  0
O  O80  1  0.62573415  0.40825165  0.42824595  1  -1.16303  0  -0.321848  -0.551418  0  2.32001  0
O  O81  1  0.37427553  0.40825695  0.57173850  1  -1.16265  0  -0.32194  -0.55153  0  2.320026  0
O  O82  1  0.37427229  0.59174582  0.57173884  1  -1.162619  0  -0.32191  -0.55155  0  2.31997  0
O  O83  1  0.62572831  0.59174684  0.42824817  1  -1.162938  0  -0.321901  -0.551473  0  2.319824  0
