# generated using pymatgen
data_CoH16C8(N3O2)2
_symmetry_space_group_name_H-M   'P 1'
_cell_length_a   7.18312357
_cell_length_b   7.18307647
_cell_length_c   12.48651690
_cell_angle_alpha   101.16395640
_cell_angle_beta   101.16328416
_cell_angle_gamma   100.35051767
_symmetry_Int_Tables_number   1
_chemical_formula_structural   CoH16C8(N3O2)2
_chemical_formula_sum   'Co2 H32 C16 N12 O8'
_cell_volume   604.12701019
_cell_formula_units_Z   2
loop_
 _symmetry_equiv_pos_site_id
 _symmetry_equiv_pos_as_xyz
  1  'x, y, z'
loop_
 _atom_site_type_symbol
 _atom_site_label
 _atom_site_symmetry_multiplicity
 _atom_site_fract_x
 _atom_site_fract_y
 _atom_site_fract_z
 _atom_site_occupancy
 _atom_site_hle17_ddec_charge
 _atom_site_hle17_ddec_spin_density
 _atom_site_hle17_ddec_sum_bond_order
 _atom_site_hle17_magmom
 _atom_site_hse06_10hf_ddec_charge
 _atom_site_hse06_10hf_ddec_spin_density
 _atom_site_hse06_10hf_ddec_sum_bond_order
 _atom_site_hse06_10hf_magmom
 _atom_site_hse06_ddec_charge
 _atom_site_hse06_ddec_spin_density
 _atom_site_hse06_ddec_sum_bond_order
 _atom_site_hse06_magmom
 _atom_site_pbe_cm5_charge
 _atom_site_pbe_ddec_charge
 _atom_site_pbe_ddec_spin_density
 _atom_site_pbe_ddec_sum_bond_order
 _atom_site_pbe_magmom
Co  Co0  1  0.00000068  0.00000291  0.00000120  1  1.047262  2.871683  2.002147  2.586  1.017778  2.858199  2.399617  2.652  1.089242  2.904624  2.336674  2.725  0.673181  0.950675  2.806519  2.459005  2.577
Co  Co1  1  0.00000446  0.00000167  0.49999855  1  1.047282  -2.871684  2.00217  -2.586  1.017793  -2.858198  2.399665  -2.652  1.089269  -2.904619  2.336716  -2.725  0.673164  0.950642  -2.806512  2.459145  -2.577
H  H2  1  0.65663021  0.97723005  0.84873186  1  0.380164  0.000232  0.927752  0.001  0.341413  0.00044  1.018179  0.001  0.352813  0.000269  1.002457  0.001  0.285397  0.333072  0.000602  1.027803  0.002
H  H3  1  0.02277382  0.34337267  0.65126676  1  0.380198  -0.000232  0.92767  -0.001  0.34141  -0.000441  1.018185  -0.001  0.352813  -0.000269  1.002458  -0.001  0.285373  0.333071  -0.000602  1.027797  -0.002
H  H4  1  0.34336935  0.02276932  0.15126787  1  0.380147  0.000232  0.927718  0.001  0.341385  0.00044  1.018207  0.001  0.352782  0.000269  1.002489  0.001  0.285376  0.333043  0.000602  1.027792  0.002
H  H5  1  0.97722892  0.65662814  0.34873268  1  0.38014  -0.000232  0.927764  -0.001  0.341383  -0.000441  1.018217  -0.001  0.352785  -0.000269  1.002492  -0.001  0.285368  0.33304  -0.000602  1.027832  -0.002
H  H6  1  0.75454639  0.20328931  0.90271230  1  0.41594  0.000123  0.886168  0.0  0.389745  0.000399  0.942754  0.001  0.400313  0.000211  0.927504  0.0  0.294217  0.381824  0.000575  0.954116  0.001
H  H7  1  0.79671598  0.24545180  0.59728816  1  0.415921  -0.000123  0.886207  0.0  0.389748  -0.000399  0.942748  -0.001  0.400318  -0.000212  0.927497  0.0  0.294229  0.381826  -0.000576  0.95411  -0.001
H  H8  1  0.24545102  0.79671300  0.09729071  1  0.415943  0.000124  0.886167  0.0  0.389752  0.000399  0.942744  0.001  0.400319  0.000212  0.927495  0.0  0.294221  0.381827  0.000576  0.954108  0.001
H  H9  1  0.20328892  0.75454607  0.40270959  1  0.415964  -0.000123  0.886128  0.0  0.389769  -0.000399  0.942714  -0.001  0.40034  -0.000212  0.927459  0.0  0.294219  0.381847  -0.000575  0.954073  -0.001
H  H10  1  0.10190456  0.58930420  0.87694246  1  0.074992  -0.000167  0.924538  0.0  0.08687  -0.000104  0.989943  0.0  0.086451  -9.7e-05  0.990477  0.0  0.121544  0.08718  -0.000105  0.98964  0.0
H  H11  1  0.41070062  0.89810395  0.62305659  1  0.074913  0.000168  0.924562  0.0  0.086775  0.000104  0.989986  0.0  0.086357  9.7e-05  0.990517  0.0  0.121469  0.087076  0.000105  0.989668  0.0
H  H12  1  0.89809359  0.41069518  0.12305871  1  0.074967  -0.000169  0.924591  0.0  0.086838  -0.000104  0.989995  0.0  0.086419  -9.7e-05  0.990531  0.0  0.12155  0.087151  -0.000105  0.989689  0.0
H  H13  1  0.58929821  0.10189835  0.37694258  1  0.074924  0.000167  0.92462  0.0  0.086807  0.000104  0.990041  0.0  0.086389  9.7e-05  0.990572  0.0  0.121544  0.087116  0.000105  0.989732  0.0
H  H14  1  0.89383885  0.60884537  0.77814900  1  0.080745  -7.4e-05  0.909255  0.0  0.095612  -9.6e-05  0.967478  0.0  0.095868  -8.7e-05  0.967157  0.0  0.124813  0.095352  -0.000102  0.96792  0.0
H  H15  1  0.39115182  0.10616578  0.72185047  1  0.080743  7.4e-05  0.909303  0.0  0.095603  9.6e-05  0.967494  0.0  0.09586  8.7e-05  0.967176  0.0  0.124789  0.095332  0.000102  0.967928  0.0
H  H16  1  0.10616140  0.39115691  0.22185193  1  0.080738  -7.4e-05  0.909209  0.0  0.095604  -9.6e-05  0.967431  0.0  0.095861  -8.7e-05  0.967112  0.0  0.124814  0.095343  -0.000102  0.967875  0.0
H  H17  1  0.60884497  0.89382778  0.27814829  1  0.080702  7.4e-05  0.909159  0.0  0.095552  9.6e-05  0.967411  0.0  0.095808  8.7e-05  0.967095  0.0  0.124768  0.095287  0.000102  0.967847  0.0
H  H18  1  0.08843057  0.11331247  0.77885078  1  0.08806  2e-05  0.914531  0.0  0.100023  5.9e-05  0.976242  0.0  0.100785  5.5e-05  0.975203  0.0  0.123698  0.099445  5.7e-05  0.977075  0.0
H  H19  1  0.88668320  0.91156366  0.72114508  1  0.088077  -2.1e-05  0.914261  0.0  0.100007  -5.9e-05  0.976058  0.0  0.100768  -5.5e-05  0.975022  0.0  0.123681  0.099431  -5.8e-05  0.976886  0.0
H  H20  1  0.91156582  0.88668547  0.22114923  1  0.088175  2.1e-05  0.914354  0.0  0.100077  5.9e-05  0.976096  0.0  0.100836  5.4e-05  0.975061  0.0  0.123723  0.099494  5.7e-05  0.976928  0.0
H  H21  1  0.11331319  0.08843428  0.27885333  1  0.088159  -2.2e-05  0.914404  0.0  0.100063  -5.9e-05  0.97615  0.0  0.100823  -5.5e-05  0.975114  0.0  0.123717  0.099486  -5.8e-05  0.976982  0.0
H  H22  1  0.91535754  0.63161597  0.59172736  1  0.084694  4.1e-05  0.93764  0.0  0.094414  -3e-06  1.00708  0.0  0.09501  1.9e-05  1.006369  0.0  0.121397  0.093886  -2.7e-05  1.007853  0.0
H  H23  1  0.36838003  0.08464624  0.90826949  1  0.084653  -4.1e-05  0.937729  0.0  0.094367  3e-06  1.007127  0.0  0.094961  -1.9e-05  1.006423  0.0  0.121368  0.093838  2.7e-05  1.007914  0.0
H  H24  1  0.08464095  0.36838487  0.40827241  1  0.084723  4.3e-05  0.937595  0.0  0.094418  -3e-06  1.007046  0.0  0.095016  1.9e-05  1.006334  0.0  0.121405  0.093893  -2.7e-05  1.007814  0.0
H  H25  1  0.63161676  0.91534732  0.09172928  1  0.084596  -4.1e-05  0.937715  0.0  0.094325  3e-06  1.007115  0.0  0.094915  -1.9e-05  1.006426  0.0  0.121365  0.093803  2.8e-05  1.007876  0.0
H  H26  1  0.14152637  0.62517529  0.55157098  1  0.073384  0.00018  0.952034  0.0  0.083439  0.000145  1.024079  0.0  0.083645  0.00014  1.024015  0.0  0.121183  0.083299  0.000144  1.024117  0.0
H  H27  1  0.37482603  0.85848272  0.94843174  1  0.073332  -0.00018  0.951937  0.0  0.083392  -0.000146  1.023971  0.0  0.083599  -0.00014  1.023909  0.0  0.121179  0.083251  -0.000144  1.024011  0.0
H  H28  1  0.85847603  0.37482406  0.44842826  1  0.073396  0.000178  0.952127  0.0  0.083471  0.000145  1.024106  0.0  0.083679  0.00014  1.024044  0.0  0.121195  0.083332  0.000144  1.024149  0.0
H  H29  1  0.62517427  0.14151373  0.05157094  1  0.073398  -0.000179  0.952077  0.0  0.083421  -0.000146  1.024132  0.0  0.083629  -0.00014  1.02407  0.0  0.121212  0.083281  -0.000144  1.024175  0.0
H  H30  1  0.41812547  0.59458103  0.67972203  1  0.078683  0.00012  0.921619  0.0  0.090837  6.6e-05  0.988158  0.0  0.090985  4.4e-05  0.987931  0.0  0.121206  0.090673  8.9e-05  0.988414  0.0
H  H31  1  0.40542506  0.58188047  0.82027996  1  0.078685  -0.00012  0.921562  0.0  0.090877  -6.6e-05  0.988049  0.0  0.091024  -4.4e-05  0.987826  0.0  0.12122  0.090714  -8.8e-05  0.988305  0.0
H  H32  1  0.58186984  0.40541838  0.32027803  1  0.078686  0.00012  0.921572  0.0  0.090841  6.6e-05  0.988099  0.0  0.090993  4.4e-05  0.98787  0.0  0.121195  0.090678  8.9e-05  0.988356  0.0
H  H33  1  0.59457343  0.41812037  0.17972061  1  0.078676  -0.00012  0.921625  0.0  0.090851  -6.6e-05  0.988123  0.0  0.090994  -4.4e-05  0.987906  0.0  0.121209  0.090688  -8.8e-05  0.988379  0.0
C  C34  1  0.73746684  0.57241821  0.95761309  1  0.597128  -0.000176  4.089295  0.002  0.562121  0.003068  4.395589  0.006  0.597504  0.002316  4.395297  0.005  0.258063  0.536446  0.003658  4.395398  0.007
C  C35  1  0.42758600  0.26253760  0.54238750  1  0.597075  0.000175  4.089164  -0.002  0.562077  -0.003068  4.395472  -0.006  0.597462  -0.002317  4.395175  -0.005  0.258019  0.536404  -0.00366  4.395276  -0.007
C  C36  1  0.26253941  0.42758548  0.04239587  1  0.597149  -0.000174  4.089502  0.002  0.56214  0.003069  4.395797  0.006  0.597522  0.002317  4.395508  0.005  0.258031  0.536471  0.00366  4.395608  0.007
C  C37  1  0.57241997  0.73745881  0.45760781  1  0.597217  0.000174  4.089347  -0.002  0.562211  -0.00307  4.395637  -0.006  0.597598  -0.002319  4.395342  -0.005  0.258095  0.536544  -0.003661  4.395439  -0.007
C  C38  1  0.05297223  0.65373047  0.80672608  1  0.087424  -0.001065  3.601425  -0.002  0.019577  -0.000471  3.860432  -0.001  0.028578  -0.000575  3.870444  -0.001  0.024879  0.013101  -0.000383  3.853353  -0.001
C  C39  1  0.34626927  0.94703610  0.69327352  1  0.087413  0.001065  3.601428  0.002  0.019633  0.000471  3.860317  0.001  0.028628  0.000574  3.870339  0.001  0.024987  0.013222  0.000384  3.853145  0.001
C  C40  1  0.94702309  0.34626894  0.19327238  1  0.087433  -0.001064  3.601371  -0.002  0.019573  -0.000471  3.860347  -0.001  0.028564  -0.000575  3.870371  -0.001  0.024866  0.013096  -0.000384  3.853268  -0.001
C  C41  1  0.65372808  0.05297204  0.30673014  1  0.087622  0.001066  3.601082  0.002  0.01976  0.000471  3.860118  0.001  0.02875  0.000573  3.870144  0.001  0.024938  0.0133  0.000383  3.853009  0.001
C  C42  1  0.04539897  0.95461433  0.75000089  1  0.08115  -0.0  3.585844  0.0  0.013043  0.0  3.851483  0.0  0.022326  -0.0  3.860474  0.0  0.017728  0.006462  -0.0  3.844313  0.0
C  C43  1  0.95460689  0.04539375  0.25000051  1  0.080785  1e-06  3.586173  0.0  0.012824  -0.0  3.85159  0.0  0.022113  1e-06  3.860571  0.0  0.01763  0.006248  -0.0  3.84441  0.0
C  C44  1  0.07459524  0.67458525  0.62030080  1  0.058141  0.001396  3.625239  0.003  -0.012896  0.000342  3.887083  0.001  -0.004479  0.000459  3.896931  0.001  0.015344  -0.018659  0.000224  3.879643  0.001
C  C45  1  0.32541320  0.92542472  0.87969675  1  0.058198  -0.001395  3.62489  -0.003  -0.012823  -0.000342  3.886813  -0.001  -0.004373  -0.000457  3.896584  -0.001  0.015412  -0.018589  -0.000224  3.879388  -0.001
C  C46  1  0.92540076  0.32541707  0.37969886  1  0.058047  0.001399  3.62523  0.003  -0.012937  0.000342  3.887053  0.001  -0.004503  0.00046  3.896853  0.001  0.015325  -0.018698  0.000224  3.879615  0.001
C  C47  1  0.67458127  0.07458929  0.12030244  1  0.058262  -0.001393  3.625135  -0.003  -0.012768  -0.000342  3.887027  -0.001  -0.004312  -0.000457  3.896768  -0.001  0.015385  -0.018532  -0.000224  3.879593  -0.001
C  C48  1  0.35435171  0.64565905  0.74999809  1  0.093102  -0.0  3.587225  0.0  0.019741  0.0  3.848856  0.0  0.028383  0.0  3.858383  0.0  0.02618  0.013805  0.0  3.842368  0.0
C  C49  1  0.64564995  0.35434322  0.25000059  1  0.093136  1e-06  3.587172  0.0  0.019785  -0.0  3.848837  0.0  0.028423  -1e-06  3.858367  0.0  0.026197  0.013848  0.0  3.842352  0.0
N  N50  1  0.82445838  0.73827121  0.98529113  1  -0.728946  0.033602  2.969642  0.048  -0.712495  0.023403  3.286632  0.029  -0.743172  0.019726  3.282628  0.023  -0.449769  -0.687678  0.027045  3.289574  0.034
N  N51  1  0.26172974  0.17554100  0.51470236  1  -0.728991  -0.033604  2.969614  -0.048  -0.712538  -0.023406  3.286585  -0.029  -0.743221  -0.019728  3.282597  -0.023  -0.449796  -0.687709  -0.027047  3.289521  -0.034
N  N52  1  0.17554328  0.26173106  0.01470995  1  -0.728974  0.033606  2.969776  0.048  -0.712529  0.023405  3.286766  0.029  -0.74321  0.019727  3.282767  0.023  -0.449743  -0.687716  0.027047  3.289723  0.034
N  N53  1  0.73827906  0.82445537  0.48529566  1  -0.729018  -0.033603  2.969529  -0.048  -0.712574  -0.023404  3.286526  -0.029  -0.743253  -0.019726  3.282523  -0.023  -0.449783  -0.68775  -0.027046  3.289469  -0.034
N  N54  1  0.11033833  0.86848677  0.84558312  1  -0.273207  0.032357  3.209455  0.056  -0.210543  0.024983  3.471824  0.041  -0.234314  0.020298  3.491277  0.033  -0.331071  -0.190804  0.028857  3.456087  0.046
N  N55  1  0.13151215  0.88966140  0.65441510  1  -0.273228  -0.032356  3.209514  -0.056  -0.210506  -0.024982  3.471914  -0.041  -0.234281  -0.020293  3.491381  -0.033  -0.331089  -0.190778  -0.028856  3.456161  -0.046
N  N56  1  0.88965841  0.13151262  0.15441709  1  -0.273209  0.032357  3.209451  0.056  -0.210453  0.024983  3.471683  0.041  -0.234222  0.020296  3.491141  0.033  -0.331068  -0.190716  0.028858  3.455945  0.046
N  N57  1  0.86848566  0.11033653  0.34558347  1  -0.273189  -0.032358  3.209381  -0.056  -0.210529  -0.024983  3.471718  -0.041  -0.234301  -0.020295  3.491177  -0.033  -0.331074  -0.190792  -0.028859  3.455977  -0.046
N  N58  1  0.13997570  0.58399529  0.71301143  1  -0.27244  -0.00058  3.170516  -0.001  -0.188658  -0.000575  3.40253  -0.001  -0.205667  -0.000347  3.419093  -0.001  -0.332988  -0.17656  -0.000911  3.390903  -0.002
N  N59  1  0.41600642  0.86003146  0.78698779  1  -0.272229  0.00058  3.170545  0.001  -0.188512  0.000576  3.402549  0.001  -0.205519  0.000344  3.419119  0.001  -0.332982  -0.176434  0.000911  3.390915  0.002
N  N60  1  0.86002528  0.41600407  0.28698925  1  -0.272388  -0.000581  3.170567  -0.001  -0.188655  -0.000575  3.402588  -0.001  -0.205663  -0.000348  3.419158  -0.001  -0.332996  -0.176556  -0.000911  3.390961  -0.002
N  N61  1  0.58399349  0.13996937  0.21301133  1  -0.272374  0.000577  3.17051  0.001  -0.188613  0.000575  3.402507  0.001  -0.205613  0.000345  3.419078  0.001  -0.332982  -0.176522  0.000911  3.390874  0.002
O  O62  1  0.64662108  0.40211168  0.92888577  1  -0.539893  0.003997  2.048515  0.007  -0.492491  0.002436  2.26305  0.005  -0.514107  0.001404  2.251171  0.003  -0.28248  -0.477266  0.003842  2.27168  0.007
O  O63  1  0.59789639  0.35337263  0.57110821  1  -0.539815  -0.003998  2.048465  -0.007  -0.492442  -0.002437  2.263006  -0.005  -0.514056  -0.001406  2.251126  -0.003  -0.282423  -0.477224  -0.003844  2.271636  -0.007
O  O64  1  0.35337389  0.59788626  0.07111969  1  -0.539874  0.003999  2.048601  0.007  -0.492481  0.002437  2.263138  0.005  -0.514093  0.001404  2.251257  0.003  -0.282492  -0.477258  0.003843  2.271766  0.007
O  O65  1  0.40211452  0.64662665  0.42888637  1  -0.539926  -0.004  2.04875  -0.007  -0.492523  -0.002437  2.263277  -0.005  -0.514138  -0.001405  2.251394  -0.003  -0.282492  -0.477308  -0.003844  2.271906  -0.007
O  O66  1  0.78407320  0.07262104  0.88829961  1  -0.815679  0.030948  2.028483  0.049  -0.772324  0.030008  2.259221  0.044  -0.800278  0.02443  2.224967  0.036  -0.573983  -0.74885  0.035325  2.282269  0.052
O  O67  1  0.92738425  0.21592593  0.61169889  1  -0.815664  -0.03095  2.028514  -0.049  -0.772285  -0.030008  2.25926  -0.044  -0.800248  -0.024429  2.225009  -0.036  -0.573943  -0.748812  -0.035325  2.282314  -0.052
O  O68  1  0.21592603  0.92737688  0.11169912  1  -0.815646  0.030947  2.028481  0.049  -0.772279  0.030007  2.259249  0.044  -0.800242  0.024429  2.225021  0.036  -0.573955  -0.748809  0.035324  2.282266  0.052
O  O69  1  0.07261962  0.78406757  0.38829826  1  -0.81565  -0.030946  2.028425  -0.049  -0.77229  -0.030006  2.259175  -0.044  -0.800252  -0.024428  2.224923  -0.036  -0.573962  -0.748824  -0.035323  2.282231  -0.052
