# generated using pymatgen
data_CuH14C20N2O5
_symmetry_space_group_name_H-M   'P 1'
_cell_length_a   6.87026244
_cell_length_b   9.95199547
_cell_length_c   31.15356675
_cell_angle_alpha   89.99917470
_cell_angle_beta   90.00104704
_cell_angle_gamma   99.57599420
_symmetry_Int_Tables_number   1
_chemical_formula_structural   CuH14C20N2O5
_chemical_formula_sum   'Cu4 H56 C80 N8 O20'
_cell_volume   2100.37663985
_cell_formula_units_Z   4
loop_
 _symmetry_equiv_pos_site_id
 _symmetry_equiv_pos_as_xyz
  1  'x, y, z'
loop_
 _atom_site_type_symbol
 _atom_site_label
 _atom_site_symmetry_multiplicity
 _atom_site_fract_x
 _atom_site_fract_y
 _atom_site_fract_z
 _atom_site_occupancy
 _atom_site_pbe_bader_charge
 _atom_site_pbe_bader_spin_density
 _atom_site_pbe_cm5_charge
 _atom_site_pbe_ddec_charge
 _atom_site_pbe_ddec_spin_density
 _atom_site_pbe_ddec_sum_bond_order
 _atom_site_pbe_magmom
Cu  Cu0  1  0.82250485  0.91005272  0.38215356  1  1.088628  -0.56396  0.746238  0.801862  -0.740554  2.296426  -0.563
Cu  Cu1  1  0.82244638  0.41006193  0.11785211  1  1.088645  -0.563929  0.746144  0.801763  -0.740511  2.296621  -0.563
Cu  Cu2  1  0.17751069  0.08994756  0.61784595  1  1.088657  -0.563981  0.746244  0.801839  -0.740572  2.296179  -0.563
Cu  Cu3  1  0.17754489  0.58993420  0.88214900  1  1.08861  0.563957  0.746235  0.801852  0.786276  2.296423  0.563
H  H4  1  0.55673244  0.96516486  0.33475252  1  0.647234  -2.2e-05  0.274942  0.370831  -5e-06  0.980485  0.0
H  H5  1  0.55669988  0.46517552  0.16525241  1  0.647189  -2.2e-05  0.274936  0.370763  -6e-06  0.980543  0.0
H  H6  1  0.44329741  0.03484055  0.66524827  1  0.647273  -2.1e-05  0.274928  0.370816  -3e-06  0.980561  0.0
H  H7  1  0.44329402  0.53483182  0.83474710  1  0.647155  2.2e-05  0.274931  0.370797  1.2e-05  0.98053  0.0
H  H8  1  0.39535887  0.87087439  0.36460356  1  0.636991  9.9e-05  0.280852  0.388242  5.1e-05  0.946584  0.0
H  H9  1  0.39530695  0.37089317  0.13540210  1  0.636707  9.9e-05  0.280896  0.388161  5.3e-05  0.946641  0.0
H  H10  1  0.60465808  0.12913811  0.63539595  1  0.636878  9.8e-05  0.280879  0.38819  4.9e-05  0.946576  0.0
H  H11  1  0.60467650  0.62911922  0.86459805  1  0.636683  -9.7e-05  0.280847  0.388166  -5e-05  0.946662  0.0
H  H12  1  0.73700998  0.61547583  0.41584108  1  0.146302  -0.002143  0.126662  0.103041  -0.001006  0.985756  -0.001
H  H13  1  0.73701832  0.11548950  0.08416981  1  0.146062  -0.00214  0.126649  0.10297  -0.001003  0.98602  -0.001
H  H14  1  0.26297783  0.38453658  0.58415490  1  0.146378  -0.002143  0.126696  0.103034  -0.001006  0.98566  -0.001
H  H15  1  0.26299041  0.88451279  0.91583195  1  0.146143  0.00214  0.126625  0.102959  0.001068  0.985959  0.001
H  H16  1  0.65841076  0.51246518  0.48927159  1  0.04683  -0.001004  0.100649  0.097911  -0.000513  1.057377  0.0
H  H17  1  0.65839898  0.01244882  0.01074395  1  0.046576  -0.000973  0.100637  0.097926  -0.000494  1.057351  0.0
H  H18  1  0.34158586  0.48752893  0.51072471  1  0.046545  -0.001003  0.10067  0.097963  -0.000513  1.057532  0.0
H  H19  1  0.34159790  0.98754020  0.98925973  1  0.046618  0.000973  0.100639  0.097919  0.000523  1.057402  0.0
H  H20  1  0.62995340  0.66634380  0.55194842  1  0.090793  1.2e-05  0.116784  0.120102  8e-06  0.969184  0.0
H  H21  1  0.62994311  0.16631084  0.94806124  1  0.090744  9e-06  0.116719  0.120014  7e-06  0.96916  0.0
H  H22  1  0.37005460  0.33366154  0.44804692  1  0.090337  1.1e-05  0.116697  0.119989  7e-06  0.969146  0.0
H  H23  1  0.37004045  0.83367101  0.05194245  1  0.090761  -1e-05  0.116773  0.120047  -1e-06  0.969152  0.0
H  H24  1  0.65317022  0.91568874  0.57970649  1  0.117749  -0.000476  0.116355  0.136643  -0.00024  0.97689  0.0
H  H25  1  0.65317808  0.41566803  0.92029180  1  0.117707  -0.000527  0.116403  0.136733  -0.000282  0.976695  0.0
H  H26  1  0.34683438  0.08431456  0.42029045  1  0.117603  -0.000476  0.116396  0.136773  -0.000239  0.976689  0.0
H  H27  1  0.34678239  0.58432088  0.07970803  1  0.118103  0.000526  0.116372  0.136729  0.000298  0.97677  0.0
H  H28  1  0.73534194  0.15849045  0.56452722  1  0.1799  -0.000458  0.112814  0.14141  -0.000273  1.029634  0.0
H  H29  1  0.73535784  0.65846801  0.93546590  1  0.180064  -0.000349  0.112815  0.141493  -0.000151  1.029467  0.0
H  H30  1  0.26466897  0.84151491  0.43547132  1  0.179962  -0.000468  0.112831  0.141485  -0.000283  1.029491  0.0
H  H31  1  0.26461331  0.34152297  0.06453264  1  0.179715  0.000339  0.112853  0.141468  0.000155  1.029471  0.0
H  H32  1  0.83149514  0.35046145  0.50960035  1  0.086846  -7.3e-05  0.109163  0.109635  -4.8e-05  0.992306  0.0
H  H33  1  0.83149205  0.85045125  0.99039483  1  0.086909  -4e-05  0.109199  0.109663  -1.2e-05  0.992405  0.0
H  H34  1  0.16850435  0.64954488  0.49039948  1  0.086936  -7.3e-05  0.10916  0.109614  -4.9e-05  0.99236  0.0
H  H35  1  0.16847886  0.14953870  0.00960339  1  0.086612  3.9e-05  0.109135  0.109576  1.8e-05  0.992376  0.0
H  H36  1  0.91890288  0.41599879  0.43282490  1  0.076432  -0.001046  0.111635  0.117114  -0.000552  0.994781  0.0
H  H37  1  0.91890977  0.91599352  0.06716863  1  0.076422  -0.001046  0.111637  0.117113  -0.000548  0.994917  0.0
H  H38  1  0.08108830  0.58402178  0.56717364  1  0.076503  -0.001044  0.111626  0.117126  -0.000551  0.995074  0.0
H  H39  1  0.08107981  0.08400159  0.93282767  1  0.076354  0.001045  0.111625  0.117086  0.000578  0.994903  0.0
H  H40  1  0.92526133  0.22995541  0.37803613  1  0.152394  -0.002138  0.136367  0.11734  -0.001029  0.956125  -0.002
H  H41  1  0.92523734  0.72995522  0.12196121  1  0.152239  -0.002136  0.136371  0.117335  -0.001025  0.956134  -0.002
H  H42  1  0.07473719  0.77005296  0.62196659  1  0.152341  -0.002143  0.136323  0.117331  -0.001031  0.955921  -0.002
H  H43  1  0.07474591  0.27004394  0.87803638  1  0.152456  0.002136  0.136391  0.117381  0.00109  0.95601  0.002
H  H44  1  0.81086154  0.64602509  0.27748846  1  0.091362  -0.000407  0.108471  0.117808  -0.000295  1.011799  0.0
H  H45  1  0.81084812  0.14602358  0.22252291  1  0.091245  -0.000407  0.108515  0.11782  -0.000295  1.011905  0.0
H  H46  1  0.18913587  0.35395375  0.72251458  1  0.091654  -0.000234  0.10843  0.117716  -0.000249  1.011696  0.0
H  H47  1  0.18916353  0.85397872  0.77748783  1  0.091184  0.000234  0.108485  0.117828  0.000267  1.011734  0.0
H  H48  1  0.25583426  0.48637034  0.20554535  1  0.093292  -0.000172  0.104073  0.108889  -0.000151  1.012645  0.0
H  H49  1  0.25585933  0.98636620  0.29445886  1  0.093276  -0.000172  0.104078  0.108938  -0.00015  1.012655  0.0
H  H50  1  0.74416717  0.51363804  0.79445191  1  0.093208  0.000164  0.104166  0.109013  0.000156  1.012694  0.0
H  H51  1  0.74414925  0.01361064  0.70554354  1  0.093468  -0.000165  0.104092  0.108986  -0.000145  1.012754  0.0
H  H52  1  0.48987262  0.53600317  0.26606881  1  0.120355  -0.000288  0.100678  0.109356  -0.000126  1.036704  0.0
H  H53  1  0.48986650  0.03601655  0.23393275  1  0.120295  -0.000288  0.100609  0.109272  -0.000126  1.036772  0.0
H  H54  1  0.51014240  0.46400729  0.73392813  1  0.120442  -0.000197  0.100687  0.109344  -0.000112  1.036729  0.0
H  H55  1  0.51013984  0.96397555  0.76606772  1  0.119914  0.000197  0.100583  0.109327  0.000118  1.036629  0.0
H  H56  1  0.38529994  0.64633783  0.33279616  1  0.073318  -2.2e-05  0.097838  0.098152  1.3e-05  1.019951  0.0
H  H57  1  0.38525557  0.14636569  0.16720925  1  0.073469  -2.1e-05  0.097735  0.098019  1.2e-05  1.019983  0.0
H  H58  1  0.61471099  0.35366142  0.66720431  1  0.073299  3e-06  0.097842  0.098139  2.1e-05  1.020004  0.0
H  H59  1  0.61474008  0.85363046  0.83279379  1  0.073303  -4e-06  0.097749  0.098065  -1.6e-05  1.020004  0.0
C  C60  1  0.72691547  0.67778842  0.44433267  1  0.494998  0.003683  0.060366  0.110796  0.001975  3.920325  0.003
C  C61  1  0.72691554  0.17778882  0.05567980  1  0.494635  0.003633  0.060411  0.110865  0.001925  3.91986  0.003
C  C62  1  0.27308307  0.32221385  0.55566331  1  0.495899  0.003687  0.060272  0.110757  0.001978  3.920087  0.003
C  C63  1  0.27308763  0.82220837  0.94432259  1  0.494818  -0.00364  0.060384  0.110892  -0.001632  3.920323  -0.003
C  C64  1  0.68169657  0.62253416  0.48531389  1  -0.011117  -0.004673  -0.092198  -0.147978  -0.003212  4.015699  -0.004
C  C65  1  0.68169887  0.12252687  0.01469545  1  -0.010555  -0.004772  -0.092407  -0.148306  -0.003278  4.014903  -0.004
C  C66  1  0.31830558  0.37747728  0.51468081  1  -0.011519  -0.004673  -0.09222  -0.148008  -0.003213  4.015778  -0.004
C  C67  1  0.31831108  0.87747441  0.98530310  1  -0.010633  0.004772  -0.092389  -0.148253  0.003486  4.015432  0.004
C  C68  1  0.66656064  0.70767885  0.51996779  1  -0.037127  0.005116  -0.065378  -0.0832  0.003614  3.947158  0.003
C  C69  1  0.66655663  0.20767430  0.98003701  1  -0.037074  0.00516  -0.06531  -0.083062  0.003623  3.946769  0.003
C  C70  1  0.33344224  0.29232953  0.48003364  1  -0.036421  0.005112  -0.065309  -0.083158  0.003611  3.946998  0.003
C  C71  1  0.33343463  0.79232794  0.01996057  1  -0.036979  -0.005165  -0.065319  -0.083038  -0.003417  3.94679  -0.003
C  C72  1  0.70202446  0.85022272  0.51385458  1  0.005363  -0.003114  -4.3e-05  0.042567  -0.002233  4.01254  -0.003
C  C73  1  0.70202169  0.35019658  0.98614551  1  0.006466  -0.003158  0.000122  0.042839  -0.002264  4.012577  -0.003
C  C74  1  0.29797799  0.14977141  0.48614525  1  0.005602  -0.003113  1.3e-05  0.042784  -0.002233  4.01226  -0.003
C  C75  1  0.29796455  0.64978426  0.01385239  1  0.006325  0.003157  -3e-05  0.042558  0.002405  4.012494  0.003
C  C76  1  0.69336831  0.94891530  0.54701169  1  -0.025284  -0.00057  -0.075461  -0.105943  -0.000353  3.922682  0.0
C  C77  1  0.69337241  0.44889240  0.95298662  1  -0.026017  -0.000908  -0.075508  -0.106064  -0.000681  3.92237  -0.001
C  C78  1  0.30663871  0.05109208  0.45298590  1  -0.02533  -0.000577  -0.075506  -0.106192  -0.000357  3.922453  0.0
C  C79  1  0.30660021  0.55109247  0.04701289  1  -0.025825  0.000901  -0.075462  -0.106045  0.000716  3.922438  0.001
C  C80  1  0.73511858  0.08560866  0.53839716  1  -0.074495  -0.00109  -0.078475  -0.112485  -0.000666  3.914458  -0.001
C  C81  1  0.73511930  0.58559339  0.96160177  1  -0.074358  -0.00109  -0.078517  -0.112519  -0.000816  3.914357  -0.001
C  C82  1  0.26489087  0.91439669  0.46160203  1  -0.074465  -0.001111  -0.078475  -0.112454  -0.000681  3.91458  -0.001
C  C83  1  0.26484408  0.41439552  0.03839838  1  -0.074194  0.001067  -0.078563  -0.112536  0.000847  3.914473  0.001
C  C84  1  0.78783678  0.13461680  0.49602961  1  0.014688  -0.002637  -0.001029  0.046371  -0.001917  4.011254  -0.002
C  C85  1  0.78782999  0.63461170  0.00396727  1  0.013775  -0.002661  -0.001127  0.046177  -0.001925  4.011247  -0.002
C  C86  1  0.21216971  0.86540076  0.50396636  1  0.014218  -0.002637  -0.001039  0.046355  -0.001917  4.011011  -0.002
C  C87  1  0.21215061  0.36538236  0.99603160  1  0.014308  0.002659  -0.001015  0.046345  0.002045  4.011303  0.002
C  C88  1  0.83307206  0.27367612  0.48468044  1  -0.037472  0.003744  -0.068408  -0.087851  0.002639  3.958338  0.002
C  C89  1  0.83305392  0.77367465  0.01531341  1  -0.037428  0.003728  -0.068407  -0.08773  0.002606  3.957955  0.002
C  C90  1  0.16692258  0.72632817  0.51532228  1  -0.037435  0.003743  -0.06835  -0.087861  0.002638  3.957904  0.002
C  C91  1  0.16691744  0.22632345  0.98468353  1  -0.037005  -0.003729  -0.068311  -0.087685  -0.002454  3.958036  -0.002
C  C92  1  0.88131199  0.30957131  0.44254114  1  -0.06349  -0.004541  -0.083384  -0.137563  -0.00311  3.986914  -0.004
C  C93  1  0.88130826  0.80956126  0.05745467  1  -0.063034  -0.004715  -0.083414  -0.137768  -0.00325  3.987104  -0.004
C  C94  1  0.11867174  0.69042989  0.55746190  1  -0.063871  -0.004542  -0.083371  -0.137504  -0.003111  3.987147  -0.004
C  C95  1  0.11867721  0.19042874  0.94254292  1  -0.063534  0.004714  -0.083394  -0.137605  0.003451  3.986961  0.004
C  C96  1  0.88611816  0.20710013  0.41151124  1  0.49599  0.002614  0.072299  0.124137  0.001209  3.882945  0.002
C  C97  1  0.88610153  0.70709912  0.08848636  1  0.496179  0.002498  0.07235  0.124335  0.001119  3.883281  0.002
C  C98  1  0.11389463  0.79291949  0.58848538  1  0.496213  0.002613  0.072309  0.12409  0.001209  3.883287  0.002
C  C99  1  0.11388996  0.29290414  0.91151315  1  0.496285  -0.0025  0.072274  0.124069  -0.000854  3.883098  -0.002
C  C100  1  0.79569042  0.03937773  0.46263946  1  0.472907  -0.00052  0.116867  0.112958  -0.000852  4.004586  0.0
C  C101  1  0.79568234  0.53937449  0.03735952  1  0.47341  -0.000712  0.116938  0.113077  -0.00098  4.004153  -0.001
C  C102  1  0.20432316  0.96062662  0.53736005  1  0.473246  -0.000523  0.116876  0.11308  -0.000854  4.00431  0.0
C  C103  1  0.20430968  0.46061859  0.96263839  1  0.472855  0.000712  0.116808  0.112801  0.0012  4.004477  0.001
C  C104  1  0.75167065  0.89660333  0.47157113  1  0.51477  0.000209  0.118741  0.122165  -0.000427  3.985086  0.0
C  C105  1  0.75166229  0.39658940  0.02842949  1  0.51396  8.9e-05  0.118732  0.122215  -0.000505  3.984714  0.0
C  C106  1  0.24833854  0.10340711  0.52842773  1  0.514481  0.000204  0.118646  0.121911  -0.00043  3.9854  0.0
C  C107  1  0.24832974  0.60339757  0.97156778  1  0.513838  -9.1e-05  0.118775  0.122368  0.000737  3.984876  0.0
C  C108  1  0.03393556  0.72480117  0.34808048  1  1.541691  -0.000925  0.198031  0.564478  -0.00199  4.218909  0.001
C  C109  1  0.03389548  0.22482144  0.15193399  1  1.529134  -0.001006  0.198132  0.564917  -0.001978  4.218985  0.001
C  C110  1  0.96608482  0.27520116  0.65191710  1  1.542092  -0.000539  0.198078  0.564501  -0.001738  4.219  0.001
C  C111  1  0.96610258  0.77517879  0.84807419  1  1.551555  0.00053  0.19828  0.565068  0.002046  4.218483  -0.001
C  C112  1  0.09106149  0.65192196  0.30931571  1  -0.089178  -0.010117  -0.030024  -0.055793  -0.007058  4.011134  -0.008
C  C113  1  0.09103243  0.15193274  0.19069100  1  -0.06692  -0.01001  -0.029951  -0.055852  -0.007048  4.01155  -0.008
C  C114  1  0.90893946  0.34808438  0.69068027  1  -0.088768  -0.007684  -0.030104  -0.05592  -0.005437  4.010954  -0.006
C  C115  1  0.90896028  0.84806951  0.80931333  1  -0.089403  0.007666  -0.03002  -0.056071  0.00578  4.011482  0.006
C  C116  1  0.95869444  0.62070783  0.27519953  1  0.014821  -0.004588  -0.075429  -0.100414  -0.003157  3.923118  -0.003
C  C117  1  0.95867991  0.12071947  0.22480553  1  0.014658  -0.004586  -0.075492  -0.100495  -0.003155  3.923318  -0.003
C  C118  1  0.04129175  0.37928523  0.72479998  1  0.01431  0.001736  -0.075346  -0.100314  0.001158  3.923108  0.001
C  C119  1  0.04132419  0.87928790  0.77519848  1  0.014996  -0.001738  -0.075392  -0.100322  -0.001029  3.923075  -0.001
C  C120  1  0.01809810  0.56074743  0.23788414  1  -0.031425  -0.010168  -0.019048  -0.039979  -0.007192  3.982743  -0.008
C  C121  1  0.01809404  0.06074148  0.26212140  1  -0.0317  -0.010169  -0.018974  -0.039896  -0.007192  3.9825  -0.008
C  C122  1  0.98190604  0.43924773  0.76211408  1  -0.031451  0.01064  -0.019045  -0.039806  0.008071  3.982708  0.008
C  C123  1  0.98192030  0.93925371  0.73788196  1  -0.030831  -0.010645  -0.019044  -0.039919  -0.007616  3.982835  -0.008
C  C124  1  0.21040861  0.53160858  0.23491706  1  -0.070969  -0.003566  -0.073566  -0.063665  -0.002404  3.917972  -0.002
C  C125  1  0.21042924  0.03161380  0.26508944  1  -0.072667  -0.003566  -0.073551  -0.063796  -0.002403  3.917854  -0.002
C  C126  1  0.78958386  0.46839265  0.76508437  1  -0.071004  0.001036  -0.073591  -0.063782  0.000815  3.917824  0.001
C  C127  1  0.78957493  0.96837524  0.73491136  1  -0.072203  -0.001038  -0.073495  -0.063658  -0.000747  3.917867  -0.001
C  C128  1  0.34152978  0.55995333  0.26919906  1  -0.024764  -0.00036  -0.089937  -0.080852  -0.000208  3.990271  0.0
C  C129  1  0.34152299  0.05995867  0.23080336  1  -0.023954  -0.000359  -0.089856  -0.080701  -0.000207  3.989981  0.0
C  C130  1  0.65848206  0.44006221  0.73079916  1  -0.024682  -0.00135  -0.090028  -0.080876  -0.000925  3.99005  -0.001
C  C131  1  0.65849088  0.94003447  0.76919839  1  -0.023791  0.001349  -0.089918  -0.080908  0.000983  3.990272  0.001
C  C132  1  0.28252932  0.62050670  0.30623211  1  -0.01925  -0.004146  -0.084345  -0.08891  -0.002755  3.969411  -0.003
C  C133  1  0.28250796  0.12053063  0.19377395  1  -0.018831  -0.004147  -0.084297  -0.088739  -0.002757  3.969327  -0.003
C  C134  1  0.71747213  0.37949557  0.69376515  1  -0.019317  0.000649  -0.084285  -0.088811  0.00049  3.969165  0.0
C  C135  1  0.71748912  0.87947163  0.80622877  1  -0.018943  -0.000649  -0.08431  -0.088746  -0.000381  3.969659  0.0
C  C136  1  0.87552235  0.52570850  0.20159838  1  1.529991  -0.000267  0.210761  0.575055  -0.001529  4.187512  0.002
C  C137  1  0.87555681  0.02569324  0.29841063  1  1.531001  -0.000264  0.210624  0.5751  -0.001529  4.18761  0.002
C  C138  1  0.12445023  0.47428859  0.79840563  1  1.529814  0.000226  0.210453  0.574517  0.00188  4.187523  -0.002
C  C139  1  0.12443594  0.97429679  0.70158952  1  1.529942  -0.000226  0.210435  0.574693  -0.001533  4.187454  0.002
N  N140  1  0.76061897  0.81174383  0.43784905  1  -1.214022  -0.069263  -0.33703  -0.254165  -0.047579  3.621961  -0.06
N  N141  1  0.76061654  0.31175621  0.06215939  1  -1.213813  -0.069326  -0.336965  -0.254113  -0.047615  3.621577  -0.06
N  N142  1  0.23938585  0.18826660  0.56214821  1  -1.214582  -0.069264  -0.336842  -0.253966  -0.047577  3.622042  -0.06
N  N143  1  0.23939874  0.68824916  0.93784300  1  -1.213952  0.06935  -0.336885  -0.254123  0.050612  3.621779  0.06
N  N144  1  0.84476158  0.07555857  0.42162652  1  -1.188565  -0.068964  -0.328095  -0.246069  -0.047328  3.588444  -0.06
N  N145  1  0.84475293  0.57557016  0.07837410  1  -1.188526  -0.069026  -0.328111  -0.246202  -0.047357  3.588409  -0.06
N  N146  1  0.15524474  0.92443965  0.57837267  1  -1.188203  -0.068941  -0.328137  -0.246161  -0.047314  3.58882  -0.06
N  N147  1  0.15524656  0.42443618  0.92162445  1  -1.188701  0.069008  -0.328052  -0.245924  0.050297  3.588483  0.06
O  O148  1  0.85123836  0.74277298  0.35014420  1  -1.102201  -0.114923  -0.335427  -0.547083  -0.074435  2.295433  -0.102
O  O149  1  0.85119500  0.24278619  0.14986752  1  -1.102552  -0.11494  -0.335589  -0.54738  -0.074449  2.295719  -0.102
O  O150  1  0.14877842  0.25722017  0.64985787  1  -1.102215  -0.115027  -0.335481  -0.547097  -0.074534  2.295509  -0.102
O  O151  1  0.14881447  0.75721306  0.85013680  1  -1.102697  0.115041  -0.335639  -0.547419  0.079191  2.295363  0.102
O  O152  1  0.16173925  0.76688131  0.37628512  1  -1.198293  -0.006807  -0.333278  -0.596944  -0.003994  2.227372  -0.006
O  O153  1  0.16166535  0.26690961  0.12372486  1  -1.207614  -0.006662  -0.333225  -0.597032  -0.003898  2.227463  -0.006
O  O154  1  0.83828090  0.23312000  0.62371342  1  -1.198836  -0.00543  -0.333209  -0.596841  -0.0031  2.227495  -0.005
O  O155  1  0.83833151  0.73308552  0.87627818  1  -1.207611  0.005281  -0.333207  -0.597006  0.003286  2.227442  0.005
O  O156  1  0.95770493  0.51898374  0.16416690  1  -1.105854  -0.127029  -0.338857  -0.556808  -0.082426  2.336095  -0.113
O  O157  1  0.95772550  0.01897116  0.33584024  1  -1.1061  -0.12699  -0.338968  -0.556947  -0.082405  2.336461  -0.113
O  O158  1  0.04229774  0.48101752  0.83583390  1  -1.106106  0.126936  -0.338795  -0.556579  0.087505  2.33657  0.113
O  O159  1  0.04229438  0.98103524  0.66416504  1  -1.10627  -0.126928  -0.338842  -0.55663  -0.082369  2.336878  -0.113
O  O160  1  0.69329383  0.50528694  0.20871408  1  -1.151385  -0.005363  -0.299885  -0.519583  -0.003025  2.175892  -0.005
O  O161  1  0.69329383  0.00526368  0.29129265  1  -1.151035  -0.005374  -0.29975  -0.51956  -0.00303  2.175435  -0.005
O  O162  1  0.30673577  0.49471745  0.79128286  1  -1.150976  0.005326  -0.299769  -0.519503  0.003267  2.175075  0.005
O  O163  1  0.30675865  0.99472654  0.70871360  1  -1.150902  -0.00534  -0.299715  -0.519602  -0.003041  2.174417  -0.005
O  O164  1  0.51266455  0.94370359  0.36519201  1  -1.288817  0.000396  -0.611264  -0.811571  8e-06  2.045166  -0.001
O  O165  1  0.51262987  0.44370921  0.13481284  1  -1.288529  0.000469  -0.611279  -0.811367  6.2e-05  2.045256  -0.001
O  O166  1  0.48735073  0.05630178  0.63481007  1  -1.288798  0.000404  -0.61131  -0.811512  1.1e-05  2.045227  -0.001
O  O167  1  0.48735919  0.55629608  0.86518571  1  -1.28843  -0.000475  -0.611277  -0.811503  2e-06  2.045232  0.001
