# generated using pymatgen
data_NdH5C7SO7
_symmetry_space_group_name_H-M   'P 1'
_cell_length_a   5.93167452
_cell_length_b   8.29310329
_cell_length_c   10.00521856
_cell_angle_alpha   111.33449349
_cell_angle_beta   95.78273440
_cell_angle_gamma   92.47642290
_symmetry_Int_Tables_number   1
_chemical_formula_structural   NdH5C7SO7
_chemical_formula_sum   'Nd2 H10 C14 S2 O14'
_cell_volume   454.41902247
_cell_formula_units_Z   2
loop_
 _symmetry_equiv_pos_site_id
 _symmetry_equiv_pos_as_xyz
  1  'x, y, z'
loop_
 _atom_site_type_symbol
 _atom_site_label
 _atom_site_symmetry_multiplicity
 _atom_site_fract_x
 _atom_site_fract_y
 _atom_site_fract_z
 _atom_site_occupancy
 _atom_site_pbe_bader_spin_density
 _atom_site_pbe_cm5_charge
 _atom_site_pbe_ddec_charge
 _atom_site_pbe_ddec_spin_density
 _atom_site_pbe_ddec_sum_bond_order
 _atom_site_pbe_magmom
Nd  Nd0  1  0.76261522  0.14995154  0.96990497  1  0  1.521978  2.169628  0  2.115735  0
Nd  Nd1  1  0.23737945  0.85004708  0.03009747  1  0  1.521991  2.169671  0  2.115681  0
H  H2  1  0.29942005  0.29613056  0.91756867  1  0  0.312923  0.412138  0  0.91501  0
H  H3  1  0.70058322  0.70386931  0.08243263  1  0  0.312962  0.412181  0  0.914944  0
H  H4  1  0.39803008  0.40730282  0.07776787  1  0  0.314614  0.420321  0  0.903932  0
H  H5  1  0.60197150  0.59269706  0.92223334  1  0  0.314613  0.42034  0  0.903899  0
H  H6  1  0.65363297  0.69043219  0.65672275  1  0  0.112719  0.13076  0  0.998361  0
H  H7  1  0.34636212  0.30957034  0.34327391  1  0  0.112733  0.130772  0  0.998333  0
H  H8  1  0.67326261  0.56156132  0.39102661  1  0  0.112831  0.122281  0  0.99201  0
H  H9  1  0.32673399  0.43843991  0.60896774  1  0  0.112826  0.122291  0  0.992037  0
H  H10  1  0.33905958  0.83119280  0.45721351  1  0  0.116917  0.13293  0  1.008448  0
H  H11  1  0.66094386  0.16880836  0.54278920  1  0  0.11693  0.132965  0  1.008421  0
C  C12  1  0.17922261  0.86804444  0.64880331  1  0  -0.020968  -0.155786  0  3.928323  0
C  C13  1  0.82078205  0.13195282  0.35119827  1  0  -0.020984  -0.155789  0  3.928408  0
C  C14  1  0.98234645  0.83272943  0.70763326  1  0  0.100481  0.36071  0  4.076769  0
C  C15  1  0.01765343  0.16727046  0.29236686  1  0  0.100458  0.36065  0  4.076882  0
C  C16  1  0.80085626  0.72234817  0.61161040  1  0  -0.093954  -0.196598  0  3.931016  0
C  C17  1  0.19914328  0.27764913  0.38838692  1  0  -0.094002  -0.196639  0  3.931014  0
C  C18  1  0.81235726  0.64986390  0.46385317  1  0  -0.07108  -0.038677  0  3.961819  0
C  C19  1  0.18763953  0.35013861  0.53614558  1  0  -0.071035  -0.038672  0  3.961845  0
C  C20  1  0.00629874  0.68942290  0.40877611  1  0  -0.029122  -0.131112  0  4.016463  0
C  C21  1  0.99370300  0.31057828  0.59122451  1  0  -0.02913  -0.131087  0  4.016599  0
C  C22  1  0.18773415  0.80043660  0.49993257  1  0  -0.066505  -0.065693  0  3.930805  0
C  C23  1  0.81226929  0.19956456  0.50006914  1  0  -0.066531  -0.065777  0  3.93089  0
C  C24  1  0.38870881  0.95934064  0.74398401  1  0  0.212702  0.626684  0  4.18178  0
C  C25  1  0.61129599  0.04065792  0.25601598  1  0  0.212775  0.626774  0  4.181753  0
S  S26  1  0.03859185  0.59099851  0.22469705  1  0  0.55706  1.248997  0  6.069317  0
S  S27  1  0.96140987  0.40900267  0.77530257  1  0  0.557115  1.249139  0  6.069268  0
O  O28  1  0.43518394  0.31533738  0.98888729  1  0  -0.657397  -0.87799  0  2.103869  0
O  O29  1  0.56481766  0.68466250  0.01111492  1  0  -0.657436  -0.87807  0  2.103814  0
O  O30  1  0.43659315  0.92581619  0.86083572  1  0  -0.479881  -0.77366  0  2.435728  0
O  O31  1  0.56340287  0.07417982  0.13916401  1  0  -0.479921  -0.773719  0  2.43571  0
O  O32  1  0.52512317  0.05986436  0.71591421  1  0  -0.335178  -0.576133  0  2.155462  0
O  O33  1  0.47487688  0.94013683  0.28408731  1  0  -0.335189  -0.576151  0  2.15545  0
O  O34  1  0.96809871  0.90372144  0.85039870  1  0  -0.512045  -0.804984  0  2.403019  0
O  O35  1  0.03189378  0.09627330  0.14960143  1  0  -0.51204  -0.804948  0  2.403011  0
O  O36  1  0.86740743  0.44051596  0.16191338  1  0  -0.394472  -0.684679  0  2.316257  0
O  O37  1  0.13259736  0.55948260  0.83808561  1  0  -0.394471  -0.684708  0  2.316208  0
O  O38  1  0.27455399  0.54934703  0.21637756  1  0  -0.299829  -0.589005  0  2.243134  0
O  O39  1  0.72544588  0.45065287  0.78362156  1  0  -0.299836  -0.589048  0  2.24313  0
O  O40  1  0.98735017  0.72120238  0.15565709  1  0  -0.401797  -0.730126  0  2.321768  0
O  O41  1  0.01264969  0.27879752  0.84434103  1  0  -0.401822  -0.730183  0  2.321771  0
