# generated using pymatgen
data_Rb2NaH5C6O7
_symmetry_space_group_name_H-M   'P 1'
_cell_length_a   5.61335855
_cell_length_b   7.85564501
_cell_length_c   11.59747608
_cell_angle_alpha   82.55701454
_cell_angle_beta   89.42723314
_cell_angle_gamma   84.07716331
_symmetry_Int_Tables_number   1
_chemical_formula_structural   Rb2NaH5C6O7
_chemical_formula_sum   'Rb4 Na2 H10 C12 O14'
_cell_volume   504.38974737
_cell_formula_units_Z   2
loop_
 _symmetry_equiv_pos_site_id
 _symmetry_equiv_pos_as_xyz
  1  'x, y, z'
loop_
 _atom_site_type_symbol
 _atom_site_label
 _atom_site_symmetry_multiplicity
 _atom_site_fract_x
 _atom_site_fract_y
 _atom_site_fract_z
 _atom_site_occupancy
 _atom_site_hle17_bader_spin_density
 _atom_site_hle17_ddec_charge
 _atom_site_hle17_ddec_spin_density
 _atom_site_hle17_ddec_sum_bond_order
 _atom_site_hle17_magmom
 _atom_site_hse06_10hf_bader_spin_density
 _atom_site_hse06_10hf_ddec_charge
 _atom_site_hse06_10hf_ddec_spin_density
 _atom_site_hse06_10hf_ddec_sum_bond_order
 _atom_site_hse06_10hf_magmom
 _atom_site_hse06_bader_spin_density
 _atom_site_hse06_ddec_charge
 _atom_site_hse06_ddec_spin_density
 _atom_site_hse06_ddec_sum_bond_order
 _atom_site_hse06_magmom
 _atom_site_pbe_bader_spin_density
 _atom_site_pbe_cm5_charge
 _atom_site_pbe_ddec_charge
 _atom_site_pbe_ddec_spin_density
 _atom_site_pbe_ddec_sum_bond_order
 _atom_site_pbe_magmom
Rb  Rb0  1  0.74007325  0.46287090  0.13171149  1  0  0.928805  0  0.577394  0  0  0.87077  0  0.812133  0  0  0.887249  0  0.788005  0  0  0.819985  0.85852  0  0.829369  0
Rb  Rb1  1  0.25994961  0.53712154  0.86828873  1  0  0.928811  0  0.57736  0  0  0.870769  0  0.812096  0  0  0.887247  0  0.787969  0  0  0.81997  0.858519  0  0.829331  0
Rb  Rb2  1  0.75484491  0.64001074  0.41095357  1  0  0.937565  0  0.57964  0  0  0.883595  0  0.811657  0  0  0.900451  0  0.785251  0  0  0.857647  0.871119  0  0.830426  0
Rb  Rb3  1  0.24512622  0.35999481  0.58903724  1  0  0.937538  0  0.579714  0  0  0.883612  0  0.811683  0  0  0.900466  0  0.785276  0  0  0.857656  0.871117  0  0.830473  0
Na  Na4  1  0.76185740  0.12822629  0.40053180  1  0  0.911346  0  0.384176  0  0  0.866386  0  0.538443  0  0  0.877981  0  0.516476  0  0  0.714857  0.857887  0  0.554197  0
Na  Na5  1  0.23814853  0.87177264  0.59946712  1  0  0.911367  0  0.384154  0  0  0.866403  0  0.538449  0  0  0.877998  0  0.516477  0  0  0.714864  0.857903  0  0.554203  0
H  H6  1  0.23910010  0.00917779  0.04213985  1  0  0.129763  0  0.919871  0  0  0.14628  0  0.975709  0  0  0.148883  0  0.974872  0  0  0.111608  0.144419  0  0.976398  0
H  H7  1  0.76089817  0.99082501  0.95786052  1  0  0.129786  0  0.919878  0  0  0.146272  0  0.975706  0  0  0.148873  0  0.974869  0  0  0.111613  0.144411  0  0.976394  0
H  H8  1  0.45627525  0.89186899  0.13977659  1  0  0.126288  0  0.938725  0  0  0.138507  0  1.000942  0  0  0.141994  0  0.998802  0  0  0.111218  0.135985  0  1.002605  0
H  H9  1  0.54372621  0.10813642  0.86022009  1  0  0.12634  0  0.938719  0  0  0.138536  0  1.000907  0  0  0.142021  0  0.998767  0  0  0.111221  0.136015  0  1.002565  0
H  H10  1  0.22522957  0.29542378  0.12498302  1  0  0.097883  0  0.953929  0  0  0.109635  0  1.023978  0  0  0.113004  0  1.021406  0  0  0.106197  0.107236  0  1.025901  0
H  H11  1  0.77476993  0.70458292  0.87501443  1  0  0.097879  0  0.953937  0  0  0.109621  0  1.023989  0  0  0.11299  0  1.02142  0  0  0.106205  0.107224  0  1.02591  0
H  H12  1  0.48849224  0.17904682  0.18894909  1  0  0.101301  0  0.976915  0  0  0.114655  0  1.043134  0  0  0.117143  0  1.041907  0  0  0.103452  0.112842  0  1.044127  0
H  H13  1  0.51150052  0.82095725  0.81105379  1  0  0.101319  0  0.976923  0  0  0.114646  0  1.043176  0  0  0.117134  0  1.041949  0  0  0.103451  0.112835  0  1.044167  0
H  H14  1  0.86510092  0.97732150  0.19189191  1  0  0.377558  0  0.916033  0  0  0.352953  0  0.989373  0  0  0.364373  0  0.976224  0  0  0.295808  0.344863  0  0.998652  0
H  H15  1  0.13490678  0.02267744  0.80810614  1  0  0.377562  0  0.916041  0  0  0.352951  0  0.989383  0  0  0.364369  0  0.976242  0  0  0.295805  0.344865  0  0.998654  0
C  C16  1  0.12933087  0.77242308  0.12568715  1  0  0.73349  0  3.845235  0  0  0.693315  0  4.142403  0  0  0.726629  0  4.133276  0  0  0.198874  0.670676  0  4.147841  0
C  C17  1  0.87067345  0.22757457  0.87431188  1  0  0.733501  0  3.845345  0  0  0.693293  0  4.142484  0  0  0.726614  0  4.133342  0  0  0.198827  0.670657  0  4.147919  0
C  C18  1  0.26395015  0.93200473  0.12853205  1  0  -0.360903  0  3.596457  0  0  -0.401079  0  3.831444  0  0  -0.408057  0  3.837042  0  0  -0.161298  -0.396242  0  3.827617  0
C  C19  1  0.73605008  0.06799678  0.87146841  1  0  -0.361  0  3.596541  0  0  -0.401003  0  3.831352  0  0  -0.407982  0  3.836929  0  0  -0.161251  -0.396168  0  3.827524  0
C  C20  1  0.17380113  0.04865415  0.22101932  1  0  0.265072  0  3.575756  0  0  0.272552  0  3.811036  0  0  0.276293  0  3.82284  0  0  0.065307  0.269852  0  3.803037  0
C  C21  1  0.82620641  0.95134604  0.77898207  1  0  0.265168  0  3.575644  0  0  0.272556  0  3.811002  0  0  0.276325  0  3.822756  0  0  0.065271  0.269848  0  3.803011  0
C  C22  1  0.29811100  0.21514044  0.20411891  1  0  -0.357985  0  3.659188  0  0  -0.400269  0  3.890492  0  0  -0.407379  0  3.898381  0  0  -0.181798  -0.39536  0  3.885161  0
C  C23  1  0.70188334  0.78486496  0.79588041  1  0  -0.358008  0  3.659219  0  0  -0.400197  0  3.890393  0  0  -0.407315  0  3.898279  0  0  -0.181776  -0.395288  0  3.885067  0
C  C24  1  0.27125795  0.32163657  0.30666512  1  0  0.727858  0  3.883764  0  0  0.691427  0  4.177803  0  0  0.723963  0  4.169  0  0  0.177712  0.669342  0  4.183074  0
C  C25  1  0.72873319  0.67836624  0.69333615  1  0  0.727905  0  3.883632  0  0  0.691519  0  4.177582  0  0  0.72405  0  4.168787  0  0  0.177814  0.669431  0  4.182857  0
C  C26  1  0.24312237  0.95139728  0.34385756  1  0  0.612899  0  3.907708  0  0  0.572967  0  4.200207  0  0  0.603173  0  4.193368  0  0  0.188464  0.552466  0  4.204232  0
C  C27  1  0.75688892  0.04860160  0.65614478  1  0  0.612874  0  3.907802  0  0  0.5729  0  4.200412  0  0  0.603099  0  4.193574  0  0  0.188401  0.55241  0  4.204424  0
O  O28  1  0.90743883  0.78402302  0.15506714  1  0  -0.722319  0  1.956632  0  0  -0.670268  0  2.190743  0  0  -0.695646  0  2.180505  0  0  -0.43097  -0.652457  0  2.197302  0
O  O29  1  0.09256207  0.21597343  0.84492512  1  0  -0.722297  0  1.95655  0  0  -0.670266  0  2.190693  0  0  -0.695645  0  2.180452  0  0  -0.430908  -0.652454  0  2.197248  0
O  O30  1  0.23972578  0.63949343  0.09117759  1  0  -0.76212  0  1.928951  0  0  -0.715393  0  2.172814  0  0  -0.740005  0  2.162941  0  0  -0.483458  -0.698061  0  2.179065  0
O  O31  1  0.76028427  0.36050156  0.90882680  1  0  -0.762149  0  1.929056  0  0  -0.715431  0  2.172937  0  0  -0.740046  0  2.163059  0  0  -0.483501  -0.698097  0  2.179181  0
O  O32  1  0.46104684  0.37142605  0.34568307  1  0  -0.811756  0  1.940921  0  0  -0.766139  0  2.188215  0  0  -0.789199  0  2.175727  0  0  -0.517211  -0.749979  0  2.196415  0
O  O33  1  0.53894055  0.62857807  0.65431638  1  0  -0.811856  0  1.940824  0  0  -0.766272  0  2.188131  0  0  -0.789331  0  2.175643  0  0  -0.517267  -0.750108  0  2.196333  0
O  O34  1  0.06265082  0.35259496  0.34771600  1  0  -0.771839  0  1.94872  0  0  -0.72591  0  2.19627  0  0  -0.749176  0  2.185221  0  0  -0.500676  -0.70964  0  2.203488  0
O  O35  1  0.93733927  0.64740266  0.65228742  1  0  -0.771779  0  1.948616  0  0  -0.725872  0  2.196131  0  0  -0.749138  0  2.185085  0  0  -0.500701  -0.709602  0  2.20335  0
O  O36  1  0.08117970  0.88707293  0.40740187  1  0  -0.758151  0  1.996928  0  0  -0.712148  0  2.242372  0  0  -0.733351  0  2.230334  0  0  -0.501672  -0.697326  0  2.250322  0
O  O37  1  0.91882923  0.11291704  0.59259259  1  0  -0.758114  0  1.996964  0  0  -0.712088  0  2.242425  0  0  -0.733292  0  2.230392  0  0  -0.501612  -0.697269  0  2.250372  0
O  O38  1  0.46193087  0.94335050  0.37257127  1  0  -0.738543  0  1.977606  0  0  -0.694866  0  2.228534  0  0  -0.716688  0  2.216778  0  0  -0.482776  -0.679592  0  2.236285  0
O  O39  1  0.53807582  0.05665605  0.62743650  1  0  -0.738578  0  1.977613  0  0  -0.694923  0  2.228628  0  0  -0.716744  0  2.216871  0  0  -0.482772  -0.679649  0  2.236372  0
O  O40  1  0.91976550  0.09071077  0.20838442  1  0  -0.666215  0  2.071524  0  0  -0.626976  0  2.30679  0  0  -0.64164  0  2.293336  0  0  -0.491281  -0.616553  0  2.316136  0
O  O41  1  0.08024079  0.90928557  0.79161557  1  0  -0.666268  0  2.07142  0  0  -0.62702  0  2.306744  0  0  -0.641689  0  2.293276  0  0  -0.491296  -0.6166  0  2.316093  0
