# generated using pymatgen
data_CdH13C16(NO2)3
_symmetry_space_group_name_H-M   'P 1'
_cell_length_a   8.84693422
_cell_length_b   10.01309277
_cell_length_c   10.79377651
_cell_angle_alpha   103.57375373
_cell_angle_beta   95.58754624
_cell_angle_gamma   116.60366055
_symmetry_Int_Tables_number   1
_chemical_formula_structural   CdH13C16(NO2)3
_chemical_formula_sum   'Cd2 H26 C32 N6 O12'
_cell_volume   808.19217395
_cell_formula_units_Z   2
loop_
 _symmetry_equiv_pos_site_id
 _symmetry_equiv_pos_as_xyz
  1  'x, y, z'
loop_
 _atom_site_type_symbol
 _atom_site_label
 _atom_site_symmetry_multiplicity
 _atom_site_fract_x
 _atom_site_fract_y
 _atom_site_fract_z
 _atom_site_occupancy
 _atom_site_hle17_bader_spin_density
 _atom_site_hle17_ddec_charge
 _atom_site_hle17_ddec_spin_density
 _atom_site_hle17_ddec_sum_bond_order
 _atom_site_hle17_magmom
 _atom_site_hse06_10hf_bader_spin_density
 _atom_site_hse06_10hf_ddec_charge
 _atom_site_hse06_10hf_ddec_spin_density
 _atom_site_hse06_10hf_ddec_sum_bond_order
 _atom_site_hse06_10hf_magmom
 _atom_site_hse06_bader_spin_density
 _atom_site_hse06_ddec_charge
 _atom_site_hse06_ddec_spin_density
 _atom_site_hse06_ddec_sum_bond_order
 _atom_site_hse06_magmom
 _atom_site_pbe_bader_spin_density
 _atom_site_pbe_cm5_charge
 _atom_site_pbe_ddec_charge
 _atom_site_pbe_ddec_spin_density
 _atom_site_pbe_ddec_sum_bond_order
 _atom_site_pbe_magmom
Cd  Cd0  1  0.74514966  0.56178132  0.52810445  1  0  1.183693  0  1.612766  0  0  1.005209  0  2.048973  0  0  1.063905  0  1.994343  0  0  0.772515  0.963086  0  2.086798  0
Cd  Cd1  1  0.25484966  0.43821862  0.47189493  1  0  1.183702  0  1.612741  0  0  1.005219  0  2.048949  0  0  1.063917  0  1.994317  0  0  0.772522  0.9631  0  2.086771  0
H  H2  1  0.92895014  0.98269438  0.63885450  1  0  0.396521  0  0.90415  0  0  0.366107  0  0.981389  0  0  0.377582  0  0.966009  0  0  0.301852  0.358042  0  0.990036  0
H  H3  1  0.07105031  0.01730556  0.36114591  1  0  0.396504  0  0.904174  0  0  0.366091  0  0.98141  0  0  0.377566  0  0.96603  0  0  0.301845  0.358026  0  0.990057  0
H  H4  1  0.98467197  0.79637492  0.43615183  1  0  0.421653  0  0.878632  0  0  0.387447  0  0.947857  0  0  0.398245  0  0.932182  0  0  0.291365  0.379824  0  0.958908  0
H  H5  1  0.01532850  0.20362502  0.56384766  1  0  0.421668  0  0.878609  0  0  0.387473  0  0.947813  0  0  0.398269  0  0.932141  0  0  0.291383  0.37985  0  0.958864  0
H  H6  1  0.04052769  0.66316574  0.42342111  1  0  0.429465  0  0.877723  0  0  0.396298  0  0.945677  0  0  0.407869  0  0.928948  0  0  0.285639  0.388079  0  0.957538  0
H  H7  1  0.95947216  0.33683303  0.57657807  1  0  0.429471  0  0.87772  0  0  0.396306  0  0.945667  0  0  0.407877  0  0.928939  0  0  0.285652  0.388087  0  0.957529  0
H  H8  1  0.78761647  0.23827431  0.32414110  1  0  0.106333  0  0.928014  0  0  0.116871  0  0.986682  0  0  0.118882  0  0.984942  0  0  0.135246  0.11533  0  0.987936  0
H  H9  1  0.21238399  0.76172563  0.67585930  1  0  0.106329  0  0.928014  0  0  0.116844  0  0.986706  0  0  0.118853  0  0.984967  0  0  0.135245  0.115306  0  0.987959  0
H  H10  1  0.45713798  0.41997807  0.23668403  1  0  0.124727  0  0.954215  0  0  0.132023  0  1.02071  0  0  0.13548  0  1.016222  0  0  0.141381  0.129367  0  1.023858  0
H  H11  1  0.54286247  0.58002187  0.76331638  1  0  0.124729  0  0.954209  0  0  0.132027  0  1.020702  0  0  0.135482  0  1.016216  0  0  0.141379  0.12937  0  1.023851  0
H  H12  1  0.55591045  0.39932578  0.95451376  1  0  0.101295  0  0.959346  0  0  0.109897  0  1.024636  0  0  0.112215  0  1.024363  0  0  0.103012  0.108284  0  1.024806  0
H  H13  1  0.44409169  0.60067301  0.04548563  1  0  0.101315  0  0.959331  0  0  0.109912  0  1.024626  0  0  0.11223  0  1.024352  0  0  0.103004  0.108298  0  1.024797  0
H  H14  1  0.34618204  0.32840395  0.74611033  1  0  0.109296  0  0.982068  0  0  0.11769  0  1.048091  0  0  0.120689  0  1.04703  0  0  0.100285  0.115625  0  1.048758  0
H  H15  1  0.65382009  0.67159485  0.25388906  1  0  0.109302  0  0.982049  0  0  0.117696  0  1.048075  0  0  0.120695  0  1.047013  0  0  0.100288  0.115631  0  1.048742  0
H  H16  1  0.98882558  0.90278740  0.81530762  1  0  0.129638  0  0.96094  0  0  0.137705  0  1.022001  0  0  0.141499  0  1.020507  0  0  0.105919  0.134869  0  1.023459  0
H  H17  1  0.01117435  0.09721370  0.18469299  1  0  0.129661  0  0.960894  0  0  0.137751  0  1.021936  0  0  0.141526  0  1.020464  0  0  0.105926  0.134916  0  1.023395  0
H  H18  1  0.19833266  0.97368393  0.02155042  1  0  0.106471  0  0.9312  0  0  0.117469  0  0.990927  0  0  0.120419  0  0.988948  0  0  0.109295  0.115497  0  0.992085  0
H  H19  1  0.80166550  0.02631598  0.97845070  1  0  0.106481  0  0.931209  0  0  0.117478  0  0.990937  0  0  0.120427  0  0.988958  0  0  0.109292  0.115506  0  0.992095  0
H  H20  1  0.02327444  0.34818710  0.79139744  1  0  0.093492  0  0.971246  0  0  0.101617  0  1.038735  0  0  0.104996  0  1.036754  0  0  0.101951  0.09902  0  1.040447  0
H  H21  1  0.97672427  0.65181166  0.20860163  1  0  0.093516  0  0.971254  0  0  0.101653  0  1.038709  0  0  0.105032  0  1.036727  0  0  0.101948  0.09905  0  1.040426  0
H  H22  1  0.87749258  0.67967963  0.99645043  1  0  0.097553  0  0.97522  0  0  0.103427  0  1.044206  0  0  0.105942  0  1.044422  0  0  0.101291  0.101537  0  1.044241  0
H  H23  1  0.12250787  0.32032032  0.00354998  1  0  0.097552  0  0.975207  0  0  0.10342  0  1.044197  0  0  0.105934  0  1.044416  0  0  0.101287  0.10153  0  1.044232  0
H  H24  1  0.40602321  0.76227072  0.30982739  1  0  0.098624  0  0.957787  0  0  0.108427  0  1.019498  0  0  0.110883  0  1.018866  0  0  0.103289  0.106317  0  1.020538  0
H  H25  1  0.59397670  0.23773038  0.69017415  1  0  0.098593  0  0.957829  0  0  0.108424  0  1.019513  0  0  0.110886  0  1.018868  0  0  0.103287  0.106313  0  1.020555  0
H  H26  1  0.69877030  0.04763913  0.70438585  1  0  0.09961  0  0.940921  0  0  0.109898  0  1.000383  0  0  0.113428  0  0.998353  0  0  0.106178  0.107248  0  1.00207  0
H  H27  1  0.30122836  0.95235962  0.29561599  1  0  0.099596  0  0.940984  0  0  0.109884  0  1.000441  0  0  0.113414  0  0.998411  0  0  0.106188  0.107238  0  1.00213  0
C  C28  1  0.69346572  0.25934792  0.27167352  1  0  0.206306  0  3.693108  0  0  0.153676  0  3.985947  0  0  0.164783  0  4.000293  0  0  0.144534  0.146523  0  3.97578  0
C  C29  1  0.30653535  0.74065320  0.72832719  1  0  0.20629  0  3.693077  0  0  0.153674  0  3.985925  0  0  0.164782  0  4.000269  0  0  0.144524  0.146515  0  3.975765  0
C  C30  1  0.53075194  0.35722838  0.23067326  1  0  0.176959  0  3.63012  0  0  0.097641  0  3.895817  0  0  0.11298  0  3.906367  0  0  0.159358  0.087939  0  3.888192  0
C  C31  1  0.46924737  0.64277155  0.76932704  1  0  0.176921  0  3.630105  0  0  0.097611  0  3.895816  0  0  0.112951  0  3.906363  0  0  0.159344  0.087909  0  3.88819  0
C  C32  1  0.38719696  0.19173378  0.00069574  1  0  0.124792  0  3.79578  0  0  0.100976  0  4.053943  0  0  0.102814  0  4.075566  0  0  0.079676  0.099645  0  4.039559  0
C  C33  1  0.61280284  0.80826498  0.99930621  1  0  0.1248  0  3.795845  0  0  0.10103  0  4.053956  0  0  0.102867  0  4.075579  0  0  0.079711  0.099699  0  4.039571  0
C  C34  1  0.43066099  0.29174984  0.92370237  1  0  -0.120632  0  3.782636  0  0  -0.140225  0  4.037448  0  0  -0.140094  0  4.057453  0  0  -0.089702  -0.140124  0  4.023808  0
C  C35  1  0.56933833  0.70825009  0.07629701  1  0  -0.120596  0  3.782627  0  0  -0.140191  0  4.037416  0  0  -0.14006  0  4.05742  0  0  -0.089678  -0.140091  0  4.023777  0
C  C36  1  0.31387343  0.25317235  0.80835132  1  0  -0.19592  0  3.755406  0  0  -0.215113  0  4.008677  0  0  -0.222572  0  4.030642  0  0  -0.113034  -0.210152  0  3.993641  0
C  C37  1  0.68612879  0.74682878  0.19164951  1  0  -0.195994  0  3.75539  0  0  -0.215193  0  4.008665  0  0  -0.222654  0  4.030633  0  0  -0.11308  -0.210231  0  3.993628  0
C  C38  1  0.15344044  0.11452403  0.76965901  1  0  0.345176  0  3.810707  0  0  0.336298  0  4.065535  0  0  0.348114  0  4.082249  0  0  0.084365  0.328315  0  4.053842  0
C  C39  1  0.84655885  0.88547589  0.23034222  1  0  0.345202  0  3.810726  0  0  0.336336  0  4.065547  0  0  0.348154  0  4.082257  0  0  0.084376  0.328352  0  4.053856  0
C  C40  1  0.11207519  0.01229350  0.84586298  1  0  -0.205246  0  3.713912  0  0  -0.21949  0  3.958961  0  0  -0.226874  0  3.979289  0  0  -0.104844  -0.214632  0  3.945452  0
C  C41  1  0.88792360  0.98770759  0.15413752  1  0  -0.205226  0  3.713822  0  0  -0.219497  0  3.958871  0  0  -0.226866  0  3.979208  0  0  -0.104814  -0.21464  0  3.945361  0
C  C42  1  0.22957665  0.05162821  0.96139848  1  0  -0.077777  0  3.748254  0  0  -0.105647  0  4.014216  0  0  -0.103472  0  4.031143  0  0  -0.075903  -0.106811  0  4.002478  0
C  C43  1  0.77042328  0.94837290  0.03860213  1  0  -0.077828  0  3.748204  0  0  -0.105711  0  4.01417  0  0  -0.103535  0  4.031091  0  0  -0.075935  -0.106875  0  4.002432  0
C  C44  1  0.88148722  0.53333973  0.75534822  1  0  0.633014  0  3.918808  0  0  0.580988  0  4.211371  0  0  0.615508  0  4.204932  0  0  0.200106  0.557604  0  4.214716  0
C  C45  1  0.11851271  0.46666137  0.24465239  1  0  0.632964  0  3.9188  0  0  0.580966  0  4.211329  0  0  0.615486  0  4.204891  0  0  0.20011  0.557581  0  4.214675  0
C  C46  1  0.94430123  0.51607389  0.88103523  1  0  -0.052859  0  3.753754  0  0  -0.030312  0  3.98378  0  0  -0.037071  0  4.005841  0  0  -0.013466  -0.025893  0  3.96876  0
C  C47  1  0.05569748  0.48392487  0.11896384  1  0  -0.052842  0  3.753759  0  0  -0.03032  0  3.983779  0  0  -0.03708  0  4.005839  0  0  -0.013459  -0.025901  0  3.968758  0
C  C48  1  0.01331047  0.41464883  0.88281629  1  0  -0.071495  0  3.727348  0  0  -0.093789  0  3.972907  0  0  -0.094835  0  3.993416  0  0  -0.084756  -0.092829  0  3.958934  0
C  C49  1  0.98669002  0.58535112  0.11718227  1  0  -0.071525  0  3.727376  0  0  -0.0938  0  3.972908  0  0  -0.094845  0  3.993413  0  0  -0.08472  -0.092837  0  3.958936  0
C  C50  1  0.93151759  0.60140268  0.99907296  1  0  -0.072998  0  3.731426  0  0  -0.093395  0  3.976021  0  0  -0.094214  0  3.996354  0  0  -0.083084  -0.092694  0  3.96212  0
C  C51  1  0.06848000  0.39859607  0.00092508  1  0  -0.073047  0  3.731455  0  0  -0.093424  0  3.976044  0  0  -0.094243  0  3.996378  0  0  -0.083106  -0.092721  0  3.962142  0
C  C52  1  0.62043446  0.77853781  0.51659712  1  0  0.654852  0  3.882309  0  0  0.597192  0  4.17852  0  0  0.632571  0  4.171261  0  0  0.208939  0.573102  0  4.18283  0
C  C53  1  0.37956537  0.22146096  0.48340298  1  0  0.654859  0  3.882224  0  0  0.597201  0  4.178425  0  0  0.63258  0  4.171167  0  0  0.20897  0.573111  0  4.182735  0
C  C54  1  0.55841768  0.89270587  0.50772072  1  0  -0.05843  0  3.742263  0  0  -0.035027  0  3.976068  0  0  -0.042183  0  3.998215  0  0  -0.013526  -0.030729  0  3.961894  0
C  C55  1  0.44158161  0.10729405  0.49228051  1  0  -0.058406  0  3.74227  0  0  -0.034991  0  3.976062  0  0  -0.042149  0  3.99821  0  0  -0.013507  -0.030693  0  3.961888  0
C  C56  1  0.44558235  0.86590098  0.39298349  1  0  -0.049422  0  3.709347  0  0  -0.072665  0  3.956214  0  0  -0.073016  0  3.976986  0  0  -0.07682  -0.072266  0  3.942904  0
C  C57  1  0.55441694  0.13409894  0.60701774  1  0  -0.049427  0  3.709405  0  0  -0.072702  0  3.956268  0  0  -0.073051  0  3.977041  0  0  -0.076826  -0.072302  0  3.942955  0
C  C58  1  0.61249144  0.02767034  0.61473951  1  0  -0.066127  0  3.716501  0  0  -0.090365  0  3.96697  0  0  -0.090816  0  3.986141  0  0  -0.080653  -0.090241  0  3.95445  0
C  C59  1  0.38750786  0.97232958  0.38526172  1  0  -0.066185  0  3.716555  0  0  -0.090434  0  3.967033  0  0  -0.090884  0  3.9862  0  0  -0.080704  -0.090318  0  3.954521  0
N  N60  1  0.50283404  0.24018841  0.12427565  1  0  0.017034  0  3.587159  0  0  0.136524  0  3.766473  0  0  0.126058  0  3.789652  0  0  -0.115895  0.142357  0  3.752664  0
N  N61  1  0.49716641  0.75981153  0.87572476  1  0  0.017041  0  3.587082  0  0  0.136486  0  3.766425  0  0  0.126021  0  3.789601  0  0  -0.115905  0.142322  0  3.752608  0
N  N62  1  0.60600329  0.17581019  0.14866964  1  0  -0.251797  0  2.808085  0  0  -0.257544  0  3.073299  0  0  -0.264632  0  3.086802  0  0  -0.214529  -0.25237  0  3.064031  0
N  N63  1  0.39399718  0.82418976  0.85132984  1  0  -0.25179  0  2.80804  0  0  -0.257517  0  3.073247  0  0  -0.264605  0  3.086749  0  0  -0.214527  -0.252345  0  3.063981  0
N  N64  1  0.65191969  0.37333707  0.32607352  1  0  -0.441298  0  3.212008  0  0  -0.365484  0  3.506161  0  0  -0.39013  0  3.521124  0  0  -0.355244  -0.348918  0  3.49548  0
N  N65  1  0.34808024  0.62666404  0.67392709  1  0  -0.441268  0  3.211976  0  0  -0.365449  0  3.506108  0  0  -0.390095  0  3.521071  0  0  -0.355233  -0.348884  0  3.495429  0
O  O66  1  0.04198065  0.08484018  0.65787312  1  0  -0.556429  0  2.162796  0  0  -0.492481  0  2.375244  0  0  -0.513095  0  2.362816  0  0  -0.351849  -0.47779  0  2.381774  0
O  O67  1  0.95802042  0.91516094  0.34212760  1  0  -0.556409  0  2.162812  0  0  -0.49248  0  2.375276  0  0  -0.513096  0  2.362852  0  0  -0.351841  -0.477787  0  2.381809  0
O  O68  1  0.80933114  0.61882564  0.75822068  1  0  -0.623451  0  1.980894  0  0  -0.561629  0  2.223223  0  0  -0.590092  0  2.214203  0  0  -0.31806  -0.541312  0  2.228584  0
O  O69  1  0.19067055  0.38117666  0.24178035  1  0  -0.623457  0  1.980872  0  0  -0.561627  0  2.223154  0  0  -0.590086  0  2.214131  0  0  -0.318073  -0.541319  0  2.22854  0
O  O70  1  0.89826797  0.46184196  0.64681694  1  0  -0.659022  0  2.028137  0  0  -0.587786  0  2.267845  0  0  -0.617846  0  2.258522  0  0  -0.319125  -0.566505  0  2.273437  0
O  O71  1  0.10173374  0.53816033  0.35318316  1  0  -0.658993  0  2.028186  0  0  -0.587776  0  2.267896  0  0  -0.617838  0  2.258576  0  0  -0.319133  -0.566495  0  2.273489  0
O  O72  1  0.75771994  0.82273453  0.60194519  1  0  -0.629999  0  2.04279  0  0  -0.561575  0  2.278346  0  0  -0.589578  0  2.268402  0  0  -0.30914  -0.541844  0  2.284035  0
O  O73  1  0.24228053  0.17726541  0.39805429  1  0  -0.63001  0  2.042761  0  0  -0.561575  0  2.278298  0  0  -0.589578  0  2.268352  0  0  -0.309163  -0.541844  0  2.283988  0
O  O74  1  0.53557270  0.63657378  0.43937504  1  0  -0.683827  0  2.05695  0  0  -0.611892  0  2.320361  0  0  -0.642683  0  2.309207  0  0  -0.325367  -0.589789  0  2.327969  0
O  O75  1  0.46442597  0.36342497  0.56062588  1  0  -0.68381  0  2.056855  0  0  -0.6119  0  2.320307  0  0  -0.642694  0  2.309153  0  0  -0.325388  -0.589799  0  2.327915  0
O  O76  1  0.00129621  0.72814297  0.48259156  1  0  -0.839722  0  1.856563  0  0  -0.778905  0  2.053863  0  0  -0.801602  0  2.019498  0  0  -0.591174  -0.762647  0  2.077769  0
O  O77  1  0.99870362  0.27185579  0.51740854  1  0  -0.839734  0  1.856527  0  0  -0.77895  0  2.05386  0  0  -0.801647  0  2.019496  0  0  -0.59121  -0.762691  0  2.077766  0
