# generated using pymatgen
data_AlH9C27(OF)6
_symmetry_space_group_name_H-M   'P 1'
_cell_length_a   4.02206306
_cell_length_b   27.81302573
_cell_length_c   27.85778192
_cell_angle_alpha   60.02573310
_cell_angle_beta   89.80201386
_cell_angle_gamma   89.58980811
_symmetry_Int_Tables_number   1
_chemical_formula_structural   AlH9C27(OF)6
_chemical_formula_sum   'Al3 H27 C81 O18 F18'
_cell_volume   2699.45256498
_cell_formula_units_Z   3
loop_
 _symmetry_equiv_pos_site_id
 _symmetry_equiv_pos_as_xyz
  1  'x, y, z'
loop_
 _atom_site_type_symbol
 _atom_site_label
 _atom_site_symmetry_multiplicity
 _atom_site_fract_x
 _atom_site_fract_y
 _atom_site_fract_z
 _atom_site_occupancy
 _atom_site_pbe_bader_charge
 _atom_site_pbe_bader_spin_density
 _atom_site_pbe_cm5_charge
 _atom_site_pbe_ddec_charge
 _atom_site_pbe_ddec_spin_density
 _atom_site_pbe_ddec_sum_bond_order
 _atom_site_pbe_magmom
Al  Al0  1  0.99998270  0.50006202  0.49997670  1  2.504718  0  0.432388  1.610539  0  2.568094  0
Al  Al1  1  0.94670194  0.83297121  0.83337366  1  2.506808  0  0.433639  1.602553  0  2.564548  0
Al  Al2  1  0.06737914  0.16634316  0.16618857  1  2.504354  0  0.433575  1.603245  0  2.564224  0
H  H3  1  0.51611870  0.07706534  0.92253308  1  0.055065  0  0.101454  0.102386  0  1.021661  0
H  H4  1  0.50648070  0.25541013  0.83348805  1  0.057021  0  0.101924  0.103386  0  1.01954  0
H  H5  1  0.51530886  0.16608509  0.74445847  1  0.05154  0  0.10194  0.103752  0  1.01964  0
H  H6  1  0.76249145  0.01366021  0.91107204  1  0.086954  0  0.110433  0.137359  0  0.993154  0
H  H7  1  0.21112421  0.09569305  0.75617397  1  0.069678  0  0.110418  0.136405  0  0.994103  0
H  H8  1  0.26585557  0.08863346  0.98529780  1  0.108346  0  0.1106  0.137302  0  0.993269  0
H  H9  1  0.81112943  0.24381522  0.90413180  1  0.096014  0  0.110527  0.136725  0  0.993609  0
H  H10  1  0.77416442  0.31714587  0.76080556  1  0.080806  0  0.109342  0.135916  0  0.995228  0
H  H11  1  0.24216678  0.23866061  0.68298009  1  0.077404  0  0.109464  0.135905  0  0.995063  0
H  H12  1  0.51615087  0.49970556  0.07742411  1  0.043906  0  0.101515  0.102608  0  1.021363  0
H  H13  1  0.50593587  0.58906889  0.16636028  1  0.053862  0  0.101897  0.103483  0  1.019683  0
H  H14  1  0.51630437  0.41063605  0.25549064  1  0.065966  0  0.101798  0.103428  0  1.020051  0
H  H15  1  0.26503388  0.42577895  0.08912949  1  0.085139  0  0.110476  0.136967  0  0.993721  0
H  H16  1  0.81932241  0.35074700  0.24377037  1  0.087088  0  0.110434  0.136879  0  0.993225  0
H  H17  1  0.76412274  0.57392188  0.01494875  1  0.069373  0  0.11053  0.137267  0  0.993344  0
H  H18  1  0.20337778  0.64838326  0.09521015  1  0.119833  0  0.110429  0.137046  0  0.993385  0
H  H19  1  0.23444456  0.57787650  0.23902682  1  0.093333  0  0.109372  0.135761  0  0.995409  0
H  H20  1  0.78239141  0.42193430  0.31704807  1  0.091942  0  0.109213  0.135382  0  0.995203  0
H  H21  1  0.47071856  0.92368737  0.49950075  1  0.029374  0  0.10145  0.102447  0  1.020601  0
H  H22  1  0.47953251  0.83425916  0.41064570  1  0.053324  0  0.101901  0.103135  0  1.020075  0
H  H23  1  0.47420415  0.74531006  0.58874929  1  0.057683  0  0.101705  0.103087  0  1.020669  0
H  H24  1  0.72479850  0.91189437  0.57326061  1  0.074314  0  0.110557  0.136452  0  0.994472  0
H  H25  1  0.17852983  0.75677332  0.64877240  1  0.083646  0  0.110566  0.136927  0  0.993216  0
H  H26  1  0.23303180  0.98766140  0.42377764  1  0.101704  0  0.110568  0.137209  0  0.992881  0
H  H27  1  0.78981595  0.90348823  0.35291790  1  0.058093  0  0.110249  0.135881  0  0.995129  0
H  H28  1  0.75184595  0.76163675  0.42190911  1  0.078994  0  0.109349  0.135581  0  0.995363  0
H  H29  1  0.21044227  0.68337401  0.57767011  1  0.076063  0  0.109235  0.135547  0  0.995122  0
C  C30  1  0.49561561  0.57368267  0.50001820  1  1.631686  0  0.27887  0.697157  0  4.053403  0
C  C31  1  0.50204419  0.42649584  0.57343696  1  1.621661  0  0.279395  0.698796  0  4.051495  0
C  C32  1  0.50221397  0.49998062  0.42649030  1  1.628055  0  0.279492  0.698106  0  4.050603  0
C  C33  1  0.44558861  0.90674951  0.83276388  1  1.652191  0  0.289568  0.71114  0  4.045447  0
C  C34  1  0.45001860  0.75989088  0.90719405  1  1.665695  0  0.288203  0.710912  0  4.045678  0
C  C35  1  0.44822742  0.83212316  0.76040777  1  1.655757  0  0.289626  0.711311  0  4.046054  0
C  C36  1  0.56765584  0.16755326  0.09224950  1  1.659819  0  0.288539  0.710141  0  4.047689  0
C  C37  1  0.56344654  0.23911730  0.16767125  1  1.648663  0  0.289156  0.709339  0  4.048671  0
C  C38  1  0.56580959  0.09249328  0.23911217  1  1.638667  0  0.289283  0.711027  0  4.046884  0
C  C39  1  0.52342286  0.16624372  0.88409120  1  0.016663  0  -0.005238  0.080709  0  4.008837  0
C  C40  1  0.51487914  0.11621411  0.88340098  1  -0.058017  0  -0.086198  -0.169609  0  3.915425  0
C  C41  1  0.50397127  0.11544260  0.83350266  1  0.019584  0  -0.005212  0.080238  0  4.008323  0
C  C42  1  0.50706528  0.16615305  0.78353277  1  -0.058167  0  -0.086694  -0.172943  0  3.918204  0
C  C43  1  0.51124270  0.21692534  0.78279002  1  0.011881  0  -0.005315  0.080587  0  4.006061  0
C  C44  1  0.51711475  0.21626213  0.83344173  1  -0.056621  0  -0.087011  -0.172948  0  3.91856  0
C  C45  1  0.60723085  0.96425589  0.87642340  1  0.442058  0  0.106657  0.301316  0  4.070257  0
C  C46  1  0.62852909  0.01359172  0.87722652  1  0.057778  0  -0.107155  -0.285869  0  3.994552  0
C  C47  1  0.48990348  0.06228430  0.83353867  1  -0.038104  0  -0.002807  0.117787  0  4.02436  0
C  C48  1  0.33315407  0.05964731  0.78993362  1  0.062655  0  -0.107474  -0.283877  0  3.992548  0
C  C49  1  0.32105900  0.00945708  0.79070132  1  0.452229  0  0.107046  0.302399  0  4.068204  0
C  C50  1  0.45594930  0.96038015  0.83347353  1  0.099166  0  -0.024103  -0.260725  0  3.959921  0
C  C51  1  0.39654779  0.12265580  0.98551346  1  -0.011086  0  -0.107232  -0.284566  0  3.993034  0
C  C52  1  0.41295954  0.12375793  0.03466790  1  0.481735  0  0.106721  0.299766  0  4.070432  0
C  C53  1  0.55970434  0.16695598  0.03864362  1  0.062585  0  -0.024408  -0.259551  0  3.959273  0
C  C54  1  0.69582632  0.20964226  0.98988753  1  0.492158  0  0.107003  0.301232  0  4.069335  0
C  C55  1  0.68845518  0.21011300  0.93989882  1  -0.023361  0  -0.107457  -0.2839  0  3.992702  0
C  C56  1  0.53540821  0.16632960  0.93711422  1  0.037241  0  -0.002744  0.116853  0  4.024128  0
C  C57  1  0.65068458  0.31782261  0.72576449  1  0.001701  0  -0.109438  -0.292968  0  3.996725  0
C  C58  1  0.64705301  0.36722725  0.67561705  1  0.449251  0  0.113385  0.314456  0  4.044753  0
C  C59  1  0.50397708  0.37292283  0.62697772  1  0.10405  0  -0.023475  -0.264225  0  3.917318  0
C  C60  1  0.36334595  0.32406975  0.63282339  1  0.448041  0  0.113638  0.314818  0  4.044962  0
C  C61  1  0.36422217  0.27386062  0.68217060  1  -0.007462  0  -0.109893  -0.293404  0  3.997964  0
C  C62  1  0.50873374  0.27003119  0.72973578  1  0.090696  0  0.000588  0.12824  0  4.02402  0
C  C63  1  0.50050451  0.55048604  0.11578585  1  0.007744  0  -0.005485  0.081084  0  4.006686  0
C  C64  1  0.51500514  0.49974274  0.11653686  1  -0.049634  0  -0.086699  -0.171243  0  3.916197  0
C  C65  1  0.52734729  0.44904224  0.16647595  1  0.006583  0  -0.004719  0.08144  0  4.006447  0
C  C66  1  0.52246043  0.44980495  0.21641504  1  -0.053965  0  -0.086633  -0.172378  0  3.917899  0
C  C67  1  0.51144830  0.49985269  0.21710897  1  -0.016268  0  -0.005359  0.080379  0  4.005157  0
C  C68  1  0.50212904  0.54985678  0.16642615  1  -0.015501  0  -0.08679  -0.172878  0  3.91689  0
C  C69  1  0.40921749  0.34081724  0.12426771  1  0.455707  0  0.107125  0.300389  0  4.070329  0
C  C70  1  0.39630425  0.39123811  0.12307032  1  -0.017907  0  -0.107623  -0.28406  0  3.994235  0
C  C71  1  0.53919542  0.39580693  0.16655717  1  0.017988  0  -0.002921  0.116142  0  4.023587  0
C  C72  1  0.69329839  0.34889676  0.21021422  1  0.071848  0  -0.106933  -0.283434  0  3.992776  0
C  C73  1  0.69724518  0.29922119  0.20983541  1  0.449451  0  0.106791  0.300749  0  4.069077  0
C  C74  1  0.55652181  0.29329794  0.16736832  1  0.089025  0  -0.024295  -0.258934  0  3.958281  0
C  C75  1  0.62944203  0.60822710  0.01448847  1  0.025498  0  -0.107735  -0.285138  0  3.993735  0
C  C76  1  0.61163229  0.65842688  0.96520947  1  0.441016  0  0.107192  0.300164  0  4.069313  0
C  C77  1  0.45953839  0.70569397  0.96089765  1  0.076831  0  -0.023981  -0.260003  0  3.958429  0
C  C78  1  0.32000132  0.69975161  0.00948967  1  0.444153  0  0.106469  0.301357  0  4.068561  0
C  C79  1  0.32878581  0.65029272  0.05960807  1  0.024704  0  -0.107124  -0.284308  0  3.991537  0
C  C80  1  0.48662459  0.60360287  0.06269276  1  0.010424  0  -0.002259  0.117791  0  4.0216  0
C  C81  1  0.35999468  0.54357505  0.27409841  1  0.045624  0  -0.110025  -0.292995  0  3.997067  0
C  C82  1  0.35916359  0.54277585  0.32426657  1  0.435792  0  0.113638  0.314572  0  4.045122  0
C  C83  1  0.50404668  0.49989917  0.37298063  1  0.099005  0  -0.023228  -0.263134  0  3.915931  0
C  C84  1  0.65148336  0.45701995  0.36716904  1  0.451345  0  0.113357  0.313812  0  4.045207  0
C  C85  1  0.65515754  0.45621263  0.31780614  1  0.050646  0  -0.109437  -0.291924  0  3.995637  0
C  C86  1  0.50881219  0.49990098  0.27015289  1  -0.005844  0  0.000645  0.127539  0  4.022273  0
C  C87  1  0.48654188  0.88504206  0.44899684  1  -0.053202  0  -0.005462  0.079947  0  4.007553  0
C  C88  1  0.47149691  0.88445701  0.49957404  1  0.016501  0  -0.085897  -0.169626  0  3.914266  0
C  C89  1  0.46059704  0.83449024  0.55023292  1  -0.03078  0  -0.005707  0.080038  0  4.007852  0
C  C90  1  0.46575501  0.78440134  0.54960185  1  -0.022621  0  -0.086225  -0.172022  0  3.916956  0
C  C91  1  0.47533427  0.78358218  0.49969679  1  -0.008748  0  -0.005989  0.080217  0  4.006128  0
C  C92  1  0.48365409  0.83426830  0.44975634  1  -0.024337  0  -0.086158  -0.17197  0  3.919032  0
C  C93  1  0.59175600  0.87616671  0.65849067  1  0.457397  0  0.1075  0.300549  0  4.068709  0
C  C94  1  0.59760789  0.87772760  0.60794923  1  0.022735  0  -0.107971  -0.284013  0  3.992313  0
C  C95  1  0.45344820  0.83430491  0.60342878  1  -0.003188  0  -0.002461  0.117677  0  4.022894  0
C  C96  1  0.30512305  0.79033316  0.65051827  1  0.053777  0  -0.107485  -0.28487  0  3.992347  0
C  C97  1  0.30815309  0.79034985  0.70028811  1  0.483631  0  0.107032  0.301341  0  4.068517  0
C  C98  1  0.45039949  0.83274958  0.70616502  1  0.063156  0  -0.024169  -0.259038  0  3.956876  0
C  C99  1  0.36974891  0.98710981  0.39026452  1  -0.012482  0  -0.107273  -0.285664  0  3.994766  0
C  C100  1  0.39591737  0.03610851  0.33999639  1  0.441373  0  0.106943  0.300863  0  4.068063  0
C  C101  1  0.55092413  0.03922605  0.29360983  1  0.056746  0  -0.024414  -0.259353  0  3.95787  0
C  C102  1  0.68502492  0.98975193  0.30055093  1  0.469666  0  0.107084  0.300916  0  4.070162  0
C  C103  1  0.66816758  0.93989248  0.35012136  1  0.070222  0  -0.106942  -0.28204  0  3.991927  0
C  C104  1  0.50686617  0.93797537  0.39586222  1  0.034908  0  -0.003234  0.117034  0  4.023  0
C  C105  1  0.62856688  0.72647850  0.45618705  1  0.054699  0  -0.10941  -0.292626  0  3.995598  0
C  C106  1  0.63239663  0.67617228  0.45710519  1  0.452816  0  0.112877  0.314639  0  4.046551  0
C  C107  1  0.49099732  0.62732567  0.49999462  1  0.094968  0  -0.022689  -0.264524  0  3.918777  0
C  C108  1  0.34384451  0.63312280  0.54278009  1  0.451901  0  0.113812  0.31457  0  4.043208  0
C  C109  1  0.33710289  0.68262793  0.54345972  1  0.058698  0  -0.109562  -0.291814  0  3.994839  0
C  C110  1  0.48002282  0.73040361  0.49975882  1  -0.001351  0  0.000253  0.12752  0  4.022615  0
O  O111  1  0.73897405  0.47462085  0.46009425  1  -1.245697  0  -0.232556  -0.593496  0  2.381346  0
O  O112  1  0.73344477  0.56551264  0.47468602  1  -1.240323  0  -0.231853  -0.592107  0  2.377304  0
O  O113  1  0.73678893  0.46016742  0.56518873  1  -1.246388  0  -0.232394  -0.594399  0  2.382102  0
O  O114  1  0.26430832  0.52538791  0.43469058  1  -1.243314  0  -0.232251  -0.593401  0  2.378336  0
O  O115  1  0.26597980  0.43466857  0.53989614  1  -1.242983  0  -0.232455  -0.593223  0  2.379343  0
O  O116  1  0.26075209  0.53994698  0.52538367  1  -1.247314  0  -0.232605  -0.593421  0  2.382712  0
O  O117  1  0.68433618  0.80668152  0.79382996  1  -1.241249  0  -0.225622  -0.584  0  2.350498  0
O  O118  1  0.67948387  0.89833281  0.80710395  1  -1.242509  0  -0.22698  -0.586441  0  2.355199  0
O  O119  1  0.68282980  0.79373507  0.89883120  1  -1.243206  0  -0.225222  -0.585045  0  2.354668  0
O  O120  1  0.20914550  0.85739550  0.76822822  1  -1.24275  0  -0.224791  -0.584408  0  2.361914  0
O  O121  1  0.21125452  0.76743164  0.87453799  1  -1.241381  0  -0.223209  -0.582521  0  2.358252  0
O  O122  1  0.20622982  0.87431221  0.85776455  1  -1.241245  0  -0.223579  -0.581773  0  2.35776  0
O  O123  1  0.80600067  0.12469849  0.23174754  1  -1.231559  0  -0.22244  -0.581069  0  2.360851  0
O  O124  1  0.80784430  0.14236456  0.12476014  1  -1.236725  0  -0.223377  -0.582235  0  2.360222  0
O  O125  1  0.80288001  0.23160438  0.14236198  1  -1.24023  0  -0.223801  -0.583189  0  2.363112  0
O  O126  1  0.33449554  0.10094812  0.20484861  1  -1.234616  0  -0.227129  -0.587433  0  2.353541  0
O  O127  1  0.32940874  0.20543566  0.19293475  1  -1.241048  0  -0.225954  -0.583843  0  2.352283  0
O  O128  1  0.33271049  0.19310324  0.10069579  1  -1.244257  0  -0.225743  -0.584595  0  2.351726  0
F  F129  1  0.16766689  0.00752566  0.74832666  1  -0.626291  0  -0.092617  -0.126703  0  1.314567  0
F  F130  1  0.74344549  0.91758250  0.91886107  1  -0.625439  0  -0.091806  -0.124982  0  1.321288  0
F  F131  1  0.27688301  0.08130954  0.08107823  1  -0.631025  0  -0.091675  -0.124494  0  1.320696  0
F  F132  1  0.84579100  0.25216526  0.99198835  1  -0.62663  0  -0.092883  -0.126587  0  1.315011  0
F  F133  1  0.78661044  0.41173697  0.67484883  1  -0.617295  0  -0.088729  -0.121688  0  1.34186  0
F  F134  1  0.22178077  0.32470122  0.58850589  1  -0.619607  0  -0.088747  -0.121831  0  1.342364  0
F  F135  1  0.84795176  0.25426082  0.25226867  1  -0.627527  0  -0.092653  -0.126471  0  1.316752  0
F  F136  1  0.26881477  0.33702030  0.08202729  1  -0.62216  0  -0.091925  -0.125144  0  1.319691  0
F  F137  1  0.75234121  0.66225547  0.91904330  1  -0.623583  0  -0.092036  -0.124813  0  1.319316  0
F  F138  1  0.16557376  0.74448471  0.00713578  1  -0.624976  0  -0.092308  -0.126243  0  1.315449  0
F  F139  1  0.21316616  0.58640751  0.32498211  1  -0.621383  0  -0.088576  -0.121773  0  1.343104  0
F  F140  1  0.79561265  0.41340056  0.41152361  1  -0.623474  0  -0.088645  -0.121728  0  1.342988  0
F  F141  1  0.16311301  0.74760471  0.74540918  1  -0.63207  0  -0.092678  -0.126393  0  1.31768  0
F  F142  1  0.73375535  0.91833576  0.66223078  1  -0.619802  0  -0.092011  -0.125062  0  1.318414  0
F  F143  1  0.26113946  0.08322607  0.33518642  1  -0.621104  0  -0.091394  -0.124508  0  1.321416  0
F  F144  1  0.84249901  0.99096099  0.25673816  1  -0.620888  0  -0.092849  -0.126806  0  1.314195  0
F  F145  1  0.77787175  0.67545958  0.41359253  1  -0.61839  0  -0.088416  -0.121465  0  1.343854  0
F  F146  1  0.20330572  0.58861974  0.58643691  1  -0.623506  0  -0.088784  -0.121751  0  1.342143  0
