# generated using pymatgen
data_CdH2C2N4O3
_symmetry_space_group_name_H-M   'P 1'
_cell_length_a   8.86222049
_cell_length_b   8.86429669
_cell_length_c   10.20192833
_cell_angle_alpha   103.24102876
_cell_angle_beta   103.23613871
_cell_angle_gamma   118.21087078
_symmetry_Int_Tables_number   1
_chemical_formula_structural   CdH2C2N4O3
_chemical_formula_sum   'Cd4 H8 C8 N16 O12'
_cell_volume   632.10297443
_cell_formula_units_Z   4
loop_
 _symmetry_equiv_pos_site_id
 _symmetry_equiv_pos_as_xyz
  1  'x, y, z'
loop_
 _atom_site_type_symbol
 _atom_site_label
 _atom_site_symmetry_multiplicity
 _atom_site_fract_x
 _atom_site_fract_y
 _atom_site_fract_z
 _atom_site_occupancy
 _atom_site_hle17_bader_spin_density
 _atom_site_hle17_ddec_charge
 _atom_site_hle17_ddec_spin_density
 _atom_site_hle17_ddec_sum_bond_order
 _atom_site_hle17_magmom
 _atom_site_hse06_10hf_bader_spin_density
 _atom_site_hse06_10hf_ddec_charge
 _atom_site_hse06_10hf_ddec_spin_density
 _atom_site_hse06_10hf_ddec_sum_bond_order
 _atom_site_hse06_10hf_magmom
 _atom_site_hse06_bader_spin_density
 _atom_site_hse06_ddec_charge
 _atom_site_hse06_ddec_spin_density
 _atom_site_hse06_ddec_sum_bond_order
 _atom_site_hse06_magmom
 _atom_site_pbe_bader_spin_density
 _atom_site_pbe_cm5_charge
 _atom_site_pbe_ddec_charge
 _atom_site_pbe_ddec_spin_density
 _atom_site_pbe_ddec_sum_bond_order
 _atom_site_pbe_magmom
Cd  Cd0  1  0.96305912  0.46308865  0.92605826  1  0  1.076145  0  1.752924  0  0  0.855073  0  2.217462  0  0  0.910749  0  2.170611  0  0  0.810107  0.814657  0  2.249784  0
Cd  Cd1  1  0.71295664  0.71300433  0.42605429  1  0  1.075908  0  1.754053  0  0  0.854884  0  2.218758  0  0  0.910545  0  2.171882  0  0  0.810213  0.814496  0  2.251083  0
Cd  Cd2  1  0.23713520  0.23711713  0.47428070  1  0  1.177628  0  1.609816  0  0  0.987265  0  2.052766  0  0  1.043549  0  1.995351  0  0  0.79814  0.946887  0  2.092599  0
Cd  Cd3  1  0.48715567  0.98715348  0.97425433  1  0  1.178029  0  1.608957  0  0  0.98774  0  2.051907  0  0  1.044032  0  1.994471  0  0  0.798131  0.947349  0  2.091755  0
H  H4  1  0.33949060  0.61164448  0.61086808  1  0  0.386289  0  0.933862  0  0  0.340406  0  1.022489  0  0  0.351456  0  1.006719  0  0  0.280301  0.332552  0  1.033674  0
H  H5  1  0.27150056  0.99926762  0.61085438  1  0  0.384155  0  0.93636  0  0  0.338523  0  1.02458  0  0  0.349525  0  1.008892  0  0  0.27941  0.330675  0  1.035755  0
H  H6  1  0.86153767  0.08933221  0.11090965  1  0  0.386052  0  0.934247  0  0  0.340126  0  1.022915  0  0  0.351182  0  1.007145  0  0  0.280181  0.33227  0  1.034096  0
H  H7  1  0.24934713  0.02148216  0.11097258  1  0  0.38395  0  0.936705  0  0  0.338292  0  1.024969  0  0  0.349296  0  1.009278  0  0  0.279253  0.33044  0  1.036147  0
H  H8  1  0.18792367  0.46573123  0.65690190  1  0  0.413705  0  0.894903  0  0  0.382669  0  0.958371  0  0  0.394103  0  0.941829  0  0  0.281893  0.374496  0  0.970188  0
H  H9  1  0.46910674  0.19123705  0.65693226  1  0  0.416558  0  0.89089  0  0  0.385354  0  0.954727  0  0  0.396806  0  0.938162  0  0  0.283127  0.377206  0  0.966497  0
H  H10  1  0.71559326  0.93776949  0.15693880  1  0  0.414025  0  0.894418  0  0  0.382968  0  0.958013  0  0  0.394416  0  0.941451  0  0  0.281998  0.37479  0  0.969835  0
H  H11  1  0.44130172  0.21907411  0.15698234  1  0  0.416665  0  0.890661  0  0  0.38559  0  0.954329  0  0  0.397046  0  0.937755  0  0  0.283213  0.37744  0  0.966104  0
C  C12  1  0.80501385  0.06335842  0.69175506  1  0  0.160585  0  3.777416  0  0  0.141769  0  4.039014  0  0  0.145141  0  4.05567  0  0  0.213793  0.139141  0  4.028056  0
C  C13  1  0.88668091  0.62830881  0.69165016  1  0  0.158058  0  3.779616  0  0  0.138761  0  4.042002  0  0  0.142168  0  4.058591  0  0  0.212652  0.136221  0  4.030885  0
C  C14  1  0.31326703  0.55493997  0.19176283  1  0  0.160935  0  3.776833  0  0  0.14205  0  4.03849  0  0  0.145468  0  4.055083  0  0  0.213678  0.13944  0  4.027509  0
C  C15  1  0.87847168  0.63690240  0.19181697  1  0  0.158959  0  3.7781  0  0  0.13919  0  4.041094  0  0  0.14259  0  4.057675  0  0  0.212783  0.136667  0  4.029961  0
C  C16  1  0.97292310  0.17780004  0.66473461  1  0  0.632525  0  3.932243  0  0  0.583175  0  4.220449  0  0  0.618119  0  4.212268  0  0  0.219996  0.559486  0  4.225109  0
C  C17  1  0.69181344  0.48683912  0.66467131  1  0  0.63211  0  3.932948  0  0  0.58302  0  4.220872  0  0  0.617944  0  4.212637  0  0  0.219676  0.559315  0  4.22547  0
C  C18  1  0.42787954  0.72285255  0.16484430  1  0  0.632347  0  3.931274  0  0  0.583164  0  4.219304  0  0  0.618103  0  4.211102  0  0  0.220147  0.559467  0  4.223963  0
C  C19  1  0.73694945  0.44205493  0.16487563  1  0  0.632146  0  3.932631  0  0  0.583299  0  4.220539  0  0  0.618238  0  4.212288  0  0  0.220228  0.559588  0  4.225138  0
N  N20  1  0.76234328  0.13194526  0.79771008  1  0  -0.249955  0  3.132358  0  0  -0.200498  0  3.406115  0  0  -0.213668  0  3.423645  0  0  -0.213581  -0.191408  0  3.394137  0
N  N21  1  0.03532008  0.66572460  0.79762366  1  0  -0.251052  0  3.133636  0  0  -0.201654  0  3.407819  0  0  -0.214788  0  3.425301  0  0  -0.214011  -0.192194  0  3.395765  0
N  N22  1  0.38177038  0.51225161  0.29773455  1  0  -0.250595  0  3.132741  0  0  -0.20125  0  3.406667  0  0  -0.214436  0  3.424176  0  0  -0.214055  -0.192168  0  3.394693  0
N  N23  1  0.91590855  0.78553844  0.29776552  1  0  -0.251161  0  3.132708  0  0  -0.201727  0  3.40703  0  0  -0.214837  0  3.424501  0  0  -0.214041  -0.192288  0  3.394984  0
N  N24  1  0.60008960  0.98922095  0.78269646  1  0  -0.095334  0  3.103785  0  0  -0.056691  0  3.39978  0  0  -0.064949  0  3.41451  0  0  -0.092915  -0.050786  0  3.389604  0
N  N25  1  0.18254593  0.79348998  0.78263024  1  0  -0.093046  0  3.104618  0  0  -0.054151  0  3.400154  0  0  -0.062393  0  3.414878  0  0  -0.09167  -0.048257  0  3.389869  0
N  N26  1  0.23902761  0.34997772  0.28264167  1  0  -0.094854  0  3.102508  0  0  -0.056095  0  3.398235  0  0  -0.064347  0  3.412974  0  0  -0.092719  -0.050198  0  3.388065  0
N  N27  1  0.04358930  0.93270558  0.28266759  1  0  -0.093394  0  3.105084  0  0  -0.054471  0  3.400625  0  0  -0.062719  0  3.41534  0  0  -0.091875  -0.048575  0  3.390351  0
N  N28  1  0.54623027  0.83817719  0.67191769  1  0  -0.041381  0  2.996924  0  0  -0.021264  0  3.271764  0  0  -0.020334  0  3.283989  0  0  -0.062613  -0.021799  0  3.263495  0
N  N29  1  0.12560198  0.83372334  0.67182210  1  0  -0.041995  0  2.996012  0  0  -0.022227  0  3.27116  0  0  -0.021289  0  3.283363  0  0  -0.062389  -0.022669  0  3.262918  0
N  N30  1  0.08799233  0.29612421  0.17182247  1  0  -0.04137  0  2.996398  0  0  -0.021253  0  3.271226  0  0  -0.020321  0  3.28346  0  0  -0.062493  -0.02179  0  3.262952  0
N  N31  1  0.08381839  0.87573150  0.17186164  1  0  -0.041688  0  2.996938  0  0  -0.021794  0  3.271893  0  0  -0.020859  0  3.284103  0  0  -0.062405  -0.022232  0  3.263644  0
N  N32  1  0.67297509  0.88213632  0.61299538  1  0  -0.269321  0  3.157891  0  0  -0.21923  0  3.445397  0  0  -0.234591  0  3.460953  0  0  -0.214495  -0.208408  0  3.434566  0
N  N33  1  0.93993714  0.73076765  0.61287303  1  0  -0.267595  0  3.153392  0  0  -0.217303  0  3.440921  0  0  -0.232662  0  3.456446  0  0  -0.214218  -0.206526  0  3.430359  0
N  N34  1  0.13199540  0.42290514  0.11295799  1  0  -0.269404  0  3.157839  0  0  -0.219335  0  3.445475  0  0  -0.234716  0  3.461016  0  0  -0.21437  -0.208513  0  3.434635  0
N  N35  1  0.98093623  0.69010769  0.11300650  1  0  -0.268102  0  3.153211  0  0  -0.217649  0  3.440816  0  0  -0.233009  0  3.456346  0  0  -0.214189  -0.206873  0  3.430244  0
O  O36  1  0.07956578  0.34858723  0.75141860  1  0  -0.608549  0  2.014472  0  0  -0.545118  0  2.24125  0  0  -0.572785  0  2.230211  0  0  -0.307016  -0.52559  0  2.248056  0
O  O37  1  0.67192224  0.40286520  0.75145227  1  0  -0.608663  0  2.01267  0  0  -0.545634  0  2.239915  0  0  -0.573249  0  2.228839  0  0  -0.307437  -0.526074  0  2.246839  0
O  O38  1  0.59866178  0.82947702  0.25154368  1  0  -0.608195  0  2.015654  0  0  -0.544815  0  2.242534  0  0  -0.572496  0  2.231487  0  0  -0.3069  -0.525288  0  2.249347  0
O  O39  1  0.65286685  0.42212695  0.25158100  1  0  -0.608476  0  2.013646  0  0  -0.54541  0  2.240876  0  0  -0.573036  0  2.229796  0  0  -0.307446  -0.525849  0  2.247803  0
O  O40  1  0.99156375  0.09518461  0.55671708  1  0  -0.617907  0  2.025649  0  0  -0.552568  0  2.276464  0  0  -0.582121  0  2.264586  0  0  -0.309638  -0.531864  0  2.284032  0
O  O41  1  0.56515058  0.46139938  0.55662562  1  0  -0.617545  0  2.026706  0  0  -0.551851  0  2.276982  0  0  -0.581387  0  2.265134  0  0  -0.309045  -0.530824  0  2.284306  0
O  O42  1  0.34531537  0.74130804  0.05664684  1  0  -0.618235  0  2.023552  0  0  -0.552857  0  2.274053  0  0  -0.582417  0  2.262178  0  0  -0.309747  -0.532147  0  2.281612  0
O  O43  1  0.71143999  0.31541198  0.05674850  1  0  -0.618037  0  2.025402  0  0  -0.55272  0  2.27586  0  0  -0.582264  0  2.263999  0  0  -0.309547  -0.531688  0  2.283192  0
O  O44  1  0.22195293  0.48616677  0.57298673  1  0  -0.837515  0  1.924388  0  0  -0.773732  0  2.122755  0  0  -0.797495  0  2.088825  0  0  -0.600053  -0.756925  0  2.146504  0
O  O45  1  0.35119051  0.08688528  0.57299606  1  0  -0.837894  0  1.923758  0  0  -0.77409  0  2.122042  0  0  -0.797837  0  2.088098  0  0  -0.600096  -0.757315  0  2.145801  0
O  O46  1  0.73601904  0.97183895  0.07302942  1  0  -0.837559  0  1.924759  0  0  -0.773718  0  2.123088  0  0  -0.797507  0  2.089108  0  0  -0.599945  -0.756893  0  2.146872  0
O  O47  1  0.33699989  0.10109714  0.07308537  1  0  -0.837955  0  1.924091  0  0  -0.774212  0  2.122255  0  0  -0.797962  0  2.088281  0  0  -0.600013  -0.757438  0  2.146037  0
