# generated using pymatgen
data_GdH4C4O7
_symmetry_space_group_name_H-M   'P 1'
_cell_length_a   6.73536985
_cell_length_b   7.47315373
_cell_length_c   7.83601157
_cell_angle_alpha   98.65427201
_cell_angle_beta   113.32822576
_cell_angle_gamma   110.23597719
_symmetry_Int_Tables_number   1
_chemical_formula_structural   GdH4C4O7
_chemical_formula_sum   'Gd2 H8 C8 O14'
_cell_volume   320.35302857
_cell_formula_units_Z   2
loop_
 _symmetry_equiv_pos_site_id
 _symmetry_equiv_pos_as_xyz
  1  'x, y, z'
loop_
 _atom_site_type_symbol
 _atom_site_label
 _atom_site_symmetry_multiplicity
 _atom_site_fract_x
 _atom_site_fract_y
 _atom_site_fract_z
 _atom_site_occupancy
 _atom_site_hle17_bader_spin_density
 _atom_site_hle17_ddec_charge
 _atom_site_hle17_ddec_spin_density
 _atom_site_hle17_ddec_sum_bond_order
 _atom_site_hle17_magmom
 _atom_site_hse06_10hf_bader_spin_density
 _atom_site_hse06_10hf_ddec_charge
 _atom_site_hse06_10hf_ddec_spin_density
 _atom_site_hse06_10hf_ddec_sum_bond_order
 _atom_site_hse06_10hf_magmom
 _atom_site_hse06_bader_spin_density
 _atom_site_hse06_ddec_charge
 _atom_site_hse06_ddec_spin_density
 _atom_site_hse06_ddec_sum_bond_order
 _atom_site_hse06_magmom
 _atom_site_pbe_bader_spin_density
 _atom_site_pbe_cm5_charge
 _atom_site_pbe_ddec_charge
 _atom_site_pbe_ddec_spin_density
 _atom_site_pbe_ddec_sum_bond_order
 _atom_site_pbe_magmom
Gd  Gd0  1  0.17649636  0.30742227  0.53345071  1  0  2.198775  0  1.673405  0  0  2.106458  0  2.002937  0  0  2.160666  0  1.954962  0  0  1.448582  2.064946  0  2.041096  0
Gd  Gd1  1  0.82350108  0.69257825  0.46654821  1  0  2.198768  0  1.673352  0  0  2.106445  0  2.002869  0  0  2.16065  0  1.954897  0  0  1.448589  2.064961  0  2.040989  0
H  H2  1  0.04275037  0.70907159  0.08322616  1  0  0.169536  0  0.888935  0  0  0.184729  0  0.937974  0  0  0.187929  0  0.936785  0  0  0.130965  0.182499  0  0.938954  0
H  H3  1  0.95724866  0.29093500  0.91677926  1  0  0.169501  0  0.888935  0  0  0.184689  0  0.937986  0  0  0.187887  0  0.936795  0  0  0.130943  0.182456  0  0.938965  0
H  H4  1  0.35745991  0.83527224  0.17571463  1  0  0.154821  0  0.935446  0  0  0.163186  0  0.995572  0  0  0.167463  0  0.993057  0  0  0.117496  0.160138  0  0.997564  0
H  H5  1  0.64253593  0.16473436  0.82428585  1  0  0.154769  0  0.935478  0  0  0.163172  0  0.995566  0  0  0.167428  0  0.993078  0  0  0.11749  0.160119  0  0.997559  0
H  H6  1  0.72633085  0.21631731  0.18872966  1  0  0.441955  0  0.853755  0  0  0.412316  0  0.915007  0  0  0.42376  0  0.898169  0  0  0.306343  0.404224  0  0.926886  0
H  H7  1  0.27366977  0.78367714  0.81127207  1  0  0.441925  0  0.853808  0  0  0.412333  0  0.915006  0  0  0.423777  0  0.898168  0  0  0.306345  0.404244  0  0.926877  0
H  H8  1  0.75623886  0.00863320  0.16484392  1  0  0.444353  0  0.847551  0  0  0.416376  0  0.905097  0  0  0.427855  0  0.888192  0  0  0.306697  0.40819  0  0.917139  0
H  H9  1  0.24376744  0.99136578  0.83515912  1  0  0.444357  0  0.847557  0  0  0.416374  0  0.905116  0  0  0.427856  0  0.888207  0  0  0.306684  0.408185  0  0.917163  0
C  C10  1  0.21884714  0.97298635  0.32932791  1  0  0.748415  0  3.822106  0  0  0.704023  0  4.123797  0  0  0.737357  0  4.116289  0  0  0.212835  0.6814  0  4.127849  0
C  C11  1  0.78114949  0.02701569  0.67067222  1  0  0.748391  0  3.822255  0  0  0.703952  0  4.124007  0  0  0.737285  0  4.116496  0  0  0.212822  0.681331  0  4.128056  0
C  C12  1  0.21808941  0.78724102  0.22002428  1  0  -0.433343  0  3.603305  0  0  -0.466786  0  3.839044  0  0  -0.477322  0  3.838676  0  0  -0.154058  -0.459861  0  3.83941  0
C  C13  1  0.78192017  0.21276704  0.77997989  1  0  -0.433247  0  3.603255  0  0  -0.466683  0  3.838979  0  0  -0.477202  0  3.83863  0  0  -0.154032  -0.459752  0  3.839335  0
C  C14  1  0.51486905  0.60496183  0.99222570  1  0  0.579165  0  3.886298  0  0  0.52795  0  4.195865  0  0  0.558303  0  4.18592  0  0  0.229781  0.50731  0  4.201841  0
C  C15  1  0.48514280  0.39502956  0.00778587  1  0  0.579054  0  3.886754  0  0  0.527731  0  4.196441  0  0  0.558087  0  4.186495  0  0  0.229766  0.507089  0  4.202418  0
C  C16  1  0.24534383  0.63945970  0.32924333  1  0  0.793551  0  3.775304  0  0  0.746894  0  4.079086  0  0  0.782858  0  4.066914  0  0  0.239064  0.722432  0  4.08632  0
C  C17  1  0.75466009  0.36054687  0.67075995  1  0  0.793486  0  3.775465  0  0  0.746809  0  4.079281  0  0  0.782774  0  4.067107  0  0  0.239018  0.72235  0  4.086505  0
O  O18  1  0.14737898  0.96251384  0.46016275  1  0  -0.812961  0  2.157904  0  0  -0.765622  0  2.412965  0  0  -0.793991  0  2.406259  0  0  -0.442941  -0.74509  0  2.416574  0
O  O19  1  0.85261849  0.03749578  0.53983872  1  0  -0.81288  0  2.157757  0  0  -0.765528  0  2.412834  0  0  -0.79391  0  2.406151  0  0  -0.442909  -0.744994  0  2.416439  0
O  O20  1  0.28708919  0.13473972  0.29411693  1  0  -0.607884  0  1.924914  0  0  -0.569648  0  2.150661  0  0  -0.592418  0  2.143443  0  0  -0.319138  -0.553615  0  2.155002  0
O  O21  1  0.71290993  0.86526989  0.70588128  1  0  -0.607879  0  1.925161  0  0  -0.569617  0  2.150896  0  0  -0.592381  0  2.143672  0  0  -0.31915  -0.553595  0  2.15524  0
O  O22  1  0.66963720  0.75578176  0.14760750  1  0  -0.654878  0  2.126083  0  0  -0.605219  0  2.362216  0  0  -0.630753  0  2.354164  0  0  -0.331146  -0.587207  0  2.367266  0
O  O23  1  0.33035537  0.24419756  0.85238039  1  0  -0.654935  0  2.125927  0  0  -0.605275  0  2.362144  0  0  -0.630816  0  2.354091  0  0  -0.331216  -0.587253  0  2.367194  0
O  O24  1  0.11446524  0.58251129  0.41111225  1  0  -0.75805  0  2.102576  0  0  -0.713122  0  2.359237  0  0  -0.739944  0  2.349274  0  0  -0.395973  -0.693986  0  2.365248  0
O  O25  1  0.88553547  0.41749529  0.58888737  1  0  -0.758077  0  2.102622  0  0  -0.713129  0  2.359255  0  0  -0.739947  0  2.34929  0  0  -0.396022  -0.694013  0  2.365298  0
O  O26  1  0.38097178  0.60871800  0.82729812  1  0  -0.624033  0  2.142769  0  0  -0.575397  0  2.382547  0  0  -0.599755  0  2.373936  0  0  -0.327497  -0.558257  0  2.388064  0
O  O27  1  0.61902082  0.39127041  0.17269232  1  0  -0.623815  0  2.143296  0  0  -0.575119  0  2.383115  0  0  -0.599468  0  2.374499  0  0  -0.327381  -0.557989  0  2.388637  0
O  O28  1  0.39189862  0.56807965  0.33296620  1  0  -0.746445  0  2.057651  0  0  -0.711728  0  2.31796  0  0  -0.737574  0  2.307464  0  0  -0.372671  -0.693285  0  2.324375  0
O  O29  1  0.60810291  0.43193146  0.66703433  1  0  -0.746377  0  2.057726  0  0  -0.711665  0  2.318059  0  0  -0.737514  0  2.307567  0  0  -0.372583  -0.693221  0  2.324476  0
O  O30  1  0.84320860  0.15847039  0.20881965  1  0  -0.893003  0  1.865751  0  0  -0.85443  0  2.05403  0  0  -0.874449  0  2.021814  0  0  -0.648337  -0.839856  0  2.07651  0
O  O31  1  0.15679203  0.84152406  0.79118080  1  0  -0.893013  0  1.865746  0  0  -0.854468  0  2.053902  0  0  -0.87449  0  2.021686  0  0  -0.648367  -0.839897  0  2.076387  0
