# generated using pymatgen
data_CdH10C10N4O5
_symmetry_space_group_name_H-M   'P 1'
_cell_length_a   7.98940312
_cell_length_b   10.68080300
_cell_length_c   14.80340000
_cell_angle_alpha   93.29235368
_cell_angle_beta   90.00000000
_cell_angle_gamma   90.00000000
_symmetry_Int_Tables_number   1
_chemical_formula_structural   CdH10C10N4O5
_chemical_formula_sum   'Cd4 H40 C40 N16 O20'
_cell_volume   1261.13713541
_cell_formula_units_Z   4
loop_
 _symmetry_equiv_pos_site_id
 _symmetry_equiv_pos_as_xyz
  1  'x, y, z'
loop_
 _atom_site_type_symbol
 _atom_site_label
 _atom_site_symmetry_multiplicity
 _atom_site_fract_x
 _atom_site_fract_y
 _atom_site_fract_z
 _atom_site_occupancy
 _atom_site_hle17_bader_spin_density
 _atom_site_hle17_ddec_charge
 _atom_site_hle17_ddec_spin_density
 _atom_site_hle17_ddec_sum_bond_order
 _atom_site_hle17_magmom
 _atom_site_hse06_10hf_bader_spin_density
 _atom_site_hse06_10hf_ddec_charge
 _atom_site_hse06_10hf_ddec_spin_density
 _atom_site_hse06_10hf_ddec_sum_bond_order
 _atom_site_hse06_10hf_magmom
 _atom_site_hse06_bader_spin_density
 _atom_site_hse06_ddec_charge
 _atom_site_hse06_ddec_spin_density
 _atom_site_hse06_ddec_sum_bond_order
 _atom_site_hse06_magmom
 _atom_site_pbe_bader_charge
 _atom_site_pbe_bader_spin_density
 _atom_site_pbe_cm5_charge
 _atom_site_pbe_ddec_charge
 _atom_site_pbe_ddec_spin_density
 _atom_site_pbe_ddec_sum_bond_order
 _atom_site_pbe_magmom
Cd  Cd0  1  0.00619821  0.09560943  0.62352551  1  0  1.06715  0  1.729524  0  0  0.859316  0  2.179695  0  0  0.913044  0  2.134135  0  1.258073  0  0.793927  0.820281  0  2.211359  0
Cd  Cd1  1  0.50620052  0.40439084  0.37647406  1  0  1.067144  0  1.729525  0  0  0.859305  0  2.179703  0  0  0.913031  0  2.134143  0  1.258078  0  0.793922  0.820267  0  2.211367  0
Cd  Cd2  1  0.99380265  0.90439205  0.37647503  1  0  1.067148  0  1.729539  0  0  0.859324  0  2.179721  0  0  0.913051  0  2.13416  0  1.258098  0  0.793927  0.820287  0  2.211386  0
Cd  Cd3  1  0.49380410  0.59560876  0.62352436  1  0  1.067113  0  1.729551  0  0  0.859272  0  2.179749  0  0  0.913  0  2.13419  0  1.258047  0  0.79392  0.820235  0  2.211414  0
H  H4  1  0.71816128  0.91814780  0.67486850  1  0  0.375011  0  0.919751  0  0  0.351972  0  0.987405  0  0  0.362555  0  0.975764  0  0.646506  0  0.29383  0.344426  0  0.995758  0
H  H5  1  0.21816148  0.58185395  0.32513161  1  0  0.375044  0  0.919674  0  0  0.351998  0  0.987353  0  0  0.362582  0  0.97571  0  0.646499  0  0.293824  0.344451  0  0.99571  0
H  H6  1  0.28183958  0.08185368  0.32513136  1  0  0.375005  0  0.91975  0  0  0.351967  0  0.987404  0  0  0.362548  0  0.975766  0  0.646479  0  0.293816  0.344422  0  0.995755  0
H  H7  1  0.78184189  0.41814753  0.67486892  1  0  0.375008  0  0.919745  0  0  0.351974  0  0.987395  0  0  0.362557  0  0.975749  0  0.646498  0  0.293825  0.344431  0  0.995739  0
H  H8  1  0.21688354  0.66508526  0.46095275  1  0  0.0936  0  0.97696  0  0  0.101672  0  1.042757  0  0  0.104671  0  1.038873  0  0.167666  0  0.131018  0.099363  0  1.045716  0
H  H9  1  0.71688459  0.83491368  0.53904656  1  0  0.093613  0  0.976964  0  0  0.101681  0  1.042768  0  0  0.104681  0  1.038883  0  0.167667  0  0.131035  0.099372  0  1.045731  0
H  H10  1  0.78311607  0.33491528  0.53904774  1  0  0.093609  0  0.976982  0  0  0.101686  0  1.042776  0  0  0.104686  0  1.038892  0  0.167652  0  0.131032  0.099374  0  1.045745  0
H  H11  1  0.28311502  0.16508593  0.46095187  1  0  0.093593  0  0.977002  0  0  0.101659  0  1.042794  0  0  0.104659  0  1.038909  0  0.167644  0  0.131029  0.099345  0  1.045768  0
H  H12  1  0.24471916  0.86079621  0.71514033  1  0  0.089785  0  0.972272  0  0  0.091482  0  1.048312  0  0  0.095376  0  1.042371  0  0.20152  0  0.127064  0.08864  0  1.052597  0
H  H13  1  0.74471896  0.63920554  0.28485910  1  0  0.089796  0  0.972257  0  0  0.091496  0  1.048294  0  0  0.095395  0  1.042348  0  0.201377  0  0.127051  0.088654  0  1.052579  0
H  H14  1  0.75528296  0.13920527  0.28485885  1  0  0.0898  0  0.972232  0  0  0.091503  0  1.048266  0  0  0.0954  0  1.042322  0  0.201378  0  0.127057  0.088662  0  1.05255  0
H  H15  1  0.25528315  0.36079688  0.71514013  1  0  0.089802  0  0.972263  0  0  0.091496  0  1.048305  0  0  0.095394  0  1.04236  0  0.201463  0  0.127062  0.088656  0  1.052589  0
H  H16  1  0.67634214  0.43053034  0.81505940  1  0  0.115391  0  0.947125  0  0  0.120848  0  1.011885  0  0  0.124951  0  1.009167  0  0.113176  0  0.112039  0.117836  0  1.014013  0
H  H17  1  0.17634359  0.06946900  0.18494081  1  0  0.115438  0  0.947052  0  0  0.120863  0  1.011852  0  0  0.124969  0  1.009126  0  0.113187  0  0.112041  0.117851  0  1.01398  0
H  H18  1  0.32365497  0.56946927  0.18494241  1  0  0.115411  0  0.947107  0  0  0.120843  0  1.011908  0  0  0.124947  0  1.009189  0  0.113169  0  0.112045  0.117831  0  1.014037  0
H  H19  1  0.82365602  0.93053061  0.81505897  1  0  0.11543  0  0.947057  0  0  0.12086  0  1.011855  0  0  0.124963  0  1.009137  0  0.113195  0  0.112048  0.117847  0  1.013985  0
H  H20  1  0.62405914  0.54516787  0.96299700  1  0  0.11046  0  0.978743  0  0  0.114147  0  1.051213  0  0  0.117581  0  1.049055  0  0.123408  0  0.109466  0.111591  0  1.052996  0
H  H21  1  0.12406058  0.95483106  0.03700299  1  0  0.110438  0  0.978715  0  0  0.114124  0  1.051185  0  0  0.117555  0  1.049034  0  0.12341  0  0.109459  0.111567  0  1.052968  0
H  H22  1  0.37593922  0.45483361  0.03700421  1  0  0.11046  0  0.978728  0  0  0.11413  0  1.051209  0  0  0.117562  0  1.04905  0  0.123365  0  0.109463  0.111574  0  1.052992  0
H  H23  1  0.87593778  0.04516666  0.96299739  1  0  0.110445  0  0.978726  0  0  0.114125  0  1.051216  0  0  0.117556  0  1.049059  0  0.123367  0  0.109462  0.11157  0  1.052998  0
H  H24  1  0.99354606  0.31996382  0.08952727  1  0  0.123414  0  0.936402  0  0  0.130839  0  0.996715  0  0  0.13452  0  0.994384  0  0.126798  0  0.116029  0.128251  0  0.998274  0
H  H25  1  0.49355001  0.18003457  0.91047154  1  0  0.123455  0  0.936306  0  0  0.130853  0  0.996655  0  0  0.134542  0  0.994306  0  0.126782  0  0.116038  0.128265  0  0.998213  0
H  H26  1  0.00644854  0.68003672  0.91047322  1  0  0.123481  0  0.936313  0  0  0.130841  0  0.996695  0  0  0.134523  0  0.994357  0  0.126789  0  0.116053  0.128255  0  0.998255  0
H  H27  1  0.50644835  0.81996316  0.08952681  1  0  0.123497  0  0.936284  0  0  0.130888  0  0.996637  0  0  0.134575  0  0.994295  0  0.126779  0  0.116057  0.1283  0  0.998196  0
H  H28  1  0.05251081  0.20798122  0.93903206  1  0  0.098719  0  0.974456  0  0  0.103882  0  1.043607  0  0  0.106528  0  1.043377  0  0.110895  0  0.101851  0.101996  0  1.043944  0
H  H29  1  0.55251437  0.29201811  0.06096748  1  0  0.098708  0  0.974495  0  0  0.103875  0  1.04364  0  0  0.106522  0  1.043408  0  0.110979  0  0.101847  0.10199  0  1.043977  0
H  H30  1  0.94748630  0.79202026  0.06096848  1  0  0.098719  0  0.974519  0  0  0.103886  0  1.04366  0  0  0.106531  0  1.043431  0  0.110964  0  0.101846  0.102  0  1.043997  0
H  H31  1  0.44748524  0.70797962  0.93903155  1  0  0.098733  0  0.974521  0  0  0.1039  0  1.043658  0  0  0.106544  0  1.043431  0  0.11095  0  0.101849  0.102014  0  1.043995  0
H  H32  1  0.55361457  0.11276098  0.69798954  1  0  0.077327  0  0.942132  0  0  0.094699  0  1.006422  0  0  0.095867  0  1.005235  0  0.075481  0  0.088261  0.093741  0  1.007414  0
H  H33  1  0.05361477  0.38724023  0.30201075  1  0  0.077326  0  0.94211  0  0  0.094703  0  1.006385  0  0  0.095872  0  1.005197  0  0.075502  0  0.088242  0.093746  0  1.007378  0
H  H34  1  0.44638629  0.88723956  0.30201095  1  0  0.077324  0  0.942139  0  0  0.094704  0  1.00641  0  0  0.095872  0  1.005225  0  0.075496  0  0.088249  0.093746  0  1.007403  0
H  H35  1  0.94638609  0.61276219  0.69798915  1  0  0.077309  0  0.942155  0  0  0.094688  0  1.006426  0  0  0.095858  0  1.005238  0  0.075488  0  0.08824  0.093731  0  1.007419  0
H  H36  1  0.48070299  0.99562286  0.61603294  1  0  0.068098  0  0.953114  0  0  0.084324  0  1.023828  0  0  0.084389  0  1.024547  0  0.025082  0  0.08818  0.084184  0  1.023412  0
H  H37  1  0.98070405  0.50437795  0.38396645  1  0  0.068146  0  0.95302  0  0  0.08434  0  1.023766  0  0  0.084405  0  1.024484  0  0.025092  0  0.088156  0.084197  0  1.023354  0
H  H38  1  0.51929662  0.00437768  0.38396688  1  0  0.0681  0  0.953076  0  0  0.084327  0  1.023779  0  0  0.084392  0  1.024497  0  0.025082  0  0.088164  0.084183  0  1.023367  0
H  H39  1  0.01929806  0.49562540  0.61603281  1  0  0.068139  0  0.953057  0  0  0.084335  0  1.023802  0  0  0.0844  0  1.02452  0  0.024833  0  0.088168  0.084191  0  1.02339  0
H  H40  1  0.59640626  0.12744235  0.58067228  1  0  0.07404  0  0.968508  0  0  0.089565  0  1.03787  0  0  0.089462  0  1.039334  0  0.051172  0  0.090421  0.089563  0  1.036905  0
H  H41  1  0.09640645  0.37255698  0.41932860  1  0  0.074058  0  0.968458  0  0  0.089542  0  1.037849  0  0  0.089439  0  1.039312  0  0.051142  0  0.090416  0.089541  0  1.036883  0
H  H42  1  0.40359335  0.87255631  0.41932881  1  0  0.07409  0  0.968427  0  0  0.089553  0  1.037837  0  0  0.08945  0  1.0393  0  0.051139  0  0.090428  0.089552  0  1.036871  0
H  H43  1  0.90359316  0.62744544  0.58067062  1  0  0.074073  0  0.968404  0  0  0.089548  0  1.037816  0  0  0.089446  0  1.039279  0  0.051109  0  0.090424  0.089546  0  1.036851  0
C  C44  1  0.19997614  0.73549956  0.51619497  1  0  0.197649  0  3.731701  0  0  0.142895  0  4.003928  0  0  0.156589  0  4.017383  0  0.949347  0  0.133834  0.133917  0  3.99466  0
C  C45  1  0.69997720  0.76450031  0.48380574  1  0  0.197581  0  3.73169  0  0  0.142821  0  4.003923  0  0  0.156513  0  4.017381  0  0.949322  0  0.133809  0.133842  0  3.994654  0
C  C46  1  0.80002347  0.26450098  0.48380553  1  0  0.197622  0  3.731757  0  0  0.14285  0  4.004011  0  0  0.156544  0  4.017466  0  0.949344  0  0.133794  0.133872  0  3.994741  0
C  C47  1  0.30002241  0.23549836  0.51619468  1  0  0.19765  0  3.73172  0  0  0.142921  0  4.003927  0  0  0.156614  0  4.017381  0  0.949337  0  0.133846  0.133942  0  3.994658  0
C  C48  1  0.21480078  0.83356886  0.64525291  1  0  0.215748  0  3.724955  0  0  0.161973  0  3.993227  0  0  0.176135  0  4.006258  0  0.940569  0  0.138774  0.152574  0  3.984164  0
C  C49  1  0.71480058  0.66643383  0.35474656  1  0  0.215654  0  3.725064  0  0  0.16187  0  3.993336  0  0  0.176034  0  4.006363  0  0.940252  0  0.13876  0.152472  0  3.984271  0
C  C50  1  0.78520134  0.16643262  0.35474695  1  0  0.215637  0  3.725048  0  0  0.161863  0  3.993313  0  0  0.176026  0  4.006341  0  0.940229  0  0.13876  0.152465  0  3.984247  0
C  C51  1  0.28520153  0.33356859  0.64525334  1  0  0.215685  0  3.724995  0  0  0.161914  0  3.993263  0  0  0.176078  0  4.006288  0  0.940139  0  0.138755  0.152516  0  3.984198  0
C  C52  1  0.90527789  0.24107925  0.77923921  1  0  0.633655  0  3.90909  0  0  0.586609  0  4.193919  0  0  0.620445  0  4.188271  0  1.569553  0  0.202159  0.56376  0  4.196678  0
C  C53  1  0.40528059  0.25892009  0.22076032  1  0  0.633563  0  3.909168  0  0  0.586519  0  4.19399  0  0  0.620357  0  4.18834  0  1.569552  0  0.202085  0.56367  0  4.19675  0
C  C54  1  0.09472172  0.75892130  0.22076129  1  0  0.633733  0  3.90904  0  0  0.586712  0  4.193851  0  0  0.62055  0  4.188199  0  1.570073  0  0.202202  0.563862  0  4.196611  0
C  C55  1  0.59472152  0.74107858  0.77924009  1  0  0.633647  0  3.909076  0  0  0.586609  0  4.19391  0  0  0.620445  0  4.18826  0  1.569642  0  0.20215  0.56376  0  4.196668  0
C  C56  1  0.86788461  0.31066922  0.86815101  1  0  -0.033458  0  3.70493  0  0  -0.017077  0  3.941048  0  0  -0.02232  0  3.962269  0  -0.019348  0  -0.004733  -0.013614  0  3.926691  0
C  C57  1  0.36788731  0.18932918  0.13184916  1  0  -0.033464  0  3.704967  0  0  -0.017059  0  3.941038  0  0  -0.022302  0  3.962256  0  -0.019264  0  -0.004716  -0.013597  0  3.926681  0
C  C58  1  0.13211625  0.68933320  0.13185024  1  0  -0.03344  0  3.704999  0  0  -0.017081  0  3.941135  0  0  -0.022326  0  3.962358  0  -0.019642  0  -0.004724  -0.013617  0  3.926777  0
C  C59  1  0.63211731  0.81066668  0.86815114  1  0  -0.033468  0  3.704965  0  0  -0.0171  0  3.941095  0  0  -0.022346  0  3.962317  0  -0.019636  0  -0.004756  -0.013636  0  3.926737  0
C  C60  1  0.74664902  0.40579755  0.87444973  1  0  -0.048954  0  3.675505  0  0  -0.071594  0  3.924598  0  0  -0.072995  0  3.943615  0  -0.040421  0  -0.072812  -0.070651  0  3.911713  0
C  C61  1  0.24665047  0.09420272  0.12554985  1  0  -0.048942  0  3.675477  0  0  -0.071556  0  3.92455  0  0  -0.072956  0  3.943568  0  -0.040518  0  -0.072796  -0.070613  0  3.911667  0
C  C62  1  0.25335184  0.59420205  0.12555006  1  0  -0.048956  0  3.675407  0  0  -0.071573  0  3.924519  0  0  -0.072973  0  3.943535  0  -0.040458  0  -0.072852  -0.07063  0  3.911634  0
C  C63  1  0.75335165  0.90579689  0.87445128  1  0  -0.048925  0  3.675446  0  0  -0.071541  0  3.924549  0  0  -0.072946  0  3.94358  0  -0.040474  0  -0.072809  -0.070598  0  3.911665  0
C  C64  1  0.71566297  0.47008704  0.95712436  1  0  -0.092162  0  3.716689  0  0  -0.117354  0  3.973807  0  0  -0.118022  0  3.993072  0  0.081777  0  -0.076235  -0.116748  0  3.960775  0
C  C65  1  0.21566567  0.02991229  0.04287585  1  0  -0.092153  0  3.716756  0  0  -0.117367  0  3.973839  0  0  -0.118044  0  3.993117  0  0.081782  0  -0.076246  -0.116761  0  3.960808  0
C  C66  1  0.28433163  0.52991163  0.04287539  1  0  -0.092204  0  3.716688  0  0  -0.117398  0  3.973807  0  0  -0.118064  0  3.993069  0  0.081859  0  -0.076214  -0.116792  0  3.960774  0
C  C67  1  0.78433269  0.97008825  0.95712397  1  0  -0.092171  0  3.716655  0  0  -0.11739  0  3.973747  0  0  -0.118062  0  3.993017  0  0.081833  0  -0.07624  -0.116785  0  3.960716  0
C  C68  1  0.80571100  0.43753294  0.03310562  1  0  0.057661  0  3.721557  0  0  0.053944  0  3.972801  0  0  0.051439  0  3.995174  0  0.100202  0  0.077259  0.055525  0  3.957666  0
C  C69  1  0.30571495  0.06246545  0.96689522  1  0  0.057606  0  3.72172  0  0  0.053972  0  3.97286  0  0  0.051465  0  3.995246  0  0.100175  0  0.077269  0.055552  0  3.957725  0
C  C70  1  0.19428736  0.56246854  0.96689356  1  0  0.057759  0  3.721578  0  0  0.054089  0  3.972745  0  0  0.051586  0  3.995118  0  0.100168  0  0.077317  0.055672  0  3.957608  0
C  C71  1  0.69428716  0.93753134  0.03310579  1  0  0.057626  0  3.721601  0  0  0.053997  0  3.972726  0  0  0.051494  0  3.9951  0  0.100193  0  0.077305  0.055579  0  3.957589  0
C  C72  1  0.92631576  0.34293916  0.02886170  1  0  -0.087455  0  3.718145  0  0  -0.113983  0  3.975521  0  0  -0.114287  0  3.994281  0  -0.004799  0  -0.075831  -0.113498  0  3.962719  0
C  C73  1  0.42631720  0.15706205  0.97113791  1  0  -0.087433  0  3.718069  0  0  -0.113968  0  3.975434  0  0  -0.114273  0  3.994199  0  -0.004796  0  -0.075844  -0.113482  0  3.962631  0
C  C74  1  0.07368135  0.65706232  0.97113883  1  0  -0.087543  0  3.71802  0  0  -0.114017  0  3.975369  0  0  -0.114321  0  3.994136  0  -0.004757  0  -0.075881  -0.113536  0  3.962572  0
C  C75  1  0.57368115  0.84293755  0.02886187  1  0  -0.087546  0  3.718075  0  0  -0.114068  0  3.975422  0  0  -0.114375  0  3.994186  0  -0.004764  0  -0.075893  -0.113583  0  3.962621  0
C  C76  1  0.95695134  0.28039024  0.94559043  1  0  -0.062391  0  3.711136  0  0  -0.085763  0  3.96646  0  0  -0.087886  0  3.987616  0  -0.000579  0  -0.080533  -0.084458  0  3.952396  0
C  C77  1  0.45695278  0.21961003  0.05440982  1  0  -0.06239  0  3.711152  0  0  -0.085783  0  3.966479  0  0  -0.087906  0  3.987635  0  -0.00065  0  -0.080522  -0.084479  0  3.952414  0
C  C78  1  0.04304577  0.71961124  0.05441213  1  0  -0.062423  0  3.71125  0  0  -0.085788  0  3.966558  0  0  -0.087915  0  3.98772  0  -0.0003  0  -0.080506  -0.084485  0  3.952495  0
C  C79  1  0.54304557  0.78038864  0.94558925  1  0  -0.062411  0  3.711229  0  0  -0.085783  0  3.966543  0  0  -0.087908  0  3.987706  0  -0.000337  0  -0.080489  -0.084481  0  3.95248  0
C  C80  1  0.58349415  0.06089931  0.63379467  1  0  -0.016745  0  3.658151  0  0  -0.112929  0  3.931434  0  0  -0.106341  0  3.93624  0  0.386949  0  -0.16337  -0.117257  0  3.92811  0
C  C81  1  0.08349685  0.43910002  0.36620621  1  0  -0.016878  0  3.658079  0  0  -0.112996  0  3.93139  0  0  -0.106408  0  3.936194  0  0.386974  0  -0.16336  -0.117322  0  3.928069  0
C  C82  1  0.41650421  0.93909935  0.36620642  1  0  -0.01681  0  3.658146  0  0  -0.112929  0  3.931442  0  0  -0.10634  0  3.936245  0  0.386959  0  -0.163343  -0.117254  0  3.928121  0
C  C83  1  0.91650526  0.56090240  0.63379301  1  0  -0.016781  0  3.658037  0  0  -0.112898  0  3.931323  0  0  -0.106311  0  3.936126  0  0.387479  0  -0.163318  -0.117225  0  3.928003  0
N  N84  1  0.11970732  0.90315602  0.59338951  1  0  -0.300428  0  3.185814  0  0  -0.228186  0  3.468377  0  0  -0.246933  0  3.486837  0  -0.7861  0  -0.26393  -0.214837  0  3.455402  0
N  N85  1  0.61970712  0.59684573  0.40661060  1  0  -0.300457  0  3.185893  0  0  -0.228196  0  3.468424  0  0  -0.246943  0  3.486884  0  -0.785582  0  -0.263899  -0.214846  0  3.455448  0
N  N86  1  0.88029605  0.09684546  0.40661035  1  0  -0.300409  0  3.185791  0  0  -0.228163  0  3.468341  0  0  -0.246909  0  3.4868  0  -0.785591  0  -0.263939  -0.214814  0  3.455366  0
N  N87  1  0.38029499  0.40315387  0.59338783  1  0  -0.30043  0  3.18587  0  0  -0.228186  0  3.468419  0  0  -0.246932  0  3.486879  0  -0.785584  0  -0.26389  -0.214836  0  3.455443  0
N  N88  1  0.10992561  0.83967586  0.51002696  1  0  -0.294651  0  3.176741  0  0  -0.228366  0  3.459095  0  0  -0.245755  0  3.47782  0  -0.774732  0  -0.261134  -0.216698  0  3.446164  0
N  N89  1  0.60992667  0.66032401  0.48997307  1  0  -0.294557  0  3.17674  0  0  -0.228272  0  3.459084  0  0  -0.245661  0  3.477811  0  -0.774741  0  -0.261123  -0.216606  0  3.446153  0
N  N90  1  0.89007525  0.16032562  0.48997290  1  0  -0.294635  0  3.176658  0  0  -0.228345  0  3.45902  0  0  -0.245736  0  3.477745  0  -0.774726  0  -0.261103  -0.216678  0  3.446088  0
N  N91  1  0.39007294  0.33967278  0.51002659  1  0  -0.294644  0  3.176827  0  0  -0.228374  0  3.459186  0  0  -0.245763  0  3.477911  0  -0.774704  0  -0.261194  -0.216707  0  3.446254  0
N  N92  1  0.26817898  0.72777672  0.59950845  1  0  -0.44335  0  3.198316  0  0  -0.362437  0  3.480969  0  0  -0.387004  0  3.496016  0  -1.229384  0  -0.361404  -0.345176  0  3.470103  0
N  N93  1  0.76818004  0.77222409  0.40049230  1  0  -0.443272  0  3.19829  0  0  -0.362361  0  3.480949  0  0  -0.386925  0  3.495994  0  -1.229408  0  -0.361417  -0.3451  0  3.470083  0
N  N94  1  0.73182313  0.27222382  0.40049070  1  0  -0.443268  0  3.198343  0  0  -0.362352  0  3.480995  0  0  -0.38692  0  3.496044  0  -1.229399  0  -0.361386  -0.34509  0  3.470127  0
N  N95  1  0.23182082  0.22777645  0.59951023  1  0  -0.443318  0  3.198316  0  0  -0.36242  0  3.480972  0  0  -0.386987  0  3.496017  0  -1.229397  0  -0.361393  -0.345158  0  3.470105  0
N  N96  1  0.77526067  0.50673560  0.11992955  1  0  0.504286  0  3.901143  0  0  0.527459  0  4.206397  0  0  0.549037  0  4.213674  0  0.36578  0  0.056177  0.513045  0  4.201348  0
N  N97  1  0.27526337  0.99326146  0.88007103  1  0  0.504235  0  3.901287  0  0  0.527369  0  4.206562  0  0  0.54894  0  4.213854  0  0.365691  0  0.056159  0.512958  0  4.20151  0
N  N98  1  0.22473894  0.49326494  0.88007094  1  0  0.504233  0  3.901187  0  0  0.527366  0  4.206469  0  0  0.548947  0  4.213744  0  0.365775  0  0.056131  0.512956  0  4.201414  0
N  N99  1  0.72473624  0.00673439  0.11992994  1  0  0.504396  0  3.900951  0  0  0.527552  0  4.206179  0  0  0.54913  0  4.213455  0  0.365778  0  0.05619  0.513142  0  4.201128  0
O  O100  1  0.99723470  0.14362421  0.78017888  1  0  -0.610642  0  1.947093  0  0  -0.549395  0  2.18588  0  0  -0.577779  0  2.177205  0  -1.144242  0  -0.325752  -0.529473  0  2.191082  0
O  O101  1  0.49723614  0.35637700  0.21982073  1  0  -0.610599  0  1.947102  0  0  -0.549367  0  2.1859  0  0  -0.577749  0  2.177222  0  -1.144272  0  -0.325738  -0.529444  0  2.191104  0
O  O102  1  0.00276366  0.85637633  0.21982296  1  0  -0.610682  0  1.947064  0  0  -0.549459  0  2.185872  0  0  -0.577841  0  2.177192  0  -1.144755  0  -0.3258  -0.529537  0  2.191076  0
O  O103  1  0.50276221  0.64362448  0.78017778  1  0  -0.610647  0  1.947026  0  0  -0.549424  0  2.185846  0  0  -0.577804  0  2.177164  0  -1.144311  0  -0.325791  -0.529503  0  2.19105  0
O  O104  1  0.84483533  0.28099419  0.70657037  1  0  -0.631246  0  1.995659  0  0  -0.567518  0  2.222915  0  0  -0.595176  0  2.214577  0  -1.182606  0  -0.313976  -0.548041  0  2.227812  0
O  O105  1  0.34483427  0.21900608  0.29342853  1  0  -0.631234  0  1.995725  0  0  -0.567481  0  2.222935  0  0  -0.59514  0  2.214602  0  -1.182559  0  -0.313939  -0.547999  0  2.227828  0
O  O106  1  0.15516553  0.71900729  0.29343017  1  0  -0.631282  0  1.995624  0  0  -0.56755  0  2.222856  0  0  -0.595209  0  2.214517  0  -1.182692  0  -0.313982  -0.548072  0  2.22776  0
O  O107  1  0.65516534  0.78099258  0.70657121  1  0  -0.631211  0  1.995635  0  0  -0.56747  0  2.222873  0  0  -0.59513  0  2.214538  0  -1.182674  0  -0.313944  -0.547988  0  2.227766  0
O  O108  1  0.67010763  0.59265748  0.12229692  1  0  -0.363739  0  1.75513  0  0  -0.3395  0  1.965227  0  0  -0.353042  0  1.963184  0  -0.470758  0  -0.123186  -0.330364  0  1.966751  0
O  O109  1  0.17011408  0.90733676  0.87770355  1  0  -0.363653  0  1.755171  0  0  -0.339457  0  1.965319  0  0  -0.352944  0  1.963199  0  -0.470748  0  -0.123151  -0.330319  0  1.966836  0
O  O110  1  0.32989198  0.40734212  0.87770489  1  0  -0.363702  0  1.755091  0  0  -0.339468  0  1.965207  0  0  -0.353018  0  1.96316  0  -0.470762  0  -0.123177  -0.330342  0  1.966738  0
O  O111  1  0.82988928  0.09265534  0.12229660  1  0  -0.363685  0  1.755024  0  0  -0.339523  0  1.965177  0  0  -0.353055  0  1.963113  0  -0.47068  0  -0.123196  -0.330398  0  1.966711  0
O  O112  1  0.85799776  0.47734754  0.18642733  1  0  -0.355364  0  1.767019  0  0  -0.334564  0  1.978353  0  0  -0.347449  0  1.975428  0  -0.471726  0  -0.114805  -0.325878  0  1.980485  0
O  O113  1  0.35799545  0.02264992  0.81357213  1  0  -0.355408  0  1.767084  0  0  -0.334553  0  1.978403  0  0  -0.347449  0  1.975485  0  -0.471652  0  -0.114823  -0.325873  0  1.980542  0
O  O114  1  0.14200185  0.52265112  0.81357309  1  0  -0.355394  0  1.767098  0  0  -0.334543  0  1.978399  0  0  -0.347429  0  1.975474  0  -0.471706  0  -0.114794  -0.325863  0  1.980537  0
O  O115  1  0.64199915  0.97734781  0.18642758  1  0  -0.355482  0  1.766933  0  0  -0.334636  0  1.978263  0  0  -0.347526  0  1.975338  0  -0.47178  0  -0.114824  -0.325953  0  1.980398  0
O  O116  1  0.73871726  0.99376131  0.63929031  1  0  -0.561405  0  2.198366  0  0  -0.486947  0  2.451377  0  0  -0.507592  0  2.438915  0  -1.169255  0  -0.42258  -0.471982  0  2.459198  0
O  O117  1  0.23871871  0.50623950  0.36071044  1  0  -0.561362  0  2.198387  0  0  -0.48691  0  2.451374  0  0  -0.507559  0  2.438923  0  -1.169267  0  -0.422544  -0.471943  0  2.459192  0
O  O118  1  0.26128485  0.00624017  0.36071090  1  0  -0.561393  0  2.198494  0  0  -0.486953  0  2.451494  0  0  -0.507606  0  2.439052  0  -1.169249  0  -0.422577  -0.471985  0  2.459306  0
O  O119  1  0.76128591  0.49376010  0.63928935  1  0  -0.56142  0  2.198419  0  0  -0.486967  0  2.4514  0  0  -0.507624  0  2.438968  0  -1.16942  0  -0.422597  -0.471999  0  2.459211  0
