# generated using pymatgen
data_CuH8C10SBrN2
_symmetry_space_group_name_H-M   'P 1'
_cell_length_a   9.27710496
_cell_length_b   9.54904464
_cell_length_c   12.64401123
_cell_angle_alpha   89.99969781
_cell_angle_beta   90.00007191
_cell_angle_gamma   101.44404923
_symmetry_Int_Tables_number   1
_chemical_formula_structural   CuH8C10SBrN2
_chemical_formula_sum   'Cu4 H32 C40 S4 Br4 N8'
_cell_volume   1097.83239389
_cell_formula_units_Z   4
loop_
 _symmetry_equiv_pos_site_id
 _symmetry_equiv_pos_as_xyz
  1  'x, y, z'
loop_
 _atom_site_type_symbol
 _atom_site_label
 _atom_site_symmetry_multiplicity
 _atom_site_fract_x
 _atom_site_fract_y
 _atom_site_fract_z
 _atom_site_occupancy
 _atom_site_pbe_bader_spin_density
 _atom_site_pbe_cm5_charge
 _atom_site_pbe_ddec_charge
 _atom_site_pbe_ddec_spin_density
 _atom_site_pbe_ddec_sum_bond_order
 _atom_site_pbe_magmom
Cu  Cu0  1  0.01262083  0.88543747  0.93596548  1  0  0.379455  0.235233  0  2.581976  0
Cu  Cu1  1  0.98738256  0.61455866  0.43597324  1  0  0.379417  0.235196  0  2.582001  0
Cu  Cu2  1  0.98738060  0.11456262  0.06403213  1  0  0.379452  0.235194  0  2.582035  0
Cu  Cu3  1  0.01261887  0.38544143  0.56403307  1  0  0.379429  0.235169  0  2.582075  0
H  H4  1  0.03573177  0.75481880  0.72982547  1  0  0.099489  0.081834  0  1.051785  0
H  H5  1  0.96427072  0.74517985  0.22983032  1  0  0.099484  0.081759  0  1.051878  0
H  H6  1  0.96426832  0.24517488  0.27017373  1  0  0.099475  0.08184  0  1.051834  0
H  H7  1  0.03572793  0.25482240  0.77017678  1  0  0.099498  0.081874  0  1.051792  0
H  H8  1  0.22726860  0.70026386  0.61171046  1  0  0.101263  0.109775  0  1.051592  0
H  H9  1  0.77273556  0.79973347  0.11171333  1  0  0.101263  0.109797  0  1.051644  0
H  H10  1  0.77273086  0.29973197  0.38828636  1  0  0.101252  0.109809  0  1.051645  0
H  H11  1  0.22726650  0.20026448  0.88828902  1  0  0.10127  0.109783  0  1.051609  0
H  H12  1  0.55221845  0.94098201  0.82485136  1  0  0.095163  0.112979  0  1.046497  0
H  H13  1  0.44778253  0.55901384  0.32485330  1  0  0.095178  0.112977  0  1.046507  0
H  H14  1  0.44777952  0.05901703  0.17514388  1  0  0.095203  0.113056  0  1.046488  0
H  H15  1  0.55221545  0.44098520  0.67514748  1  0  0.095182  0.112981  0  1.04649  0
H  H16  1  0.34321422  0.97911273  0.93813960  1  0  0.098436  0.072535  0  1.042049  0
H  H17  1  0.65678616  0.52088447  0.43814426  1  0  0.098451  0.072573  0  1.041999  0
H  H18  1  0.65678506  0.02088738  0.06185722  1  0  0.09847  0.072577  0  1.041997  0
H  H19  1  0.34321226  0.47911670  0.56186047  1  0  0.098452  0.072555  0  1.042034  0
H  H20  1  0.03168344  0.08186865  0.58469801  1  0  0.111221  0.079698  0  1.008561  0
H  H21  1  0.96832034  0.41813524  0.08469744  1  0  0.111239  0.079683  0  1.008609  0
H  H22  1  0.96831866  0.91813465  0.41530356  1  0  0.111229  0.079704  0  1.008591  0
H  H23  1  0.03168046  0.58186700  0.91530255  1  0  0.111215  0.079705  0  1.008527  0
H  H24  1  0.86380091  0.84608217  0.61212094  1  0  0.093878  0.11879  0  1.051718  0
H  H25  1  0.13620329  0.65392051  0.11211984  1  0  0.093895  0.118834  0  1.05167  0
H  H26  1  0.13620033  0.15392221  0.38787825  1  0  0.093883  0.118794  0  1.051706  0
H  H27  1  0.86379599  0.34607960  0.88788173  1  0  0.0939  0.11883  0  1.051641  0
H  H28  1  0.50264525  0.07224824  0.61620882  1  0  0.103746  0.118474  0  1.006642  0
H  H29  1  0.49735783  0.42774687  0.11621014  1  0  0.103774  0.11851  0  1.006671  0
H  H30  1  0.49735640  0.92775292  0.38378721  1  0  0.103739  0.118473  0  1.006706  0
H  H31  1  0.50264123  0.57225216  0.88378905  1  0  0.103765  0.118484  0  1.006723  0
H  H32  1  0.68594769  0.29654606  0.58736477  1  0  0.0966  0.068188  0  1.064319  0
H  H33  1  0.31404914  0.20345035  0.08736838  1  0  0.096585  0.068197  0  1.064264  0
H  H34  1  0.31405073  0.70345511  0.41263443  1  0  0.096596  0.068204  0  1.064282  0
H  H35  1  0.68594991  0.79654868  0.91263160  1  0  0.096602  0.068202  0  1.064265  0
C  C36  1  0.15126977  0.79471797  0.74902109  1  0  0.035319  0.096685  0  3.907738  0
C  C37  1  0.84873187  0.70528162  0.24902441  1  0  0.035381  0.09701  0  3.907569  0
C  C38  1  0.84872991  0.20527893  0.25097731  1  0  0.035378  0.096797  0  3.907623  0
C  C39  1  0.15126570  0.29472063  0.75097953  1  0  0.035364  0.096725  0  3.907626  0
C  C40  1  0.26006009  0.76366092  0.68246400  1  0  -0.092285  -0.167992  0  3.953169  0
C  C41  1  0.73994064  0.73633486  0.18246789  1  0  -0.092295  -0.168148  0  3.953481  0
C  C42  1  0.73993829  0.23633491  0.31753282  1  0  -0.092309  -0.168169  0  3.953537  0
C  C43  1  0.26005949  0.26366417  0.81753605  1  0  -0.092287  -0.168025  0  3.953329  0
C  C44  1  0.40763206  0.81643338  0.70803022  1  0  4.9e-05  0.086069  0  4.016726  0
C  C45  1  0.59236890  0.68356329  0.20803181  1  0  7.6e-05  0.086174  0  4.016675  0
C  C46  1  0.59236830  0.18356672  0.29196660  1  0  0.000102  0.086255  0  4.016709  0
C  C47  1  0.40762800  0.31643575  0.79196976  1  0  5.5e-05  0.086131  0  4.016826  0
C  C48  1  0.43908424  0.89695937  0.80126789  1  0  -0.093325  -0.178573  0  3.969311  0
C  C49  1  0.56091736  0.60303451  0.30126818  1  0  -0.093318  -0.178543  0  3.969223  0
C  C50  1  0.56091413  0.10303646  0.19873130  1  0  -0.093354  -0.178749  0  3.969411  0
C  C51  1  0.43908039  0.39696346  0.69873338  1  0  -0.093306  -0.178605  0  3.969314  0
C  C52  1  0.32338874  0.92085991  0.86355815  1  0  0.027795  0.082391  0  3.95427  0
C  C53  1  0.67661162  0.57913781  0.36356102  1  0  0.027698  0.082216  0  3.954437  0
C  C54  1  0.67661094  0.07913698  0.13644025  1  0  0.027767  0.082332  0  3.954395  0
C  C55  1  0.32338551  0.42086231  0.63644213  1  0  0.027771  0.082363  0  3.954296  0
C  C56  1  0.91329003  0.07484457  0.59064750  1  0  0.036217  0.093259  0  3.945276  0
C  C57  1  0.08671160  0.42515928  0.09065081  1  0  0.036169  0.093279  0  3.945274  0
C  C58  1  0.08671252  0.92516086  0.40935170  1  0  0.036184  0.093216  0  3.945249  0
C  C59  1  0.91328660  0.57484083  0.90935075  1  0  0.036196  0.093235  0  3.945115  0
C  C60  1  0.81992697  0.94376138  0.60654022  1  0  -0.093702  -0.173435  0  3.951214  0
C  C61  1  0.18007701  0.55624026  0.10654034  1  0  -0.093686  -0.173472  0  3.951231  0
C  C62  1  0.18007536  0.05624299  0.39345818  1  0  -0.093701  -0.173436  0  3.951263  0
C  C63  1  0.81992204  0.44375877  0.89346202  1  0  -0.09367  -0.173383  0  3.951151  0
C  C64  1  0.66854399  0.93922888  0.61579276  1  0  0.004205  0.098284  0  4.010872  0
C  C65  1  0.33146018  0.56076842  0.11579616  1  0  0.004205  0.098315  0  4.010832  0
C  C66  1  0.33145681  0.06077335  0.38420327  1  0  0.00423  0.098341  0  4.010906  0
C  C67  1  0.66853995  0.43923061  0.88420540  1  0  0.004172  0.098249  0  4.010852  0
C  C68  1  0.61885658  0.06851510  0.60937086  1  0  -0.093851  -0.184151  0  3.995106  0
C  C69  1  0.38114609  0.43148327  0.10937206  1  0  -0.09387  -0.184168  0  3.995114  0
C  C70  1  0.38114530  0.93148713  0.39062675  1  0  -0.093867  -0.184197  0  3.995259  0
C  C71  1  0.61885211  0.56851684  0.89062872  1  0  -0.093848  -0.184122  0  3.995109  0
C  C72  1  0.72048845  0.19409364  0.59306887  1  0  0.030207  0.082574  0  3.970078  0
C  C73  1  0.27951207  0.30590486  0.09307205  1  0  0.030218  0.082572  0  3.969956  0
C  C74  1  0.27951128  0.80590860  0.40692874  1  0  0.030208  0.08256  0  3.970089  0
C  C75  1  0.72048721  0.69409525  0.90692793  1  0  0.030194  0.082568  0  3.970001  0
S  S76  1  0.54898793  0.77216776  0.62917723  1  0  0.049116  0.022341  0  2.758756  0
S  S77  1  0.45101731  0.72782944  0.12917614  1  0  0.049043  0.022236  0  2.758719  0
S  S78  1  0.45101180  0.22783448  0.37082038  1  0  0.049074  0.022283  0  2.758727  0
S  S79  1  0.54898690  0.27216850  0.87082226  1  0  0.049057  0.022249  0  2.758726  0
Br  Br80  1  0.14160515  0.93691413  0.10876275  1  0  -0.260288  -0.446172  0  1.724562  0
Br  Br81  1  0.85839147  0.56308326  0.60876655  1  0  -0.260259  -0.446112  0  1.724553  0
Br  Br82  1  0.85839408  0.06308063  0.89123565  1  0  -0.260299  -0.44619  0  1.724601  0
Br  Br83  1  0.14160866  0.43691577  0.39123660  1  0  -0.260274  -0.44616  0  1.724599  0
N  N84  1  0.18032377  0.87184138  0.83873378  1  0  -0.365153  -0.202981  0  3.638424  0
N  N85  1  0.81967766  0.62815651  0.33873896  1  0  -0.365136  -0.203068  0  3.638395  0
N  N86  1  0.81967461  0.12815444  0.16126383  1  0  -0.365191  -0.20297  0  3.63842  0
N  N87  1  0.18032206  0.37184573  0.66126656  1  0  -0.365201  -0.203008  0  3.638416  0
N  N88  1  0.86645519  0.19957924  0.58242199  1  0  -0.363545  -0.205769  0  3.632883  0
N  N89  1  0.13354514  0.30042361  0.08242426  1  0  -0.363528  -0.205803  0  3.632793  0
N  N90  1  0.13354475  0.80042407  0.41757799  1  0  -0.363521  -0.205749  0  3.63274  0
N  N91  1  0.86645329  0.69957757  0.91757493  1  0  -0.363531  -0.205822  0  3.632746  0
