# generated using pymatgen
data_NaH10C13N5O2
_symmetry_space_group_name_H-M   'P 1'
_cell_length_a   9.80460328
_cell_length_b   15.97437416
_cell_length_c   18.01684021
_cell_angle_alpha   89.99913447
_cell_angle_beta   90.00080190
_cell_angle_gamma   89.99950755
_symmetry_Int_Tables_number   1
_chemical_formula_structural   NaH10C13N5O2
_chemical_formula_sum   'Na8 H80 C104 N40 O16'
_cell_volume   2821.84077739
_cell_formula_units_Z   8
loop_
 _symmetry_equiv_pos_site_id
 _symmetry_equiv_pos_as_xyz
  1  'x, y, z'
loop_
 _atom_site_type_symbol
 _atom_site_label
 _atom_site_symmetry_multiplicity
 _atom_site_fract_x
 _atom_site_fract_y
 _atom_site_fract_z
 _atom_site_occupancy
 _atom_site_pbe_bader_charge
 _atom_site_pbe_bader_spin_density
 _atom_site_pbe_cm5_charge
 _atom_site_pbe_ddec_charge
 _atom_site_pbe_ddec_spin_density
 _atom_site_pbe_ddec_sum_bond_order
 _atom_site_pbe_magmom
Na  Na0  1  0.86352563  0.87842725  0.20826245  1  0.864888  0  0.700408  0.765816  0  0.651002  0
Na  Na1  1  0.13647545  0.62157422  0.70826588  1  0.86488  0  0.700367  0.765832  0  0.650955  0
Na  Na2  1  0.63646481  0.37842965  0.79174188  1  0.864883  0  0.700338  0.76574  0  0.650989  0
Na  Na3  1  0.36352606  0.12157506  0.29174649  1  0.864919  0  0.700358  0.765824  0  0.650957  0
Na  Na4  1  0.13647697  0.12156708  0.79172398  1  0.864917  0  0.700332  0.765779  0  0.650986  0
Na  Na5  1  0.86355878  0.37842637  0.29173386  1  0.864934  0  0.700343  0.765739  0  0.65107  0
Na  Na6  1  0.36351842  0.62157970  0.20826342  1  0.864938  0  0.700322  0.765817  0  0.650977  0
Na  Na7  1  0.63648674  0.87842177  0.70826158  1  0.864893  0  0.70037  0.765828  0  0.650958  0
H  H8  1  0.75584707  0.02248005  0.17399269  1  0.606928  0  0.267302  0.338161  0  1.028382  0
H  H9  1  0.24415094  0.47752539  0.67399711  1  0.606935  0  0.267374  0.338297  0  1.028185  0
H  H10  1  0.74415346  0.52247228  0.82600203  1  0.606962  0  0.267367  0.33829  0  1.028194  0
H  H11  1  0.25585171  0.97752095  0.32601765  1  0.606998  0  0.267445  0.338459  0  1.027993  0
H  H12  1  0.24413820  0.97751991  0.82600927  1  0.606982  0  0.267373  0.338317  0  1.028137  0
H  H13  1  0.75585880  0.52247332  0.32599265  1  0.607025  0  0.26734  0.338249  0  1.028216  0
H  H14  1  0.25585527  0.47752706  0.17398883  1  0.607071  0  0.267427  0.338386  0  1.028102  0
H  H15  1  0.74414886  0.02247651  0.67399375  1  0.606982  0  0.26736  0.338286  0  1.028205  0
H  H16  1  0.64842424  0.95733038  0.14190374  1  0.624912  0  0.26946  0.341922  0  1.021573  0
H  H17  1  0.35154554  0.54267785  0.64189433  1  0.625345  0  0.269474  0.341844  0  1.02165  0
H  H18  1  0.85155796  0.45732113  0.85810118  1  0.625168  0  0.269504  0.341926  0  1.021589  0
H  H19  1  0.14844789  0.04266744  0.35811800  1  0.625293  0  0.26952  0.341942  0  1.021552  0
H  H20  1  0.35156409  0.04266395  0.85810100  1  0.625299  0  0.269483  0.341879  0  1.021683  0
H  H21  1  0.64845196  0.45732086  0.35809598  1  0.625231  0  0.269561  0.342004  0  1.021529  0
H  H22  1  0.14844362  0.54267695  0.14189135  1  0.625347  0  0.26945  0.341918  0  1.021592  0
H  H23  1  0.85156083  0.95732939  0.64189173  1  0.625044  0  0.269533  0.341989  0  1.021488  0
H  H24  1  0.59580418  0.10981041  0.16561878  1  0.16146  0  0.114504  0.124808  0  1.050073  0
H  H25  1  0.40420789  0.39018703  0.66560449  1  0.161507  0  0.114484  0.124785  0  1.050049  0
H  H26  1  0.90421042  0.60979415  0.83437921  1  0.161  0  0.114451  0.124732  0  1.050147  0
H  H27  1  0.09579088  0.89020333  0.33439258  1  0.161145  0  0.114489  0.124855  0  1.050066  0
H  H28  1  0.40420659  0.89019205  0.83438596  1  0.161391  0  0.114519  0.124847  0  1.049983  0
H  H29  1  0.59577941  0.60979728  0.33437805  1  0.161053  0  0.114466  0.12485  0  1.050027  0
H  H30  1  0.09579524  0.39019518  0.16560999  1  0.161241  0  0.114502  0.124883  0  1.05008  0
H  H31  1  0.90418011  0.10981041  0.66561494  1  0.161538  0  0.11449  0.12478  0  1.049993  0
H  H32  1  0.43380012  0.18911164  0.08644947  1  0.06997  0  0.109128  0.104827  0  0.997738  0
H  H33  1  0.56621296  0.31087962  0.58644803  1  0.06971  0  0.109133  0.104767  0  0.997877  0
H  H34  1  0.06620963  0.68909457  0.91354811  1  0.070067  0  0.109153  0.104896  0  0.997664  0
H  H35  1  0.93379577  0.81089469  0.41355555  1  0.069721  0  0.109128  0.104797  0  0.997738  0
H  H36  1  0.56620759  0.81088645  0.91354916  1  0.069988  0  0.109143  0.104809  0  0.9979  0
H  H37  1  0.43378149  0.68911033  0.41353895  1  0.069972  0  0.109097  0.104719  0  0.997751  0
H  H38  1  0.93379604  0.31089287  0.08644664  1  0.069912  0  0.109147  0.104839  0  0.997783  0
H  H39  1  0.06618134  0.18911842  0.58645086  1  0.070115  0  0.109121  0.104793  0  0.997757  0
H  H40  1  0.44950485  0.34671843  0.08266922  1  0.095676  0  0.10548  0.108821  0  1.018632  0
H  H41  1  0.55049690  0.15327790  0.58266924  1  0.09564  0  0.105563  0.108948  0  1.018655  0
H  H42  1  0.05048433  0.84669888  0.91733843  1  0.095431  0  0.105362  0.10861  0  1.018865  0
H  H43  1  0.94953137  0.65329219  0.41733925  1  0.095539  0  0.10551  0.108838  0  1.018727  0
H  H44  1  0.55049673  0.65328153  0.91734052  1  0.095555  0  0.105506  0.10884  0  1.018574  0
H  H45  1  0.44951182  0.84670954  0.41732329  1  0.095277  0  0.105411  0.108731  0  1.018905  0
H  H46  1  0.94950808  0.15328794  0.08266520  1  0.095725  0  0.105515  0.108838  0  1.018573  0
H  H47  1  0.05046206  0.34672029  0.58266827  1  0.095908  0  0.105535  0.108898  0  1.018559  0
H  H48  1  0.62751055  0.41679078  0.16129419  1  0.076699  0  0.120121  0.082401  0  0.983979  0
H  H49  1  0.37248713  0.08320360  0.66128994  1  0.076634  0  0.120087  0.082397  0  0.98395  0
H  H50  1  0.87247528  0.91677210  0.83871073  1  0.077299  0  0.120183  0.0826  0  0.983971  0
H  H51  1  0.12752205  0.58321904  0.33870353  1  0.077227  0  0.120153  0.082559  0  0.983789  0
H  H52  1  0.37247880  0.58321419  0.83871943  1  0.076927  0  0.120149  0.082534  0  0.983951  0
H  H53  1  0.62752363  0.91678384  0.33870814  1  0.0771  0  0.120128  0.082446  0  0.983831  0
H  H54  1  0.12752325  0.08321972  0.16129124  1  0.077084  0  0.120185  0.082506  0  0.984044  0
H  H55  1  0.87245097  0.41679720  0.66128734  1  0.077616  0  0.120119  0.082418  0  0.983985  0
H  H56  1  0.15965323  0.13853839  0.44039098  1  0.134145  0  0.119083  0.133224  0  1.005507  0
H  H57  1  0.84032926  0.36143628  0.94038481  1  0.13463  0  0.11913  0.13331  0  1.005436  0
H  H58  1  0.34033988  0.63854211  0.55962394  1  0.134338  0  0.119175  0.133333  0  1.005377  0
H  H59  1  0.65963592  0.86146750  0.05962197  1  0.134018  0  0.11906  0.133179  0  1.005493  0
H  H60  1  0.84033611  0.86145093  0.55961432  1  0.134471  0  0.119141  0.133321  0  1.005233  0
H  H61  1  0.15969476  0.63857433  0.05961716  1  0.134868  0  0.119169  0.133371  0  1.005426  0
H  H62  1  0.65965559  0.36145473  0.44038191  1  0.134425  0  0.119143  0.13329  0  1.005381  0
H  H63  1  0.34034935  0.13853872  0.94037778  1  0.134237  0  0.119112  0.133231  0  1.005378  0
H  H64  1  0.31160359  0.23263495  0.51442387  1  0.099924  0  0.101643  0.094307  0  1.036041  0
H  H65  1  0.68837905  0.26732434  0.01439731  1  0.0754  0  0.101552  0.094161  0  1.035491  0
H  H66  1  0.18839432  0.73264948  0.48559143  1  0.099278  0  0.101589  0.094318  0  1.035676  0
H  H67  1  0.81158235  0.76737112  0.98558577  1  0.100098  0  0.101549  0.094129  0  1.035882  0
H  H68  1  0.68837148  0.76735249  0.48558586  1  0.099106  0  0.101652  0.094337  0  1.035775  0
H  H69  1  0.31164497  0.73268939  0.98560576  1  0.075341  0  0.10157  0.094173  0  1.035284  0
H  H70  1  0.81161542  0.26735299  0.51440942  1  0.099185  0  0.101648  0.094406  0  1.035788  0
H  H71  1  0.18839170  0.23263385  0.01440898  1  0.099381  0  0.101678  0.094406  0  1.03588  0
H  H72  1  0.29030208  0.38882405  0.49783825  1  0.110722  0  0.112397  0.121511  0  0.986293  0
H  H73  1  0.70970434  0.11113963  0.99780785  1  0.111504  0  0.112371  0.121304  0  0.986276  0
H  H74  1  0.20970895  0.88883568  0.50218104  1  0.110951  0  0.112385  0.121498  0  0.986381  0
H  H75  1  0.79028984  0.61118053  0.00217735  1  0.110974  0  0.112424  0.121512  0  0.986175  0
H  H76  1  0.70967604  0.61116464  0.50218314  1  0.110974  0  0.112373  0.12141  0  0.986531  0
H  H77  1  0.29031356  0.88887347  0.00220244  1  0.111548  0  0.112489  0.121494  0  0.986266  0
H  H78  1  0.79031814  0.11116428  0.49781593  1  0.111053  0  0.112383  0.121382  0  0.986509  0
H  H79  1  0.20969237  0.38882257  0.99782573  1  0.110952  0  0.112394  0.121454  0  0.986334  0
H  H80  1  0.11763572  0.44250500  0.40725642  1  0.064882  0  0.119873  0.081556  0  0.977741  0
H  H81  1  0.88238977  0.05748275  0.90722528  1  0.064415  0  0.119913  0.081663  0  0.978052  0
H  H82  1  0.38239190  0.94250793  0.59275270  1  0.064771  0  0.119852  0.08153  0  0.977861  0
H  H83  1  0.61761332  0.55750613  0.09275066  1  0.065052  0  0.119845  0.081507  0  0.977909  0
H  H84  1  0.88238117  0.55748558  0.59274166  1  0.064597  0  0.119843  0.081509  0  0.977844  0
H  H85  1  0.11760569  0.94253161  0.09277225  1  0.064149  0  0.119922  0.081681  0  0.977895  0
H  H86  1  0.61762192  0.05749078  0.40724982  1  0.064758  0  0.119864  0.081527  0  0.977824  0
H  H87  1  0.38236991  0.44250510  0.90725852  1  0.064828  0  0.119894  0.081569  0  0.977756  0
C  C88  1  0.80109410  0.17851356  0.25204378  1  1.087873  0  0.252571  0.36316  0  4.069725  0
C  C89  1  0.19891715  0.32148431  0.75203499  1  1.08734  0  0.252806  0.363752  0  4.069885  0
C  C90  1  0.69891443  0.67849920  0.74795882  1  1.08751  0  0.252683  0.363344  0  4.069958  0
C  C91  1  0.30107544  0.82149910  0.24796024  1  1.087407  0  0.252785  0.363508  0  4.069794  0
C  C92  1  0.19891258  0.82148703  0.74795430  1  1.08816  0  0.252692  0.363379  0  4.069877  0
C  C93  1  0.80110075  0.67851065  0.24795588  1  1.087407  0  0.252641  0.36329  0  4.069734  0
C  C94  1  0.30109225  0.32149513  0.25204037  1  1.087451  0  0.252663  0.363392  0  4.069819  0
C  C95  1  0.69890677  0.17851526  0.75204062  1  1.087637  0  0.252485  0.362984  0  4.070015  0
C  C96  1  0.90878775  0.05765311  0.29253601  1  1.702058  0  0.31277  0.639345  0  4.183406  0
C  C97  1  0.09125210  0.44234470  0.79253365  1  1.702177  0  0.312643  0.639066  0  4.183423  0
C  C98  1  0.59121534  0.55765065  0.70745712  1  1.702248  0  0.312732  0.639179  0  4.183233  0
C  C99  1  0.40875512  0.94235522  0.20747270  1  1.702245  0  0.312535  0.638912  0  4.183843  0
C  C100  1  0.09120874  0.94233809  0.70745818  1  1.701946  0  0.312673  0.639135  0  4.183327  0
C  C101  1  0.90878824  0.55765839  0.20746499  1  1.702155  0  0.312613  0.638833  0  4.183409  0
C  C102  1  0.40878522  0.44234681  0.29253763  1  1.702049  0  0.312748  0.639314  0  4.183244  0
C  C103  1  0.59121485  0.05765288  0.79253093  1  1.702032  0  0.312616  0.639054  0  4.183793  0
C  C104  1  0.97038808  0.18797818  0.33767813  1  1.088984  0  0.251886  0.35882  0  4.07897  0
C  C105  1  0.02964172  0.31201637  0.83767152  1  1.08873  0  0.251988  0.358858  0  4.078139  0
C  C106  1  0.52962951  0.68797742  0.66232601  1  1.088974  0  0.25183  0.358927  0  4.07861  0
C  C107  1  0.47035406  0.81203234  0.16232717  1  1.088705  0  0.25181  0.358705  0  4.07852  0
C  C108  1  0.02962371  0.81200864  0.66232273  1  1.08858  0  0.251914  0.358925  0  4.078735  0
C  C109  1  0.97037516  0.68798985  0.16232434  1  1.08849  0  0.251908  0.358676  0  4.078761  0
C  C110  1  0.47036596  0.31202004  0.33767651  1  1.089041  0  0.251953  0.35898  0  4.078563  0
C  C111  1  0.52961591  0.18797764  0.83767202  1  1.08899  0  0.251851  0.358775  0  4.078866  0
C  C112  1  0.69936850  0.22208339  0.20366004  1  0.505876  0  0.124378  0.143507  0  3.965614  0
C  C113  1  0.30062926  0.27791592  0.70365260  1  0.505977  0  0.124323  0.143327  0  3.965597  0
C  C114  1  0.80063127  0.72206205  0.79633587  1  0.506128  0  0.124108  0.143147  0  3.965329  0
C  C115  1  0.19936089  0.77793607  0.29634211  1  0.505573  0  0.124177  0.143229  0  3.965897  0
C  C116  1  0.30062390  0.77791970  0.79633749  1  0.505492  0  0.124217  0.143466  0  3.965014  0
C  C117  1  0.69936927  0.72207153  0.29633938  1  0.505944  0  0.124209  0.143185  0  3.965725  0
C  C118  1  0.19937236  0.27793040  0.20365944  1  0.506048  0  0.124171  0.143168  0  3.965447  0
C  C119  1  0.80062234  0.22208581  0.70366319  1  0.505769  0  0.124361  0.143515  0  3.96558  0
C  C120  1  0.60283301  0.17763718  0.16214825  1  -0.006754  0  -0.070395  -0.140096  0  3.897208  0
C  C121  1  0.39717387  0.32236032  0.66213317  1  -0.005826  0  -0.070497  -0.140118  0  3.896847  0
C  C122  1  0.89717962  0.67762152  0.83785325  1  -0.006654  0  -0.070337  -0.139878  0  3.896856  0
C  C123  1  0.10282891  0.82237465  0.33785927  1  -0.006137  0  -0.070381  -0.140093  0  3.89692  0
C  C124  1  0.39717980  0.82236278  0.83785926  1  -0.006111  0  -0.070473  -0.140129  0  3.896839  0
C  C125  1  0.60282261  0.67763025  0.33785214  1  -0.006002  0  -0.070455  -0.140168  0  3.896941  0
C  C126  1  0.10282298  0.32237218  0.16213817  1  -0.006436  0  -0.070469  -0.140126  0  3.896945  0
C  C127  1  0.89716350  0.17764097  0.66214769  1  -0.00701  0  -0.070316  -0.140021  0  3.896906  0
C  C128  1  0.51122719  0.22233501  0.11825367  1  -0.010872  0  -0.064673  -0.027644  0  3.961546  0
C  C129  1  0.48878467  0.27765823  0.61824433  1  -0.010911  0  -0.06465  -0.027573  0  3.961503  0
C  C130  1  0.98878379  0.72231937  0.88174833  1  -0.011197  0  -0.064614  -0.027706  0  3.961475  0
C  C131  1  0.01122384  0.77767418  0.38175482  1  -0.01096  0  -0.0647  -0.027682  0  3.961513  0
C  C132  1  0.48878357  0.77766871  0.88175329  1  -0.011192  0  -0.064621  -0.027623  0  3.961762  0
C  C133  1  0.51120876  0.72233297  0.38174321  1  -0.011126  0  -0.06456  -0.027385  0  3.961502  0
C  C134  1  0.01121677  0.27767621  0.11824975  1  -0.011123  0  -0.064578  -0.027601  0  3.961402  0
C  C135  1  0.98876245  0.22234206  0.61825436  1  -0.010546  0  -0.064727  -0.027647  0  3.9619  0
C  C136  1  0.51925034  0.30949522  0.11623777  1  -0.082934  0  -0.083107  -0.129371  0  3.972535  0
C  C137  1  0.48075943  0.19049804  0.61622955  1  -0.083245  0  -0.083245  -0.129523  0  3.972634  0
C  C138  1  0.98074413  0.80948023  0.88376416  1  -0.082655  0  -0.083025  -0.129146  0  3.97279  0
C  C139  1  0.01925336  0.69051830  0.38377467  1  -0.082984  0  -0.083161  -0.129305  0  3.972639  0
C  C140  1  0.48074615  0.69050411  0.88376863  1  -0.082884  0  -0.083208  -0.129448  0  3.972542  0
C  C141  1  0.51924012  0.80948502  0.38376076  1  -0.082773  0  -0.083103  -0.129475  0  3.9729  0
C  C142  1  0.01925338  0.19051223  0.11623337  1  -0.083063  0  -0.08322  -0.129428  0  3.972298  0
C  C143  1  0.98073191  0.30949857  0.61623729  1  -0.083208  0  -0.083163  -0.129394  0  3.972876  0
C  C144  1  0.61829493  0.34857343  0.15991036  1  0.462539  0  0.048881  0.095596  0  3.989404  0
C  C145  1  0.38171088  0.15142598  0.65990192  1  0.462603  0  0.048945  0.095591  0  3.989438  0
C  C146  1  0.88170103  0.84856032  0.84009437  1  0.462548  0  0.048722  0.095214  0  3.989977  0
C  C147  1  0.11829838  0.65144269  0.34009506  1  0.462611  0  0.048803  0.095254  0  3.989416  0
C  C148  1  0.38170462  0.65142403  0.84010160  1  0.462194  0  0.048882  0.095572  0  3.989765  0
C  C149  1  0.61829683  0.84856271  0.34008784  1  0.462787  0  0.048952  0.095676  0  3.989301  0
C  C150  1  0.11829443  0.15142712  0.15990648  1  0.461969  0  0.048848  0.095508  0  3.989286  0
C  C151  1  0.88168485  0.34857417  0.65991023  1  0.46136  0  0.048796  0.095309  0  3.989722  0
C  C152  1  0.06008019  0.24171687  0.38498729  1  0.485676  0  0.124144  0.146494  0  3.969093  0
C  C153  1  0.93993656  0.25826499  0.88498438  1  0.485512  0  0.124474  0.146874  0  3.968749  0
C  C154  1  0.43993697  0.74171913  0.61501845  1  0.485342  0  0.124374  0.146761  0  3.968545  0
C  C155  1  0.56005557  0.75829330  0.11502046  1  0.48571  0  0.124452  0.146719  0  3.968659  0
C  C156  1  0.93991935  0.75827120  0.61501301  1  0.485268  0  0.124299  0.146604  0  3.968893  0
C  C157  1  0.06007829  0.74174437  0.11500981  1  0.485677  0  0.124427  0.146772  0  3.968879  0
C  C158  1  0.56006461  0.25827896  0.38498573  1  0.485417  0  0.124367  0.146686  0  3.968714  0
C  C159  1  0.43992868  0.24171918  0.88498428  1  0.48562  0  0.124232  0.146616  0  3.968587  0
C  C160  1  0.15309964  0.20621560  0.43480905  1  -0.039635  0  -0.070568  -0.14685  0  3.912556  0
C  C161  1  0.84690209  0.29375791  0.93479608  1  -0.039643  0  -0.0706  -0.147107  0  3.912621  0
C  C162  1  0.34690680  0.70622231  0.56519995  1  -0.039623  0  -0.070618  -0.146968  0  3.912029  0
C  C163  1  0.65308138  0.79379534  0.06520496  1  -0.040021  0  -0.070311  -0.146549  0  3.912321  0
C  C164  1  0.84688664  0.79377059  0.56519957  1  -0.039671  0  -0.070531  -0.146913  0  3.912276  0
C  C165  1  0.15311990  0.70624956  0.06520034  1  -0.039604  0  -0.070756  -0.14718  0  3.912536  0
C  C166  1  0.65310192  0.29377264  0.43480146  1  -0.039657  0  -0.070574  -0.146819  0  3.912269  0
C  C167  1  0.34690593  0.20621777  0.93480034  1  -0.039505  0  -0.070407  -0.146675  0  3.911957  0
C  C168  1  0.23758767  0.25888189  0.47583285  1  -0.058258  0  -0.068097  -0.027943  0  3.972309  0
C  C169  1  0.76241920  0.24108155  0.97580664  1  -0.03317  0  -0.06806  -0.027921  0  3.971769  0
C  C170  1  0.26241702  0.75889662  0.52417932  1  -0.05733  0  -0.068044  -0.027996  0  3.971832  0
C  C171  1  0.73756500  0.74112610  0.02417957  1  -0.058028  0  -0.068159  -0.027957  0  3.971811  0
C  C172  1  0.76239657  0.74110055  0.52418021  1  -0.057123  0  -0.068092  -0.027958  0  3.9721  0
C  C173  1  0.23759462  0.75893344  0.02419477  1  -0.033009  0  -0.067947  -0.027827  0  3.97154  0
C  C174  1  0.73759375  0.24110209  0.47582043  1  -0.057291  0  -0.068068  -0.028133  0  3.972347  0
C  C175  1  0.26241823  0.25888638  0.97582572  1  -0.05777  0  -0.068258  -0.028193  0  3.971917  0
C  C176  1  0.22648910  0.34530353  0.46670687  1  -0.086169  0  -0.077871  -0.122012  0  3.955929  0
C  C177  1  0.77353386  0.15466256  0.96667636  1  -0.068441  0  -0.077796  -0.121428  0  3.955461  0
C  C178  1  0.27352662  0.84531680  0.53330579  1  -0.086057  0  -0.077894  -0.121964  0  3.955962  0
C  C179  1  0.72647400  0.65470264  0.03331046  1  -0.085733  0  -0.077867  -0.121976  0  3.955772  0
C  C180  1  0.77349515  0.65468078  0.53330675  1  -0.068546  0  -0.078006  -0.122056  0  3.956143  0
C  C181  1  0.22648507  0.84535368  0.03332171  1  -0.061547  0  -0.077962  -0.121683  0  3.955401  0
C  C182  1  0.72649639  0.15468504  0.46669395  1  -0.068405  0  -0.077959  -0.121862  0  3.95618  0
C  C183  1  0.27351229  0.34530484  0.96669927  1  -0.085945  0  -0.07792  -0.121996  0  3.955996  0
C  C184  1  0.12986525  0.37523089  0.41621410  1  0.533578  0  0.051426  0.100337  0  3.988862  0
C  C185  1  0.87016659  0.12474669  0.91619305  1  0.515356  0  0.051163  0.099736  0  3.989277  0
C  C186  1  0.37016024  0.87523529  0.58379316  1  0.533734  0  0.051322  0.100238  0  3.988777  0
C  C187  1  0.62984066  0.62477579  0.08379529  1  0.533519  0  0.051286  0.100252  0  3.988933  0
C  C188  1  0.87013429  0.62475530  0.58378953  1  0.515534  0  0.051451  0.100487  0  3.988564  0
C  C189  1  0.12984214  0.87526204  0.08380059  1  0.507851  0  0.051253  0.099901  0  3.988697  0
C  C190  1  0.62985868  0.12476092  0.41621102  1  0.51545  0  0.051413  0.100367  0  3.988521  0
C  C191  1  0.37014563  0.37523294  0.91621278  1  0.533431  0  0.051401  0.100307  0  3.988919  0
N  N192  1  0.87600813  0.22807174  0.29671194  1  -1.214707  0  -0.416975  -0.507637  0  3.388991  0
N  N193  1  0.12401857  0.27192789  0.79669937  1  -1.215186  0  -0.417162  -0.508101  0  3.389287  0
N  N194  1  0.62400992  0.72806604  0.70328721  1  -1.214994  0  -0.417018  -0.507879  0  3.389029  0
N  N195  1  0.37596350  0.77193928  0.20328876  1  -1.214786  0  -0.417194  -0.507897  0  3.38881  0
N  N196  1  0.12401284  0.77192510  0.70328503  1  -1.215053  0  -0.417097  -0.507865  0  3.38929  0
N  N197  1  0.87599118  0.72807709  0.20329594  1  -1.215302  0  -0.41699  -0.507574  0  3.389249  0
N  N198  1  0.37599167  0.27192767  0.29671142  1  -1.215035  0  -0.417097  -0.507898  0  3.389008  0
N  N199  1  0.62399423  0.22807133  0.79670599  1  -1.214697  0  -0.416904  -0.507618  0  3.389279  0
N  N200  1  0.81230466  0.09577293  0.24720558  1  -1.192374  0  -0.31864  -0.482002  0  3.233417  0
N  N201  1  0.18771361  0.40422315  0.74720723  1  -1.193001  0  -0.318802  -0.48231  0  3.233912  0
N  N202  1  0.68770912  0.59576293  0.75278427  1  -1.192874  0  -0.31867  -0.48204  0  3.233722  0
N  N203  1  0.31228802  0.90423905  0.25279186  1  -1.19344  0  -0.318599  -0.481984  0  3.233968  0
N  N204  1  0.18770101  0.90422203  0.75278584  1  -1.192624  0  -0.318629  -0.482044  0  3.23359  0
N  N205  1  0.81232469  0.59576931  0.25279029  1  -1.192837  0  -0.318687  -0.481891  0  3.233698  0
N  N206  1  0.31229553  0.40423077  0.24720271  1  -1.192652  0  -0.31863  -0.481994  0  3.233414  0
N  N207  1  0.68769316  0.09577406  0.74720288  1  -1.192453  0  -0.318666  -0.481945  0  3.233564  0
N  N208  1  0.99099225  0.10580901  0.33837866  1  -1.181594  0  -0.322054  -0.485383  0  3.242677  0
N  N209  1  0.00902023  0.39418552  0.83837689  1  -1.181031  0  -0.322125  -0.485302  0  3.241906  0
N  N210  1  0.50900609  0.60580650  0.66162104  1  -1.181632  0  -0.322076  -0.485418  0  3.242587  0
N  N211  1  0.49096726  0.89420077  0.16162124  1  -1.180598  0  -0.322077  -0.485258  0  3.242228  0
N  N212  1  0.00901648  0.89418156  0.66161220  1  -1.181321  0  -0.322032  -0.485399  0  3.242592  0
N  N213  1  0.99101297  0.60581882  0.16161509  1  -1.181136  0  -0.321906  -0.485116  0  3.242068  0
N  N214  1  0.49097714  0.39419346  0.33838370  1  -1.181383  0  -0.32218  -0.485531  0  3.242639  0
N  N215  1  0.50900678  0.10580984  0.83837407  1  -1.181398  0  -0.322027  -0.485231  0  3.242763  0
N  N216  1  0.04832685  0.32540101  0.37617714  1  -1.196262  0  -0.363988  -0.322771  0  3.366606  0
N  N217  1  0.95170599  0.17458851  0.87617379  1  -1.196433  0  -0.364048  -0.322717  0  3.366969  0
N  N218  1  0.45170240  0.82540368  0.62382524  1  -1.196573  0  -0.364007  -0.322851  0  3.366511  0
N  N219  1  0.54830872  0.67460735  0.12382775  1  -1.196742  0  -0.363963  -0.322774  0  3.366375  0
N  N220  1  0.95168595  0.67458706  0.62382371  1  -1.195703  0  -0.364068  -0.322979  0  3.366518  0
N  N221  1  0.04829254  0.82541896  0.12382484  1  -1.196313  0  -0.364156  -0.322879  0  3.366722  0
N  N222  1  0.54830530  0.17459378  0.37617783  1  -1.19624  0  -0.364094  -0.322957  0  3.366484  0
N  N223  1  0.45168062  0.32540513  0.87617755  1  -1.19646  0  -0.36402  -0.32278  0  3.36648  0
N  N224  1  0.70591483  0.30652237  0.20291796  1  -1.21406  0  -0.367517  -0.322857  0  3.390567  0
N  N225  1  0.29408699  0.19347883  0.70290995  1  -1.213798  0  -0.367371  -0.32271  0  3.390758  0
N  N226  1  0.79408070  0.80650793  0.79708790  1  -1.213354  0  -0.367289  -0.32254  0  3.390327  0
N  N227  1  0.20591045  0.69349392  0.29708201  1  -1.213268  0  -0.367279  -0.322532  0  3.390635  0
N  N228  1  0.29409084  0.69348010  0.79709067  1  -1.213682  0  -0.367384  -0.322964  0  3.390758  0
N  N229  1  0.70591867  0.80651362  0.29708757  1  -1.213766  0  -0.367401  -0.322697  0  3.39086  0
N  N230  1  0.20591783  0.19348389  0.20291462  1  -1.213014  0  -0.36736  -0.322724  0  3.390353  0
N  N231  1  0.79407176  0.30652419  0.70292106  1  -1.213956  0  -0.3674  -0.322562  0  3.390647  0
O  O232  1  0.92381707  0.97971174  0.29131817  1  -1.192065  0  -0.39846  -0.60601  0  2.124902  0
O  O233  1  0.07623002  0.52028395  0.79133474  1  -1.19192  0  -0.398251  -0.605641  0  2.124766  0
O  O234  1  0.57619031  0.47970709  0.70866258  1  -1.1921  0  -0.398376  -0.605801  0  2.124463  0
O  O235  1  0.42378310  0.02029651  0.20867456  1  -1.192281  0  -0.39831  -0.60575  0  2.124934  0
O  O236  1  0.07617329  0.02028008  0.70866603  1  -1.191691  0  -0.39837  -0.605752  0  2.124459  0
O  O237  1  0.92384602  0.47971977  0.20867056  1  -1.19171  0  -0.398354  -0.605727  0  2.124682  0
O  O238  1  0.42380720  0.52028724  0.29132551  1  -1.192078  0  -0.398364  -0.605917  0  2.12483  0
O  O239  1  0.57618890  0.97971347  0.79131630  1  -1.192036  0  -0.398316  -0.60583  0  2.124945  0
O  O240  1  0.74371803  0.97755819  0.13616044  1  -1.301197  0  -0.683083  -0.82404  0  1.964984  0
O  O241  1  0.25626077  0.52245013  0.63615891  1  -1.301704  0  -0.683168  -0.824061  0  1.965  0
O  O242  1  0.75628224  0.47754998  0.86384143  1  -1.301539  0  -0.683188  -0.824126  0  1.964932  0
O  O243  1  0.24372580  0.02244225  0.36385702  1  -1.301688  0  -0.68326  -0.824313  0  1.964801  0
O  O244  1  0.25628049  0.02244991  0.86384541  1  -1.301681  0  -0.683156  -0.824137  0  1.964932  0
O  O245  1  0.74373469  0.47753669  0.36383028  1  -1.301722  0  -0.68324  -0.824223  0  1.964817  0
O  O246  1  0.24373363  0.52245186  0.13615499  1  -1.301745  0  -0.683211  -0.824266  0  1.964877  0
O  O247  1  0.75627272  0.97755333  0.63615493  1  -1.301487  0  -0.683209  -0.824202  0  1.964925  0
