# generated using pymatgen
data_Zn4H70C81(N8O3)2
_symmetry_space_group_name_H-M   'P 1'
_cell_length_a   19.25704383
_cell_length_b   19.92297583
_cell_length_c   20.27043401
_cell_angle_alpha   110.45531828
_cell_angle_beta   106.04739878
_cell_angle_gamma   110.18751053
_symmetry_Int_Tables_number   1
_chemical_formula_structural   Zn4H70C81(N8O3)2
_chemical_formula_sum   'Zn4 H70 C81 N16 O6'
_cell_volume   6102.19459710
_cell_formula_units_Z   1
loop_
 _symmetry_equiv_pos_site_id
 _symmetry_equiv_pos_as_xyz
  1  'x, y, z'
loop_
 _atom_site_type_symbol
 _atom_site_label
 _atom_site_symmetry_multiplicity
 _atom_site_fract_x
 _atom_site_fract_y
 _atom_site_fract_z
 _atom_site_occupancy
 _atom_site_pbe_bader_charge
 _atom_site_pbe_bader_spin_density
 _atom_site_pbe_cm5_charge
 _atom_site_pbe_ddec_charge
 _atom_site_pbe_ddec_spin_density
 _atom_site_pbe_ddec_sum_bond_order
 _atom_site_pbe_magmom
Zn  Zn0  1  0.01344766  0.60840773  0.09946810  1  1.193589  0  0.750697  0.677583  0  2.241516  0
Zn  Zn1  1  0.01097412  0.40482312  0.89517543  1  1.192287  0  0.740666  0.626956  0  2.444975  0
Zn  Zn2  1  0.13205685  0.61853179  0.99321043  1  1.225824  0  0.767683  0.718597  0  2.211501  0
Zn  Zn3  1  0.87726260  0.39624215  0.97483057  1  1.193884  0  0.767672  0.721934  0  2.238218  0
H  H4  1  0.96014327  0.73917570  0.09411484  1  0.087049  0  0.116216  0.107596  0  1.053489  0
H  H5  1  0.84718057  0.35981644  0.48064324  1  0.086344  0  0.107891  0.131025  0  0.989164  0
H  H6  1  0.97299267  0.00902384  0.14119495  1  0.071378  0  0.104585  0.108969  0  0.989028  0
H  H7  1  0.98077063  0.14011416  0.15244377  1  0.054659  0  0.100437  0.106069  0  1.00212  0
H  H8  1  0.20112103  0.19981551  0.11881088  1  0.064639  0  0.10466  0.119767  0  1.021892  0
H  H9  1  0.07357694  0.63671600  0.82768622  1  0.115399  0  0.122711  0.114062  0  0.994119  0
H  H10  1  0.88450753  0.39075707  0.74774646  1  0.14816  0  0.122485  0.119557  0  1.000639  0
H  H11  1  0.71142680  0.26624857  0.81884357  1  0.096844  0  0.11969  0.114537  0  0.999011  0
H  H12  1  0.01603524  0.63542050  0.27662747  1  0.094908  0  0.121693  0.112483  0  0.98916  0
H  H13  1  0.43387016  0.74469252  0.22269880  1  0.074977  0  0.102061  0.10178  0  1.001853  0
H  H14  1  0.42258729  0.83363414  0.26401983  1  0.076833  0  0.107369  0.114074  0  0.979763  0
H  H15  1  0.15992576  0.34992129  0.90142847  1  0.077967  0  0.127421  0.119884  0  0.979669  0
H  H16  1  0.45167496  0.81513750  0.18509180  1  0.077005  0  0.112875  0.118314  0  0.965647  0
H  H17  1  0.80487352  0.08893047  0.02780931  1  -0.000982  0  0.082281  0.104504  0  1.01105  0
H  H18  1  0.73164996  0.08881058  0.95179133  1  0.02  0  0.082882  0.105981  0  1.005875  0
H  H19  1  0.77185098  0.02072686  0.92735902  1  0.043735  0  0.089147  0.116146  0  0.999446  0
H  H20  1  0.84090003  0.14068969  0.90864631  1  0.026129  0  0.089009  0.081031  0  0.971635  0
H  H21  1  0.91349877  0.13986197  0.98360205  1  0.037498  0  0.09086  0.085565  0  0.983038  0
H  H22  1  0.90061964  0.24375976  0.08640482  1  0.037459  0  0.098123  0.099105  0  0.977536  0
H  H23  1  0.82869380  0.24515344  0.01070893  1  0.019668  0  0.093574  0.087962  0  0.986599  0
H  H24  1  0.55442724  0.67365246  0.28394117  1  0.03792  0  0.084161  0.110195  0  1.005946  0
H  H25  1  0.66077078  0.74173852  0.35208177  1  -0.008305  0  0.080862  0.102358  0  1.010751  0
H  H26  1  0.13923612  0.41219065  0.04978151  1  0.125947  0  0.120419  0.114101  0  1.008631  0
H  H27  1  0.60710139  0.64697880  0.34841882  1  0.031615  0  0.087278  0.113846  0  1.002272  0
H  H28  1  0.62290670  0.76226855  0.46548354  1  0.014969  0  0.08611  0.073217  0  0.977967  0
H  H29  1  0.51722685  0.69593607  0.39728503  1  0.030463  0  0.089599  0.080519  0  0.97721  0
H  H30  1  0.52231729  0.79083117  0.34230272  1  0.040761  0  0.088485  0.081756  0  1.026482  0
H  H31  1  0.62860739  0.85792302  0.40998951  1  0.014247  0  0.089348  0.084876  0  0.981876  0
H  H32  1  0.80279723  0.14703456  0.61937594  1  0.062124  0  0.104959  0.106205  0  0.981107  0
H  H33  1  0.81610064  0.08313508  0.66017877  1  0.059021  0  0.101938  0.105125  0  0.994072  0
H  H34  1  0.89397699  0.13596902  0.63671214  1  0.057869  0  0.111327  0.115059  0  0.967921  0
H  H35  1  0.78784247  0.60142015  0.39017372  1  0.067191  0  0.095117  0.092064  0  0.991152  0
H  H36  1  0.84093832  0.57849647  0.33241360  1  0.080039  0  0.092321  0.095388  0  1.038014  0
H  H37  1  0.15547872  0.62654050  0.24241840  1  0.113238  0  0.120923  0.115434  0  1.00394  0
H  H38  1  0.87335007  0.68332519  0.39788149  1  0.060072  0  0.102975  0.107027  0  0.978768  0
H  H39  1  0.99904525  0.80863086  0.69632089  1  0.005234  0  0.08241  0.106186  0  1.00494  0
H  H40  1  0.99406586  0.76067204  0.75526741  1  0.003759  0  0.083537  0.108092  0  1.009392  0
H  H41  1  0.09012329  0.81449350  0.75655423  1  0.002776  0  0.081418  0.104668  0  1.024005  0
H  H42  1  0.03084299  0.66218672  0.67346511  1  0.007068  0  0.083264  0.071416  0  0.990922  0
H  H43  1  0.03475757  0.70963140  0.61445545  1  0.020294  0  0.088124  0.08019  0  0.977601  0
H  H44  1  0.88508233  0.66938002  0.57270686  1  0.033169  0  0.09218  0.088995  0  0.990239  0
H  H45  1  0.88121599  0.62217918  0.63259310  1  0.04311  0  0.0895  0.087595  0  0.992353  0
H  H46  1  0.93635806  0.32332555  0.39450550  1  0.042392  0  0.091418  0.08552  0  0.994756  0
H  H47  1  0.95158010  0.37648097  0.33949941  1  0.055605  0  0.094556  0.093865  0  1.004595  0
H  H48  1  0.88139260  0.37083965  0.12572514  1  0.064573  0  0.115866  0.103849  0  1.022963  0
H  H49  1  0.88069636  0.26809575  0.28864032  1  0.03925  0  0.103089  0.107654  0  0.977134  0
H  H50  1  0.30988910  0.17428340  0.15887596  1  0.069606  0  0.102595  0.099725  0  0.982896  0
H  H51  1  0.25115015  0.12498475  0.05351028  1  0.055767  0  0.100618  0.097059  0  0.98399  0
H  H52  1  0.30905995  0.08423219  0.09576890  1  0.048235  0  0.109463  0.112364  0  0.982095  0
H  H53  1  0.58292266  0.35553376  0.91172926  1  0.073289  0  0.108418  0.112373  0  0.972247  0
H  H54  1  0.61052364  0.33860807  0.99422028  1  0.062962  0  0.106493  0.111482  0  0.983119  0
H  H55  1  0.57898801  0.25962764  0.89709910  1  0.084667  0  0.11216  0.115272  0  0.969932  0
H  H56  1  0.85384907  0.79801954  0.22612343  1  0.021663  0  0.084509  0.109302  0  1.002174  0
H  H57  1  0.92480701  0.82706905  0.18793515  1  0.02406  0  0.083198  0.107774  0  1.012071  0
H  H58  1  0.82789062  0.82323560  0.15028975  1  0.018281  0  0.088354  0.115204  0  1.000647  0
H  H59  1  0.30073358  0.61300219  0.06115836  1  0.107024  0  0.118661  0.10846  0  1.038951  0
H  H60  1  0.82462948  0.69842506  0.05561015  1  0.008749  0  0.089987  0.080442  0  0.978605  0
H  H61  1  0.75256726  0.67051136  0.09192041  1  0.061733  0  0.092466  0.088217  0  0.978303  0
H  H62  1  0.84719561  0.65546781  0.18878942  1  0.03755  0  0.099896  0.10407  0  0.966781  0
H  H63  1  0.92664167  0.69078298  0.16233800  1  -0.010924  0  0.089938  0.0779  0  1.016092  0
H  H64  1  0.26277024  0.93663034  0.99054923  1  0.03063  0  0.082445  0.103501  0  1.018051  0
H  H65  1  0.23600614  0.84260830  0.91066678  1  0.007322  0  0.081802  0.104316  0  1.007214  0
H  H66  1  0.19221883  0.90367050  0.89345441  1  0.016434  0  0.086296  0.111289  0  1.015117  0
H  H67  1  0.08832968  0.78350994  0.89290885  1  -0.019216  0  0.086207  0.071148  0  0.996293  0
H  H68  1  0.11464797  0.87804021  0.97068734  1  0.049095  0  0.092818  0.090941  0  0.989598  0
H  H69  1  0.21953403  0.86549920  0.06392864  1  0.053943  0  0.102575  0.107886  0  0.956965  0
H  H70  1  0.67108989  0.95299970  0.54190166  1  0.048629  0  0.098468  0.102275  0  1.012354  0
H  H71  1  0.19069979  0.76883183  0.98778250  1  -0.016588  0  0.089822  0.078372  0  0.995554  0
H  H72  1  0.37965270  0.83981017  0.49974910  1  0.08641  0  0.10518  0.109643  0  0.986861  0
H  H73  1  0.49040389  0.96579645  0.62526630  1  0.057403  0  0.103415  0.108516  0  0.991822  0
C  C74  1  0.00560444  0.74079529  0.07214033  1  0.422248  0  0.009054  -0.05665  0  3.973312  0
C  C75  1  0.18430502  0.64740760  0.20920287  1  0.450226  0  0.015315  -0.023257  0  3.967881  0
C  C76  1  0.91764284  0.43697488  0.15178744  1  0.465379  0  0.010478  -0.048853  0  3.962425  0
C  C77  1  0.85209561  0.23833687  0.76917759  1  1.088014  0  0.195031  0.29595  0  4.074154  0
C  C78  1  0.25361210  0.54995877  0.01760521  1  0.473099  0  0.016159  -0.034828  0  3.94781  0
C  C79  1  0.93759789  0.49877540  0.22630321  1  0.114423  0  -0.032524  0.038574  0  4.219842  0
C  C80  1  0.26251544  0.47899114  0.99379115  1  0.145019  0  -0.030874  0.022907  0  4.220774  0
C  C81  1  0.26977917  0.69422620  0.23269474  1  0.113088  0  -0.042925  -0.082733  0  4.200731  0
C  C82  1  0.03853260  0.32346557  0.06087295  1  0.115653  0  -0.027814  -0.017283  0  4.150738  0
C  C83  1  0.68135608  0.50323329  0.06340850  1  -0.403183  0  -0.029006  -0.031044  0  4.148005  0
C  C84  1  0.62129732  0.50235630  0.07454143  1  0.146889  0  -0.059281  -0.093883  0  4.350186  0
C  C85  1  0.76767387  0.20167764  0.75442092  1  0.116568  0  -0.042839  -0.083326  0  4.215337  0
C  C86  1  0.55017250  0.49736670  0.07449873  1  -0.003577  0  -0.038405  -0.02938  0  4.285239  0
C  C87  1  0.48104737  0.48997141  0.06490959  1  -0.07533  0  -0.038026  -0.030937  0  4.278084  0
C  C88  1  0.40555882  0.48297788  0.04577444  1  -0.103873  0  -0.056045  -0.071785  0  4.357362  0
C  C89  1  0.03476085  0.57779800  0.82081944  1  0.387647  0  0.019473  -0.038539  0  3.941448  0
C  C90  1  0.33649434  0.47714371  0.02144888  1  -0.123014  0  -0.031725  -0.061953  0  4.088568  0
C  C91  1  0.54592561  0.85632520  0.46221692  1  -0.005209  0  -0.004105  0.083573  0  3.940997  0
C  C92  1  0.46189868  0.82666543  0.44853539  1  0.060217  0  -0.006609  0.078953  0  4.087067  0
C  C93  1  0.44401534  0.86471773  0.50991887  1  0.001015  0  -0.087231  -0.120796  0  3.995309  0
C  C94  1  0.50567142  0.93510169  0.57988093  1  -0.01269  0  -0.093322  -0.141788  0  3.994903  0
C  C95  1  0.58813786  0.97026963  0.59077359  1  0.033981  0  -0.008473  0.143276  0  4.15465  0
C  C96  1  0.96053098  0.51047485  0.75497295  1  0.161561  0  -0.027757  0.044043  0  4.19265  0
C  C97  1  0.60694252  0.92745572  0.53265879  1  0.004206  0  -0.092521  -0.196447  0  3.944814  0
C  C98  1  0.39549383  0.76732500  0.37238106  1  -0.238584  0  -0.057141  -0.132573  0  4.155653  0
C  C99  1  0.64986274  0.04930185  0.65410748  1  -0.033075  0  -0.05902  -0.137692  0  4.152693  0
C  C100  1  0.70408576  0.12052889  0.70106728  1  -0.350308  0  -0.059584  -0.086834  0  4.228401  0
C  C101  1  0.74894542  0.43593788  0.99243268  1  1.031164  0  0.191938  0.303627  0  4.096791  0
C  C102  1  0.33650450  0.72995400  0.30695090  1  -0.122387  0  -0.056117  -0.085856  0  4.205442  0
C  C103  1  0.89205395  0.55869555  0.53010796  1  0.046638  0  -0.015055  -0.033583  0  3.92987  0
C  C104  1  0.88091760  0.48882248  0.53912534  1  0.073724  0  -0.005144  0.111438  0  4.122625  0
C  C105  1  0.85936230  0.41451384  0.47478201  1  0.013974  0  -0.103902  -0.26277  0  3.988195  0
C  C106  1  0.85713907  0.41148151  0.40486138  1  0.50267  0  0.078523  0.218815  0  4.071212  0
C  C107  1  0.74611447  0.50234597  0.04579607  1  0.127517  0  -0.044568  -0.160543  0  4.190149  0
C  C108  1  0.87673360  0.48274319  0.39684917  1  0.072196  0  -0.021442  -0.070208  0  4.131777  0
C  C109  1  0.88951296  0.55451190  0.45897026  1  0.497393  0  0.085518  0.161208  0  4.008151  0
C  C110  1  0.89797235  0.49506825  0.61436524  1  -0.148736  0  -0.049672  -0.10667  0  4.142029  0
C  C111  1  0.89163335  0.48420951  0.33304168  1  0.092609  0  -0.051941  -0.088134  0  4.203316  0
C  C112  1  0.91320895  0.48973636  0.28303628  1  -0.454266  0  -0.049053  -0.100634  0  4.160923  0
C  C113  1  0.93781147  0.45187818  0.77971431  1  0.39985  0  0.016298  -0.036647  0  3.924708  0
C  C114  1  0.92343557  0.50175719  0.67992588  1  -0.21987  0  -0.053496  -0.107121  0  4.155611  0
C  C115  1  0.02747928  0.12444360  0.14328085  1  -0.019741  0  -0.101762  -0.160671  0  4.005029  0
C  C116  1  0.09008941  0.17705334  0.13362026  1  0.126047  0  -0.005967  0.162418  0  4.147174  0
C  C117  1  0.15229401  0.15803477  0.12468400  1  0.015944  0  -0.110376  -0.277107  0  3.965077  0
C  C118  1  0.98635006  0.57241485  0.22955307  1  0.427156  0  0.012025  -0.059224  0  3.956698  0
C  C119  1  0.14792657  0.08480263  0.11870878  1  0.432357  0  0.088321  0.21429  0  4.034007  0
C  C120  1  0.08078908  0.02812436  0.12154722  1  0.108893  0  -0.015556  0.032457  0  4.125038  0
C  C121  1  0.02320874  0.05132527  0.13691230  1  -0.026893  0  -0.089205  -0.1143  0  4.011713  0
C  C122  1  0.08452936  0.24183432  0.12302471  1  -0.063969  0  -0.055405  -0.129745  0  4.125361  0
C  C123  1  0.07130094  0.94975324  0.10456117  1  0.081423  0  -0.056439  -0.114945  0  4.180711  0
C  C124  1  0.06232716  0.88064355  0.08356875  1  -0.434852  0  -0.05168  -0.088249  0  4.187507  0
C  C125  1  0.82659586  0.57061435  0.07735405  1  0.521733  0  0.104307  0.191186  0  3.974608  0
C  C126  1  0.07082518  0.28675114  0.09925220  1  -0.319974  0  -0.052167  -0.086647  0  4.167651  0
C  C127  1  0.76422769  0.26643728  0.80915239  1  0.461284  0  0.013304  -0.031721  0  3.979466  0
C  C128  1  0.10134757  0.77090557  0.02975308  1  0.454461  0  0.104759  0.1745  0  3.943296  0
C  C129  1  0.18212822  0.41529536  0.93514057  1  0.453185  0  0.020768  -0.046619  0  3.954321  0
C  C130  1  0.05534114  0.80278439  0.06178889  1  0.122476  0  -0.031086  -0.015123  0  4.179635  0
C  C131  1  0.41467120  0.78639724  0.20969244  1  0.347629  0  -0.128117  -0.163458  0  3.887824  0
C  C132  1  0.88307150  0.23614391  0.02663681  1  0.016029  0  -0.153446  -0.211261  0  3.979417  0
C  C133  1  0.85862856  0.14799048  0.96827215  1  -0.011991  0  -0.161374  -0.083182  0  3.937354  0
C  C134  1  0.78788207  0.08307468  0.96879832  1  -0.054265  0  -0.244002  -0.351962  0  3.990865  0
C  C135  1  0.56920869  0.81347355  0.40182061  1  -0.028419  0  -0.161512  -0.194566  0  3.971216  0
C  C136  1  0.57676282  0.74039219  0.40576235  1  0.009157  0  -0.162843  -0.085687  0  3.959346  0
C  C137  1  0.60105149  0.69840339  0.34428213  1  -0.067693  0  -0.244831  -0.353252  0  3.988706  0
C  C138  1  0.84832912  0.13930451  0.65821107  1  0.401593  0  -0.128852  -0.161301  0  3.889274  0
C  C139  1  0.84836169  0.62080639  0.38928940  1  0.333777  0  -0.139792  -0.173346  0  3.927367  0
C  C140  1  0.26977015  0.70336600  0.16616339  1  1.026246  0  0.192607  0.295177  0  4.069423  0
C  C141  1  0.91120777  0.63718860  0.59684349  1  -0.00614  0  -0.162379  -0.17805  0  3.983142  0
C  C142  1  0.00474784  0.69510387  0.65036996  1  0.000971  0  -0.165859  -0.088865  0  3.958552  0
C  C143  1  0.02312975  0.77404674  0.71837081  1  -0.022455  0  -0.245336  -0.350235  0  3.988026  0
C  C144  1  0.90600692  0.32671865  0.34190893  1  0.401197  0  -0.139672  -0.164873  0  3.93949  0
C  C145  1  0.27203328  0.11477203  0.10372360  1  0.388608  0  -0.130922  -0.169098  0  3.934019  0
C  C146  1  0.61175039  0.32597671  0.93745129  1  0.360977  0  -0.126091  -0.159231  0  3.87798  0
C  C147  1  0.85870544  0.65674252  0.13874814  1  0.02103  0  -0.15436  -0.20984  0  3.979738  0
C  C148  1  0.81938382  0.70264102  0.10950951  1  -0.018337  0  -0.16413  -0.093158  0  3.953736  0
C  C149  1  0.85862600  0.79258486  0.17183454  1  -0.060532  0  -0.243653  -0.352494  0  3.984097  0
C  C150  1  0.16679693  0.81077793  0.00918428  1  0.023013  0  -0.150356  -0.198329  0  3.977968  0
C  C151  1  0.95302629  0.29959900  0.02712011  1  0.479309  0  0.108142  0.181766  0  3.949983  0
C  C152  1  0.13954100  0.83761218  0.94880545  1  0.033975  0  -0.164662  -0.093137  0  3.955082  0
C  C153  1  0.21139002  0.88244787  0.93491267  1  -0.055276  0  -0.244498  -0.351213  0  3.990268  0
C  C154  1  0.07500857  0.38007120  0.03781037  1  0.417944  0  0.020309  -0.017262  0  3.933168  0
N  N155  1  0.02178703  0.67786149  0.04984783  1  -0.80517  0  -0.29009  -0.189297  0  3.640719  0
N  N156  1  0.05454019  0.55903065  0.87830244  1  -0.79899  0  -0.278589  -0.190941  0  3.633359  0
N  N157  1  0.82302547  0.46303284  0.99197313  1  -0.831398  0  -0.302583  -0.302683  0  3.604912  0
N  N158  1  0.99468005  0.48157093  0.85357266  1  -0.813043  0  -0.276058  -0.199377  0  3.567317  0
N  N159  1  0.87116222  0.54636863  0.04463789  1  -0.75577  0  -0.255023  -0.246384  0  3.408819  0
N  N160  1  0.83919569  0.33424743  0.85287333  1  -0.808255  0  -0.283116  -0.223941  0  3.537275  0
N  N161  1  0.07997921  0.69648930  0.02321748  1  -0.774235  0  -0.262464  -0.244216  0  3.502337  0
N  N162  1  0.99322773  0.55407056  0.16203033  1  -0.815179  0  -0.284913  -0.176798  0  3.660051  0
N  N163  1  0.13104721  0.44689174  0.92517979  1  -0.801812  0  -0.279503  -0.171046  0  3.588897  0
N  N164  1  0.19187555  0.66542491  0.11014816  1  -0.818098  0  -0.292037  -0.291765  0  3.591663  0
N  N165  1  0.94145587  0.33878064  0.98682583  1  -0.823405  0  -0.291315  -0.254588  0  3.5926  0
N  N166  1  0.01607019  0.38855421  0.99274606  1  -0.809267  0  -0.284577  -0.231896  0  3.572732  0
N  N167  1  0.13826703  0.63080903  0.13636417  1  -0.79321  0  -0.275719  -0.217112  0  3.543152  0
N  N168  1  0.95076664  0.47081040  0.11364918  1  -0.757991  0  -0.258866  -0.215746  0  3.440026  0
N  N169  1  0.17515449  0.53009116  0.97660731  1  -0.797936  0  -0.264474  -0.207746  0  3.513174  0
N  N170  1  0.89334998  0.31631914  0.82788835  1  -0.832776  0  -0.289849  -0.273947  0  3.590803  0
O  O171  1  0.33026371  0.74152662  0.14952067  1  -1.090698  0  -0.187852  -0.183395  0  2.576906  0
O  O172  1  0.89514387  0.21000642  0.73621690  1  -1.098416  0  -0.189072  -0.179345  0  2.553929  0
O  O173  1  0.90766254  0.62563802  0.45474982  1  -1.071813  0  -0.202546  -0.181168  0  2.5552  0
O  O174  1  0.83667288  0.33869913  0.34227136  1  -1.074213  0  -0.22101  -0.208826  0  2.516942  0
O  O175  1  0.20354020  0.06026147  0.10707730  1  -1.066523  0  -0.183588  -0.152466  0  2.581461  0
O  O176  1  0.69542092  0.35438375  0.94696365  1  -1.096924  0  -0.186799  -0.186792  0  2.576995  0
