# generated using pymatgen
data_CoH9C11N3O4
_symmetry_space_group_name_H-M   'P 1'
_cell_length_a   7.97134827
_cell_length_b   12.55215740
_cell_length_c   12.82710000
_cell_angle_alpha   110.43856495
_cell_angle_beta   108.69399921
_cell_angle_gamma   89.78254358
_symmetry_Int_Tables_number   1
_chemical_formula_structural   CoH9C11N3O4
_chemical_formula_sum   'Co4 H36 C44 N12 O16'
_cell_volume   1130.72042991
_cell_formula_units_Z   4
loop_
 _symmetry_equiv_pos_site_id
 _symmetry_equiv_pos_as_xyz
  1  'x, y, z'
loop_
 _atom_site_type_symbol
 _atom_site_label
 _atom_site_symmetry_multiplicity
 _atom_site_fract_x
 _atom_site_fract_y
 _atom_site_fract_z
 _atom_site_occupancy
 _atom_site_hle17_ddec_charge
 _atom_site_hle17_ddec_spin_density
 _atom_site_hle17_ddec_sum_bond_order
 _atom_site_hle17_magmom
 _atom_site_hse06_10hf_ddec_charge
 _atom_site_hse06_10hf_ddec_spin_density
 _atom_site_hse06_10hf_ddec_sum_bond_order
 _atom_site_hse06_10hf_magmom
 _atom_site_hse06_ddec_charge
 _atom_site_hse06_ddec_spin_density
 _atom_site_hse06_ddec_sum_bond_order
 _atom_site_hse06_magmom
 _atom_site_pbe_bader_charge
 _atom_site_pbe_bader_spin_density
 _atom_site_pbe_cm5_charge
 _atom_site_pbe_ddec_charge
 _atom_site_pbe_ddec_spin_density
 _atom_site_pbe_ddec_sum_bond_order
 _atom_site_pbe_magmom
Co  Co0  1  0.99952671  0.99976507  0.00010891  1  1.004032  -2.902772  2.122035  -2.594  0.976161  -2.855612  2.529548  -2.644  1.045789  -2.900066  2.460839  -2.72  1.31218  -2.578774  0.685193  0.917024  -2.809072  2.585147  -2.565
Co  Co1  1  0.00052838  0.49974034  0.00015252  1  1.005662  2.903229  2.122516  2.596  0.976805  2.855551  2.530303  2.645  1.046067  2.899577  2.461797  2.72  1.313942  2.580844  0.686074  0.918778  2.809839  2.585056  2.567
Co  Co2  1  0.81957409  0.75037416  0.99981903  1  0.981174  -2.881268  2.091984  -2.573  0.95759  -2.845156  2.493107  -2.63  1.030961  -2.897069  2.424114  -2.714  1.289981  -2.553512  0.677494  0.885386  -2.781738  2.561853  -2.537
Co  Co3  1  0.18107847  0.25057813  0.00130260  1  0.981782  2.881607  2.091319  2.573  0.958691  2.84599  2.492574  2.631  1.031921  2.89777  2.423451  2.714  1.283421  2.554918  0.67782  0.886328  2.782773  2.561304  2.537
H  H4  1  0.83645062  0.41886655  0.69940335  1  0.12093  0.000369  0.918259  0.001  0.128545  0.000173  0.97931  0.0  0.132552  0.00014  0.974092  0.0  0.195913  0.000781  0.148017  0.125222  0.000197  0.98372  0.001
H  H5  1  0.13786231  0.08157362  0.29982503  1  0.120865  -3e-05  0.917668  -0.001  0.128649  0.000208  0.978622  0.0  0.13276  0.000164  0.973174  0.0  0.195268  0.000251  0.148388  0.125095  0.000263  0.983404  0.0
H  H6  1  0.16477150  0.58140219  0.30083649  1  0.120832  3.2e-05  0.918372  0.001  0.12882  -0.000208  0.978893  0.0  0.132875  -0.000167  0.973579  0.0  0.195675  -0.000245  0.148345  0.125384  -0.000258  0.983524  0.0
H  H7  1  0.86115426  0.91864373  0.70031655  1  0.120837  -0.000371  0.918625  -0.001  0.128381  -0.000173  0.979887  0.0  0.132508  -0.000138  0.974484  0.0  0.192357  -0.000784  0.148285  0.124893  -0.000199  0.984525  -0.001
H  H8  1  0.10907172  0.13009789  0.71051226  1  0.112369  0.000311  0.930911  0.001  0.119287  2.7e-05  0.997429  0.0  0.122342  2.5e-05  0.993592  0.0  0.202455  0.0005  0.144955  0.116577  1e-05  1.001065  0.0
H  H9  1  0.40082616  0.37025148  0.29199320  1  0.111552  -9e-06  0.930006  0.001  0.118778  -0.000272  0.996458  0.0  0.121993  -0.000214  0.992405  0.0  0.198224  -0.000409  0.144841  0.11578  -0.000355  1.000454  0.0
H  H10  1  0.89050359  0.86954640  0.28982857  1  0.111971  6e-06  0.93053  -0.001  0.119103  0.000274  0.996958  0.0  0.122194  0.000212  0.993078  0.0  0.201135  0.000395  0.145109  0.116313  0.000354  1.000689  0.0
H  H11  1  0.59987455  0.62943308  0.70840935  1  0.112002  -0.000314  0.929544  -0.001  0.11871  -4.5e-05  0.996646  0.0  0.121895  -3.6e-05  0.992616  0.0  0.196144  -0.000541  0.144946  0.115922  -3.3e-05  1.000337  0.0
H  H12  1  0.77278730  0.04931490  0.54826146  1  0.114471  -4.3e-05  0.952553  0.0  0.124213  -5e-06  1.014347  0.0  0.127936  -4e-06  1.011783  0.0  0.08887  5e-06  0.107173  0.121413  -5e-06  1.016311  0.0
H  H13  1  0.22423073  0.45100792  0.45093849  1  0.114215  3.6e-05  0.95329  0.0  0.123689  4.7e-05  1.015393  0.0  0.127478  3.1e-05  1.012745  0.0  0.10087  0.000134  0.106648  0.120919  6.5e-05  1.017301  0.0
H  H14  1  0.22713842  0.95067545  0.45195323  1  0.113922  -3.1e-05  0.952194  0.0  0.123914  -4.7e-05  1.013628  0.0  0.127675  -3.1e-05  1.011014  0.0  0.086884  -0.000138  0.10707  0.121148  -6.7e-05  1.015575  0.0
H  H15  1  0.77601703  0.54887193  0.54918799  1  0.115171  3.8e-05  0.952525  0.0  0.124318  6e-06  1.01504  0.0  0.128239  4e-06  1.012236  0.0  0.106983  9e-06  0.106647  0.121447  1e-05  1.017047  0.0
H  H16  1  0.60756929  0.96011922  0.32970795  1  0.105785  3.7e-05  0.95749  0.0  0.115415  -1.9e-05  1.020142  0.0  0.119058  -6e-06  1.017965  0.0  0.083962  -6.1e-05  0.103145  0.112576  -3.7e-05  1.021926  0.0
H  H17  1  0.27615364  0.53989414  0.66873906  1  0.106784  2.1e-05  0.955983  0.0  0.116115  3.4e-05  1.018922  0.0  0.119815  2.7e-05  1.016615  0.0  0.116167  4.4e-05  0.103622  0.113197  4.4e-05  1.020866  0.0
H  H18  1  0.39211367  0.04007842  0.67047388  1  0.106451  -2.3e-05  0.957584  0.0  0.115883  -4e-05  1.020451  0.0  0.119562  -3e-05  1.01821  0.0  0.08338  -5.3e-05  0.103381  0.11299  -4.9e-05  1.022317  0.0
H  H19  1  0.72422904  0.46022213  0.33137112  1  0.106405  -3.2e-05  0.956605  0.0  0.115846  2.8e-05  1.019475  0.0  0.119448  1.1e-05  1.017312  0.0  0.115323  7.9e-05  0.103531  0.113068  4.6e-05  1.021218  0.0
H  H20  1  0.78551477  0.26049131  0.28587297  1  0.109624  4.8e-05  0.948729  0.0  0.119251  1.4e-05  1.011414  0.0  0.123262  5e-06  1.008644  0.0  0.110176  6e-05  0.105695  0.116067  2.9e-05  1.013654  0.0
H  H21  1  0.49958803  0.23950601  0.71509113  1  0.109051  5e-06  0.950966  0.0  0.118818  1.4e-05  1.013828  0.0  0.122923  1e-06  1.010911  0.0  0.105048  7.7e-05  0.105415  0.115464  3.2e-05  1.016314  0.0
H  H22  1  0.21453011  0.73974317  0.71456660  1  0.11025  -6e-06  0.948847  0.0  0.119724  -1.2e-05  1.01155  0.0  0.123827  1e-06  1.008663  0.0  0.106676  -6.4e-05  0.105969  0.116398  -2.7e-05  1.014006  0.0
H  H23  1  0.50081271  0.76069849  0.28532332  1  0.108803  -4.5e-05  0.952183  0.0  0.118602  -1.2e-05  1.014946  0.0  0.122706  -3e-06  1.01205  0.0  0.106575  -5.8e-05  0.10532  0.115334  -2.8e-05  1.017304  0.0
H  H24  1  0.94577879  0.34954028  0.50296387  1  0.11099  -3e-05  0.950131  0.0  0.124311  5e-06  1.005519  0.0  0.12699  1e-06  1.004895  0.0  0.100695  1.5e-05  0.10779  0.122308  6e-06  1.006112  0.0
H  H25  1  0.44462045  0.15098983  0.49905191  1  0.109929  -1.5e-05  0.950634  0.0  0.123421  -1.3e-05  1.005887  0.0  0.12614  -8e-06  1.005151  0.0  0.099332  -4.6e-05  0.107684  0.121407  -2.2e-05  1.006512  0.0
H  H26  1  0.05458394  0.65050575  0.49753464  1  0.110751  1.8e-05  0.94941  0.0  0.123892  2.1e-05  1.005094  0.0  0.126553  1.3e-05  1.004466  0.0  0.098951  6.4e-05  0.107623  0.121926  3.1e-05  1.005659  0.0
H  H27  1  0.55557446  0.84899539  0.50140019  1  0.110538  3.5e-05  0.95004  0.0  0.123598  -5e-06  1.005618  0.0  0.126317  -2e-06  1.004887  0.0  0.071259  -2.2e-05  0.107855  0.121587  -8e-06  1.006256  0.0
H  H28  1  0.54048697  0.11942322  0.12764198  1  0.124705  -0.000316  0.929776  0.0  0.136319  -0.000456  0.989035  -0.001  0.138169  -0.000338  0.988558  0.0  0.079385  -0.001398  0.106391  0.135212  -0.000602  0.989248  -0.001
H  H29  1  0.41212979  0.38082593  0.87158332  1  0.124834  -0.000581  0.928969  -0.001  0.137236  -0.000436  0.987231  0.0  0.139238  -0.000364  0.986535  0.0  0.084469  -0.001042  0.106266  0.135656  -0.000502  0.987931  0.0
H  H30  1  0.45940936  0.88106138  0.87277161  1  0.124655  0.000609  0.930024  0.001  0.136892  0.000445  0.988871  0.0  0.138898  0.000367  0.988201  0.0  0.083125  0.00111  0.106388  0.135438  0.000536  0.989429  0.0
H  H31  1  0.58824850  0.61964411  0.12873342  1  0.124484  0.000294  0.928785  0.0  0.136754  0.000454  0.987307  0.001  0.138585  0.00034  0.986823  0.0  0.082908  0.001344  0.106139  0.135453  0.000576  0.987694  0.001
H  H32  1  0.46390628  0.99606723  0.14638596  1  0.122352  4.3e-05  0.941678  0.0  0.133666  -0.000183  1.004404  0.0  0.13542  -7.1e-05  1.004226  0.0  0.084766  -0.000854  0.1031  0.13214  -0.000308  1.005016  0.0
H  H33  1  0.31425632  0.50355811  0.85109203  1  0.122494  0.000256  0.943477  0.0  0.13416  9.7e-05  1.005586  0.0  0.135866  6e-05  1.005562  0.0  0.064338  0.000527  0.1033  0.132585  0.000128  1.006111  0.0
H  H34  1  0.53558372  0.00448847  0.85393825  1  0.122131  -0.000266  0.941108  0.0  0.133783  -0.000108  1.003764  0.0  0.135507  -6.7e-05  1.003683  0.0  0.087722  -0.000579  0.103146  0.132175  -0.000143  1.00435  0.0
H  H35  1  0.68647257  0.49696589  0.14909002  1  0.122282  -5.6e-05  0.943776  0.0  0.133846  0.000167  1.006289  0.0  0.1355  6.1e-05  1.006293  0.0  0.064502  0.000807  0.103244  0.13239  0.000286  1.006776  0.0
H  H36  1  0.72070540  0.20740576  0.90598972  1  0.011139  -0.000943  0.906926  -0.001  0.02115  -0.000713  0.975247  -0.001  0.02166  -0.000552  0.969035  -0.001  0.084644  -0.001987  0.108702  0.021343  -0.000917  0.979413  -0.001
H  H37  1  0.81207056  0.29290079  0.09003111  1  0.013379  0.001279  0.905368  0.002  0.022615  0.001003  0.973747  0.001  0.023117  0.000512  0.967557  0.001  0.060248  0.004479  0.109909  0.022676  0.001713  0.978065  0.002
H  H38  1  0.28051458  0.79304715  0.09197616  1  0.012488  -0.001295  0.905939  -0.002  0.02193  -0.001006  0.974323  -0.001  0.022442  -0.000503  0.96812  -0.001  0.073057  -0.00448  0.109449  0.021965  -0.001733  0.978699  -0.002
H  H39  1  0.18528054  0.70743819  0.90836479  1  0.01108  0.00092  0.906652  0.001  0.020903  0.000704  0.974983  0.001  0.021382  0.000555  0.968819  0.001  0.098864  0.001898  0.10875  0.021096  0.0009  0.979186  0.001
C  C40  1  0.91663280  0.35973270  0.73158453  1  0.194619  -0.008371  3.576195  -0.01  0.134042  -0.001903  3.847486  -0.002  0.150771  -0.001307  3.853325  -0.001  0.992329  -0.005983  0.172638  0.121706  -0.002697  3.845577  -0.003
C  C41  1  0.18669448  0.14045820  0.26838132  1  0.19538  0.011552  3.578351  0.015  0.135846  0.003218  3.848282  0.004  0.152743  0.002399  3.853841  0.003  0.96763  0.008372  0.173372  0.122953  0.0043  3.847292  0.005
C  C42  1  0.08402686  0.64032875  0.26864707  1  0.193305  -0.011503  3.577183  -0.015  0.133339  -0.00302  3.847696  -0.004  0.150059  -0.002244  3.853443  -0.003  0.994929  -0.008255  0.172294  0.120733  -0.004223  3.846314  -0.005
C  C43  1  0.81284111  0.85956299  0.73175997  1  0.196289  0.00851  3.576977  0.01  0.13596  0.00192  3.848148  0.002  0.152815  0.001277  3.853809  0.001  0.971788  0.006076  0.173079  0.123487  0.002809  3.846527  0.003
C  C44  1  0.05810968  0.21165267  0.73740692  1  0.189481  -0.0103  3.594393  -0.013  0.127908  -0.003089  3.86745  -0.003  0.145222  -0.002706  3.873  -0.003  0.965615  -0.007703  0.168517  0.114888  -0.003669  3.865293  -0.004
C  C45  1  0.32290974  0.28858021  0.26435357  1  0.191392  -0.011922  3.594827  -0.016  0.130484  -0.002152  3.866865  -0.003  0.148126  -0.001294  3.871971  -0.002  0.968299  -0.007726  0.169257  0.116656  -0.003995  3.865903  -0.005
C  C46  1  0.94195221  0.78816894  0.26292068  1  0.190014  0.012022  3.594755  0.016  0.128712  0.002959  3.86782  0.004  0.146291  0.002212  3.872984  0.003  0.970758  0.008138  0.168476  0.115372  0.00421  3.866273  0.005
C  C47  1  0.67732961  0.71124140  0.73596260  1  0.191127  0.010181  3.592341  0.013  0.129492  0.00268  3.865376  0.003  0.146813  0.002279  3.87081  0.002  0.968712  0.007245  0.168821  0.116523  0.003426  3.863356  0.004
C  C48  1  0.86785653  0.20351861  0.53636074  1  0.163112  -0.000765  3.807498  -0.001  0.153854  -8e-05  4.059525  0.0  0.157341  -1.2e-05  4.083753  0.0  0.296029  -0.000714  0.085258  0.151651  -0.000246  4.042984  0.0
C  C49  1  0.33222376  0.29686332  0.46422132  1  0.162383  0.000173  3.805707  0.0  0.153049  0.000127  4.057671  0.0  0.156416  9.3e-05  4.082066  0.0  0.300663  0.000351  0.084345  0.151145  0.000196  4.040835  0.0
C  C50  1  0.13230051  0.79645547  0.46395918  1  0.161668  -8.2e-05  3.807529  0.0  0.152395  -5.1e-05  4.059642  0.0  0.155803  -3.1e-05  4.083975  0.0  0.301642  -0.000245  0.084634  0.150351  -0.00014  4.042924  0.0
C  C51  1  0.66792762  0.70302510  0.53604247  1  0.162466  0.000709  3.805679  0.001  0.153762  5.2e-05  4.0568  0.0  0.157215  -5e-06  4.081137  0.0  0.293801  0.000633  0.084592  0.151641  0.000211  4.040101  0.0
C  C52  1  0.77794423  0.09278023  0.48887274  1  -0.150233  0.001307  3.765538  0.002  -0.171672  0.000534  4.018977  0.001  -0.174342  0.000461  4.039078  0.001  0.043147  0.001208  -0.093488  -0.169804  0.000629  4.00542  0.001
C  C53  1  0.28876294  0.40746550  0.51076323  1  -0.150925  -0.000222  3.765955  0.0  -0.172127  5.2e-05  4.019056  0.0  -0.174851  1.1e-05  4.039172  0.0  -0.110198  0.000169  -0.093329  -0.170247  7.7e-05  4.005357  0.0
C  C54  1  0.22202874  0.90723582  0.51136872  1  -0.150015  8.3e-05  3.766317  0.0  -0.171311  -5.3e-05  4.019501  0.0  -0.174057  -1e-06  4.039632  0.0  0.036662  -0.000363  -0.093144  -0.169381  -0.000173  4.005798  0.0
C  C55  1  0.71147533  0.59247603  0.48940427  1  -0.150955  -0.001035  3.76453  -0.001  -0.172395  -0.00031  4.017802  0.0  -0.175199  -0.000318  4.037836  0.0  -0.120409  -0.000534  -0.09331  -0.170394  -0.000292  4.004117  0.0
C  C56  1  0.68642643  0.04390989  0.36742112  1  -0.118866  -0.001516  3.733941  -0.002  -0.137027  -0.000653  3.982154  -0.001  -0.140115  -0.000488  4.002512  -0.001  -0.12212  -0.001753  -0.092122  -0.134905  -0.000883  3.96888  -0.001
C  C57  1  0.31773056  0.45613025  0.63173288  1  -0.119398  6.9e-05  3.734213  0.0  -0.137267  -7.9e-05  3.981905  0.0  -0.140259  -1.6e-05  4.002065  0.0  -0.021664  -0.000404  -0.092355  -0.135282  -0.000168  3.96904  0.0
C  C58  1  0.31329759  0.95628775  0.63284607  1  -0.118483  8e-06  3.732997  0.0  -0.136536  0.000119  3.981293  0.0  -0.139559  5.1e-05  4.001587  0.0  -0.115659  0.000502  -0.091857  -0.134521  0.000215  3.968226  0.0
C  C59  1  0.68266273  0.54397916  0.36844022  1  -0.119907  0.001458  3.735611  0.002  -0.137918  0.000644  3.983322  0.001  -0.140933  0.000483  4.003696  0.001  -0.01552  0.001692  -0.092389  -0.135779  0.00086  3.969959  0.001
C  C60  1  0.68469941  0.10427207  0.29328667  1  0.132429  0.001858  3.729155  0.003  0.148745  0.000574  3.968557  0.001  0.150789  0.000516  3.99221  0.001  0.002665  0.001135  -0.00409  0.146667  0.000662  3.953147  0.001
C  C61  1  0.38988903  0.39564558  0.70630159  1  0.133046  -0.000187  3.729886  0.0  0.149765  -8.8e-05  3.968669  0.0  0.151864  -0.000107  3.992247  0.0  -0.010794  -2.8e-05  -0.003643  0.147345  -3e-05  3.953603  0.0
C  C62  1  0.31506266  0.89602836  0.70707623  1  0.133087  -4.1e-05  3.728688  0.0  0.149227  -4.3e-05  3.968605  0.0  0.151238  2.3e-05  3.992289  0.0  0.0021  -0.00044  -0.004422  0.146995  -0.000214  3.953368  0.0
C  C63  1  0.61058569  0.60456491  0.29395736  1  0.13243  -0.001762  3.729754  -0.003  0.149138  -0.000524  3.968754  -0.001  0.151202  -0.000494  3.992357  -0.001  -0.016183  -0.000941  -0.004058  0.146922  -0.000558  3.95342  -0.001
C  C64  1  0.78079695  0.21393117  0.34279087  1  -0.112822  -0.001496  3.722722  -0.002  -0.134069  -0.000593  3.976219  -0.001  -0.137263  -0.000449  3.996441  -0.001  -0.064911  -0.001634  -0.090165  -0.131731  -0.000795  3.962968  -0.001
C  C65  1  0.43764459  0.28617322  0.65786175  1  -0.113739  0.000111  3.722168  0.0  -0.135558  0.000147  3.97588  0.0  -0.138714  8.5e-05  3.995963  0.0  -0.021618  0.00063  -0.090517  -0.133408  0.000275  3.963077  0.0
C  C66  1  0.21919347  0.78630245  0.65763600  1  -0.1138  -2.1e-05  3.722715  0.0  -0.13475  -9e-05  3.97602  0.0  -0.137932  -3.7e-05  3.99611  0.0  -0.066115  -0.000489  -0.090414  -0.132539  -0.000209  3.963087  0.0
C  C67  1  0.56275878  0.71398930  0.34250536  1  -0.113577  0.001444  3.723185  0.002  -0.135433  0.000559  3.976815  0.001  -0.138639  0.000427  3.996976  0.001  -0.020832  0.001575  -0.090564  -0.133186  0.000755  3.963762  0.001
C  C68  1  0.87147126  0.26427481  0.46423960  1  -0.145036  0.001023  3.759776  0.001  -0.167731  0.000296  4.014433  0.0  -0.170455  0.000297  4.036002  0.0  -0.089109  0.000605  -0.093252  -0.165774  0.000302  3.999662  0.0
C  C69  1  0.40800090  0.23608826  0.53690282  1  -0.142765  -3e-06  3.757664  0.0  -0.165551  2.2e-05  4.012439  0.0  -0.168244  1.8e-05  4.03394  0.0  -0.083734  -3.3e-05  -0.092421  -0.163602  7e-06  3.997675  0.0
C  C70  1  0.12872661  0.73580976  0.53616831  1  -0.144031  0.000104  3.758425  0.0  -0.16653  3.3e-05  4.012979  0.0  -0.169233  -4e-06  4.034558  0.0  -0.084858  0.000319  -0.09274  -0.164597  0.000146  3.998186  0.0
C  C71  1  0.59219726  0.76391408  0.46345444  1  -0.143325  -0.001275  3.75734  -0.002  -0.165947  -0.000528  4.011978  -0.001  -0.168661  -0.000436  4.03348  -0.001  -0.053377  -0.001301  -0.092645  -0.164002  -0.000669  3.997243  -0.001
C  C72  1  0.58198453  0.05193517  0.16287101  1  -0.319755  -0.007926  3.679408  -0.012  -0.360149  -0.00491  3.910543  -0.007  -0.367019  -0.00339  3.917979  -0.005  -0.016391  -0.01232  -0.167827  -0.35493  -0.00662  3.906215  -0.009
C  C73  1  0.41712179  0.44812125  0.83619156  1  -0.319267  -0.000414  3.677745  0.0  -0.360232  -0.000388  3.909021  0.0  -0.367099  -0.00019  3.916294  0.0  -0.019925  -0.00104  -0.167826  -0.354685  -0.000656  3.904859  -0.001
C  C74  1  0.41767380  0.94848861  0.83749778  1  -0.319709  0.000415  3.677357  0.0  -0.360717  0.000361  3.908801  0.0  -0.367662  0.000178  3.916247  0.0  -0.025349  0.000979  -0.167412  -0.35514  0.000612  3.90445  0.001
C  C75  1  0.58346409  0.55225627  0.16404448  1  -0.319178  0.007909  3.677691  0.012  -0.360201  0.004898  3.908718  0.007  -0.366928  0.003398  3.916001  0.005  -0.015481  0.012188  -0.167913  -0.354989  0.006562  3.904386  0.009
C  C76  1  0.69840047  0.98109082  0.09700771  1  0.715214  0.007435  3.809374  0.012  0.68295  0.000115  4.106635  0.001  0.720357  7.3e-05  4.100002  0.0  1.575642  0.003712  0.219972  0.654562  0.000915  4.110047  0.003
C  C77  1  0.60010672  0.51954185  0.90301316  1  0.716087  -0.001118  3.807513  -0.001  0.683551  -0.001796  4.10507  -0.001  0.720826  -0.001461  4.098252  -0.001  1.574508  -0.002682  0.219596  0.655253  -0.001639  4.108634  -0.001
C  C78  1  0.30099561  0.01920019  0.90327596  1  0.717662  0.001063  3.807673  0.0  0.685292  0.001977  4.104991  0.002  0.722505  0.001631  4.098146  0.001  1.57452  0.002699  0.22079  0.656935  0.001687  4.108725  0.001
C  C79  1  0.40066709  0.48073031  0.09719935  1  0.716081  -0.00758  3.808164  -0.012  0.683508  -0.000478  4.10647  -0.001  0.72103  -0.000399  4.099714  -0.001  1.57634  -0.004024  0.219385  0.655264  -0.001069  4.109507  -0.003
C  C80  1  0.79549476  0.14411922  0.85938532  1  0.598068  -0.000202  3.862845  0.0  0.52881  -0.000426  4.188824  0.0  0.564863  -0.000186  4.180565  0.0  1.500521  -0.000825  0.147192  0.502375  -0.000628  4.191578  0.0
C  C81  1  0.93518454  0.35516885  0.13789569  1  0.601746  0.004564  3.849835  0.004  0.532626  0.009896  4.176019  0.011  0.569037  0.006288  4.167096  0.007  1.54569  0.021992  0.148796  0.505533  0.014372  4.179864  0.016
C  C82  1  0.20439513  0.85504025  0.13865090  1  0.600325  -0.00459  3.854972  -0.004  0.530731  -0.010063  4.182  -0.012  0.567148  -0.006438  4.173187  -0.008  1.547781  -0.0222  0.148277  0.50366  -0.014507  4.185562  -0.016
C  C83  1  0.06337073  0.64403430  0.86052890  1  0.599487  0.000236  3.858062  0.0  0.530712  0.000503  4.183125  0.0  0.566841  0.000284  4.174679  0.0  1.533394  0.000792  0.147793  0.504161  0.000623  4.186309  0.0
N  N84  1  0.00230611  0.37623296  0.84355581  1  -0.227124  0.030541  3.227349  0.052  -0.196063  0.022694  3.532398  0.035  -0.2107  0.02021  3.538756  0.03  -0.754072  0.041498  -0.233915  -0.18666  0.024227  3.53052  0.038
N  N85  1  0.16085817  0.12373266  0.15680177  1  -0.227187  -0.035033  3.229932  -0.061  -0.196727  -0.0243  3.535146  -0.038  -0.211162  -0.021528  3.54106  -0.033  -0.722031  -0.045021  -0.233945  -0.187626  -0.026602  3.534152  -0.043
N  N86  1  0.99849881  0.62390301  0.15668029  1  -0.224789  0.035118  3.224962  0.061  -0.193494  0.024442  3.529467  0.039  -0.207936  0.021586  3.535557  0.033  -0.753392  0.045508  -0.232319  -0.184382  0.026812  3.528165  0.043
N  N87  1  0.83846706  0.87641530  0.84334640  1  -0.227128  -0.03048  3.228478  -0.052  -0.197118  -0.02251  3.534686  -0.035  -0.211765  -0.020037  3.540788  -0.03  -0.72254  -0.041022  -0.234754  -0.18769  -0.02403  3.533103  -0.037
N  N88  1  0.09157096  0.28306299  0.84739050  1  -0.235453  0.029473  3.244577  0.052  -0.204074  0.021399  3.550024  0.034  -0.218739  0.01984  3.555311  0.031  -0.744094  0.037667  -0.238112  -0.193151  0.022041  3.548565  0.036
N  N89  1  0.24659366  0.21696859  0.15410858  1  -0.238209  0.033702  3.250524  0.06  -0.205771  0.023188  3.554073  0.037  -0.220558  0.020835  3.558674  0.032  -0.745173  0.041463  -0.239436  -0.195347  0.024642  3.555048  0.04
N  N90  1  0.90891901  0.71690680  0.15292332  1  -0.237802  -0.033908  3.249865  -0.06  -0.206439  -0.02338  3.554858  -0.038  -0.221092  -0.021241  3.559451  -0.033  -0.745886  -0.041475  -0.239351  -0.195823  -0.02467  3.554842  -0.041
N  N91  1  0.75316957  0.78304489  0.84617053  1  -0.237285  -0.029332  3.244246  -0.051  -0.204928  -0.021379  3.549142  -0.034  -0.219522  -0.019794  3.554151  -0.031  -0.746483  -0.037656  -0.238595  -0.194245  -0.022  3.548391  -0.036
N  N92  1  0.94886165  0.25703759  0.66167505  1  -0.119183  0.001852  3.579546  0.004  -0.02975  0.001101  3.796669  0.002  -0.046377  0.001096  3.818275  0.002  -1.272561  0.00142  -0.214338  -0.019042  0.001032  3.78318  0.002
N  N93  1  0.28880754  0.24332806  0.33917718  1  -0.119954  -0.000151  3.578599  0.0  -0.030145  4.5e-05  3.794731  0.0  -0.046713  2.1e-05  3.816193  0.0  -1.27579  -2.8e-05  -0.214348  -0.019715  -5.5e-05  3.781854  0.0
N  N94  1  0.05137681  0.74284912  0.33862499  1  -0.119132  0.000109  3.579819  0.0  -0.029433  -1.1e-05  3.79637  0.0  -0.046008  2.3e-05  3.817864  0.0  -1.27704  3.7e-05  -0.214205  -0.018882  1.3e-05  3.783192  0.0
N  N95  1  0.71127071  0.75650297  0.66107582  1  -0.119852  -0.001841  3.578291  -0.004  -0.030389  -0.001105  3.795082  -0.002  -0.047009  -0.001098  3.816681  -0.002  -1.270165  -0.001404  -0.21406  -0.01976  -0.001006  3.781675  -0.002
O  O96  1  0.73403519  0.09755479  0.74978859  1  -0.572478  -0.000479  1.933806  -0.001  -0.531594  -0.000365  2.167932  -0.001  -0.558164  -0.000379  2.161734  -0.001  -1.144465  -0.000809  -0.318747  -0.510519  -0.000339  2.170623  -0.001
O  O97  1  0.98465450  0.40135553  0.24743017  1  -0.570046  0.015164  1.930538  0.026  -0.53064  0.013726  2.165292  0.024  -0.557131  0.010008  2.158924  0.018  -1.162621  0.037739  -0.317373  -0.509529  0.018437  2.16827  0.031
O  O98  1  0.26436978  0.90098195  0.24824892  1  -0.56869  -0.015195  1.93175  -0.026  -0.529228  -0.013784  2.16651  -0.024  -0.555752  -0.010084  2.160294  -0.018  -1.175457  -0.037755  -0.317246  -0.508044  -0.018476  2.16932  -0.031
O  O99  1  0.01534559  0.59734482  0.75104411  1  -0.573087  0.000312  1.930987  0.001  -0.532284  0.000143  2.165321  0.0  -0.55887  0.000229  2.15904  0.0  -1.193193  0.000418  -0.319113  -0.511288  0.000134  2.1682  0.0
O  O100  1  0.79102892  0.03451152  0.06289604  1  -0.624231  -0.040629  2.098921  -0.069  -0.596596  -0.032734  2.375353  -0.053  -0.632897  -0.025876  2.366073  -0.041  -1.166134  -0.072685  -0.31188  -0.567387  -0.039681  2.380102  -0.064
O  O101  1  0.72783513  0.46645373  0.93885434  1  -0.625211  0.036944  2.104101  0.061  -0.596779  0.028608  2.380684  0.044  -0.632952  0.023391  2.371501  0.036  -1.172389  0.060666  -0.311912  -0.568062  0.033943  2.385603  0.053
O  O102  1  0.20924956  0.96571867  0.93781157  1  -0.625285  -0.036596  2.09896  -0.061  -0.596509  -0.028224  2.374537  -0.044  -0.632521  -0.023026  2.365399  -0.035  -1.164136  -0.06018  -0.311926  -0.567942  -0.03367  2.379533  -0.053
O  O103  1  0.27246259  0.53381501  0.06188274  1  -0.624426  0.040926  2.104817  0.069  -0.597278  0.032405  2.382191  0.052  -0.633705  0.025605  2.372935  0.041  -1.167538  0.072174  -0.312029  -0.567817  0.039642  2.386833  0.064
O  O104  1  0.69471873  0.87576173  0.08524354  1  -0.622973  -0.046999  2.049542  -0.078  -0.596708  -0.034775  2.321169  -0.055  -0.635242  -0.025375  2.311565  -0.039  -1.159748  -0.085668  -0.315953  -0.561779  -0.045858  2.325437  -0.073
O  O105  1  0.60758835  0.62450262  0.91336891  1  -0.623692  -0.046811  2.041296  -0.077  -0.597138  -0.035146  2.312035  -0.055  -0.635085  -0.02654  2.301838  -0.04  -1.164436  -0.083562  -0.316523  -0.562531  -0.044749  2.316561  -0.07
O  O106  1  0.30421681  0.12443335  0.91458740  1  -0.625166  0.047068  2.046765  0.077  -0.598472  0.035223  2.317474  0.054  -0.636295  0.026713  2.306871  0.04  -1.15998  0.08346  -0.317054  -0.563961  0.044912  2.322524  0.07
O  O107  1  0.39313773  0.37569246  0.08643043  1  -0.623672  0.046762  2.045591  0.078  -0.597558  0.035012  2.317915  0.056  -0.636181  0.025621  2.308506  0.04  -1.158077  0.085321  -0.316193  -0.562675  0.045739  2.321672  0.073
O  O108  1  0.94555567  0.12704933  0.92822108  1  -0.67418  -0.00762  2.261301  -0.012  -0.643979  -0.005374  2.579345  -0.008  -0.688618  -0.003827  2.570218  -0.005  -1.177217  -0.013869  -0.33811  -0.60247  -0.00748  2.580368  -0.012
O  O109  1  0.01754773  0.37191752  0.07046490  1  -0.672462  0.063389  2.266976  0.101  -0.64443  0.050172  2.586109  0.071  -0.689527  0.038756  2.575288  0.052  -1.17298  0.117131  -0.337834  -0.602263  0.063848  2.589174  0.093
O  O110  1  0.05371686  0.87164844  0.06966850  1  -0.671222  -0.063501  2.271716  -0.101  -0.643281  -0.050009  2.591408  -0.071  -0.688683  -0.038527  2.581328  -0.052  -1.175334  -0.117051  -0.336924  -0.600586  -0.063909  2.593633  -0.093
O  O111  1  0.98129339  0.62692159  0.92778464  1  -0.674367  0.006567  2.259347  0.011  -0.643759  0.003831  2.576623  0.005  -0.688517  0.002719  2.567397  0.004  -1.173862  0.011626  -0.337805  -0.602784  0.006205  2.578354  0.01
