# generated using pymatgen
data_Mg3H50C52(NO2)8
_symmetry_space_group_name_H-M   'P 1'
_cell_length_a   15.24344938
_cell_length_b   15.24340428
_cell_length_c   17.09528182
_cell_angle_alpha   70.88601089
_cell_angle_beta   70.88595806
_cell_angle_gamma   70.44105649
_symmetry_Int_Tables_number   1
_chemical_formula_structural   Mg3H50C52(NO2)8
_chemical_formula_sum   'Mg6 H100 C104 N16 O32'
_cell_volume   3429.24421493
_cell_formula_units_Z   2
loop_
 _symmetry_equiv_pos_site_id
 _symmetry_equiv_pos_as_xyz
  1  'x, y, z'
loop_
 _atom_site_type_symbol
 _atom_site_label
 _atom_site_symmetry_multiplicity
 _atom_site_fract_x
 _atom_site_fract_y
 _atom_site_fract_z
 _atom_site_occupancy
 _atom_site_pbe_bader_charge
 _atom_site_pbe_bader_spin_density
 _atom_site_pbe_cm5_charge
 _atom_site_pbe_ddec_charge
 _atom_site_pbe_ddec_spin_density
 _atom_site_pbe_ddec_sum_bond_order
 _atom_site_pbe_magmom
Mg  Mg0  1  0.99999978  0.50000066  0.00000153  1  1.705574  0  0.814619  1.421349  0  1.380096  0
Mg  Mg1  1  0.49999741  0.00000036  0.49999977  1  1.705534  0  0.814647  1.421326  0  1.380111  0
Mg  Mg2  1  0.86711107  0.47230178  0.21191117  1  1.684039  0  0.830622  1.330375  0  1.473419  0
Mg  Mg3  1  0.52769746  0.13289078  0.28808998  1  1.68408  0  0.830601  1.330406  0  1.47336  0
Mg  Mg4  1  0.13289465  0.52769150  0.78809020  1  1.684089  0  0.830661  1.330339  0  1.473464  0
Mg  Mg5  1  0.47230253  0.86711230  0.71190904  1  1.684106  0  0.830641  1.330397  0  1.473416  0
H  H6  1  0.00344596  0.60393141  0.29165986  1  0.101749  0  0.09863  0.09187  0  1.05162  0
H  H7  1  0.39607355  0.99654993  0.20834275  1  0.101658  0  0.098664  0.091889  0  1.051561  0
H  H8  1  0.99654829  0.39607662  0.70833939  1  0.10169  0  0.09868  0.091926  0  1.05159  0
H  H9  1  0.60392644  0.00344760  0.79165729  1  0.101625  0  0.098632  0.091877  0  1.051577  0
H  H10  1  0.80487491  0.08238076  0.12935876  1  0.099332  0  0.105207  0.110455  0  1.023835  0
H  H11  1  0.91762299  0.19512545  0.37064066  1  0.099117  0  0.10524  0.110503  0  1.023825  0
H  H12  1  0.19512795  0.91761257  0.87063990  1  0.099351  0  0.105206  0.110485  0  1.023917  0
H  H13  1  0.08238346  0.80487320  0.62935660  1  0.099401  0  0.105223  0.110477  0  1.023872  0
H  H14  1  0.09764672  0.68585591  0.32806210  1  0.103829  0  0.100962  0.096078  0  1.047865  0
H  H15  1  0.31415401  0.90234556  0.17193836  1  0.103841  0  0.100949  0.096063  0  1.047968  0
H  H16  1  0.90235113  0.31415467  0.67193420  1  0.103857  0  0.100944  0.096107  0  1.047893  0
H  H17  1  0.68585100  0.09764582  0.82806376  1  0.103859  0  0.100966  0.096108  0  1.047834  0
H  H18  1  0.76940693  0.22629136  0.18357916  1  0.135988  0  0.107135  0.122506  0  1.031742  0
H  H19  1  0.77370791  0.23059666  0.31642077  1  0.136282  0  0.107112  0.122516  0  1.03177  0
H  H20  1  0.23059736  0.77370021  0.81642195  1  0.13593  0  0.107111  0.122489  0  1.031804  0
H  H21  1  0.22629495  0.76940569  0.68357821  1  0.136352  0  0.107127  0.122514  0  1.031782  0
H  H22  1  0.07684850  0.13428238  0.97271467  1  0.078782  0  0.100479  0.098679  0  1.069238  0
H  H23  1  0.86571450  0.92315292  0.52728623  1  0.078835  0  0.100464  0.098688  0  1.069222  0
H  H24  1  0.92315724  0.86571230  0.02728277  1  0.078752  0  0.100504  0.098751  0  1.069212  0
H  H25  1  0.13428117  0.07684849  0.47271744  1  0.079001  0  0.100497  0.09873  0  1.069207  0
H  H26  1  0.04048410  0.28064034  0.02542199  1  0.121863  0  0.107468  0.11075  0  1.045298  0
H  H27  1  0.71935604  0.95951922  0.47458066  1  0.122011  0  0.107499  0.110822  0  1.045244  0
H  H28  1  0.95952018  0.71935608  0.97457888  1  0.121898  0  0.107512  0.110808  0  1.045405  0
H  H29  1  0.28063533  0.04048814  0.52542430  1  0.121853  0  0.10749  0.11081  0  1.045343  0
H  H30  1  0.70893790  0.92385354  0.88789585  1  0.089118  0  0.109563  0.116907  0  1.008746  0
H  H31  1  0.07614807  0.29105989  0.61210428  1  0.089105  0  0.109569  0.116922  0  1.008756  0
H  H32  1  0.29103909  0.07614153  0.11211565  1  0.088649  0  0.109506  0.116912  0  1.008756  0
H  H33  1  0.92385123  0.70895866  0.38788812  1  0.088778  0  0.109517  0.116853  0  1.008881  0
H  H34  1  0.17023898  0.64972924  0.03205373  1  0.109448  0  0.103682  0.109013  0  1.01653  0
H  H35  1  0.35026761  0.82976199  0.46794849  1  0.109465  0  0.103708  0.109076  0  1.016513  0
H  H36  1  0.82977177  0.35026068  0.96794481  1  0.109386  0  0.103677  0.109024  0  1.016488  0
H  H37  1  0.64972806  0.17024288  0.53205536  1  0.109675  0  0.103673  0.109  0  1.016577  0
H  H38  1  0.61360143  0.69056352  0.16156623  1  0.113845  0  0.108174  0.113669  0  0.991874  0
H  H39  1  0.30943311  0.38640433  0.33843493  1  0.113742  0  0.108186  0.113681  0  0.991885  0
H  H40  1  0.38639420  0.30942813  0.83844906  1  0.114081  0  0.108172  0.113769  0  0.991894  0
H  H41  1  0.69057050  0.61360064  0.66155548  1  0.11387  0  0.108147  0.113663  0  0.991966  0
H  H42  1  0.25950784  0.73900979  0.06659820  1  0.093141  0  0.102678  0.105503  0  1.042203  0
H  H43  1  0.26099015  0.74049337  0.43340188  1  0.093143  0  0.102671  0.105487  0  1.042203  0
H  H44  1  0.74050292  0.26098152  0.93339818  1  0.093282  0  0.102693  0.105505  0  1.042138  0
H  H45  1  0.73901126  0.25950794  0.56660191  1  0.093155  0  0.102689  0.105549  0  1.042158  0
H  H46  1  0.82135352  0.76118477  0.92742702  1  0.100653  0  0.107558  0.109778  0  1.017869  0
H  H47  1  0.23881565  0.17864910  0.57257184  1  0.100714  0  0.107559  0.109785  0  1.01793  0
H  H48  1  0.17862994  0.23881074  0.07258014  1  0.100509  0  0.107539  0.10981  0  1.017892  0
H  H49  1  0.76118579  0.82136611  0.42742442  1  0.100642  0  0.107533  0.109768  0  1.017881  0
H  H50  1  0.50027915  0.85217995  0.12297734  1  0.092189  0  0.104505  0.107316  0  1.048023  0
H  H51  1  0.14781279  0.49972246  0.37702636  1  0.092142  0  0.104505  0.107276  0  1.048046  0
H  H52  1  0.49971001  0.14780642  0.87704193  1  0.092501  0  0.104614  0.107438  0  1.047926  0
H  H53  1  0.85219155  0.50028719  0.62295897  1  0.092471  0  0.104592  0.107382  0  1.047973  0
H  H54  1  0.08455912  0.36203620  0.17535048  1  0.142244  0  0.132362  0.061004  0  1.00366  0
H  H55  1  0.63795824  0.91545159  0.32464302  1  0.142037  0  0.13239  0.061048  0  1.003681  0
H  H56  1  0.91544878  0.63796001  0.82464356  1  0.142017  0  0.132315  0.060946  0  1.003612  0
H  H57  1  0.36204319  0.08455114  0.67535334  1  0.142191  0  0.132396  0.061076  0  1.003685  0
H  H58  1  0.87976392  0.51034819  0.37221113  1  0.096513  0  0.111138  0.075982  0  0.98224  0
H  H59  1  0.48965294  0.12023436  0.12778818  1  0.096467  0  0.111131  0.075958  0  0.982237  0
H  H60  1  0.12024037  0.48964962  0.62778875  1  0.096533  0  0.11115  0.075989  0  0.982232  0
H  H61  1  0.51034275  0.87976844  0.87221041  1  0.096373  0  0.111173  0.076017  0  0.98226  0
H  H62  1  0.76218905  0.57050380  0.42066144  1  0.03162  0  0.096455  0.052646  0  0.98415  0
H  H63  1  0.42949180  0.23780927  0.07934019  1  0.031676  0  0.096464  0.05266  0  0.984079  0
H  H64  1  0.23781452  0.42949420  0.57933860  1  0.031597  0  0.09647  0.052618  0  0.984142  0
H  H65  1  0.57050461  0.76219474  0.92065784  1  0.047756  0  0.096433  0.05257  0  0.984169  0
H  H66  1  0.83933336  0.35136291  0.44294840  1  0.067603  0  0.095327  0.135083  0  1.011474  0
H  H67  1  0.64863370  0.16066764  0.05705133  1  0.067655  0  0.095323  0.135084  0  1.011453  0
H  H68  1  0.16067021  0.64863578  0.55705260  1  0.067606  0  0.095342  0.135092  0  1.011472  0
H  H69  1  0.35136053  0.83933205  0.94295209  1  0.067841  0  0.095326  0.135089  0  1.011455  0
H  H70  1  0.72129986  0.41107941  0.49305005  1  -0.007147  0  0.087841  0.117287  0  1.006716  0
H  H71  1  0.58891830  0.27870161  0.00694937  1  -0.007137  0  0.08783  0.117269  0  1.006712  0
H  H72  1  0.27870515  0.58891682  0.50695242  1  -0.007175  0  0.087853  0.117345  0  1.006636  0
H  H73  1  0.41108384  0.72129745  0.99305018  1  -0.007155  0  0.087862  0.117313  0  1.006711  0
H  H74  1  0.82240843  0.41341544  0.52117510  1  0.050055  0  0.092472  0.131463  0  1.020471  0
H  H75  1  0.58658209  0.17759243  0.97882482  1  0.049516  0  0.0925  0.131529  0  1.020421  0
H  H76  1  0.17759658  0.58658288  0.47882560  1  0.049031  0  0.092466  0.131461  0  1.020444  0
H  H77  1  0.41341718  0.82240737  0.02117477  1  0.049474  0  0.092489  0.131496  0  1.020497  0
H  H78  1  0.03041447  0.30896364  0.40700255  1  0.095915  0  0.109321  0.130083  0  0.992816  0
H  H79  1  0.69103904  0.96958940  0.09299347  1  0.096013  0  0.109304  0.130094  0  0.992763  0
H  H80  1  0.96959272  0.69104316  0.59299039  1  0.096036  0  0.109295  0.130075  0  0.992844  0
H  H81  1  0.30895664  0.03041132  0.90700689  1  0.096152  0  0.109305  0.130095  0  0.992789  0
H  H82  1  0.14852794  0.23373817  0.40976128  1  0.076289  0  0.103658  0.119165  0  1.022311  0
H  H83  1  0.76626344  0.85147637  0.09023301  1  0.076244  0  0.103708  0.119237  0  1.022283  0
H  H84  1  0.85147709  0.76626711  0.59023330  1  0.076354  0  0.103702  0.11918  0  1.022358  0
H  H85  1  0.23373082  0.14852750  0.90976452  1  0.076489  0  0.103699  0.119192  0  1.022314  0
H  H86  1  0.05907992  0.18786804  0.40071206  1  0.083499  0  0.100759  0.105533  0  1.052505  0
H  H87  1  0.81213541  0.94092192  0.09928479  1  0.083423  0  0.100803  0.105609  0  1.052518  0
H  H88  1  0.94092654  0.81213687  0.59928280  1  0.083313  0  0.100769  0.105555  0  1.052494  0
H  H89  1  0.18786100  0.05907793  0.90071269  1  0.083105  0  0.100805  0.105622  0  1.052432  0
H  H90  1  0.26677017  0.26469527  0.27380843  1  0.062519  0  0.107414  0.124857  0  1.005188  0
H  H91  1  0.73530239  0.73323190  0.22618934  1  0.062529  0  0.107477  0.124883  0  1.005145  0
H  H92  1  0.73323772  0.73530857  0.72618691  1  0.062621  0  0.107466  0.12481  0  1.005214  0
H  H93  1  0.26469473  0.26676776  0.77381150  1  0.062604  0  0.10745  0.124813  0  1.005057  0
H  H94  1  0.23150814  0.27740610  0.17969457  1  0.046715  0  0.108671  0.118284  0  1.012765  0
H  H95  1  0.72258881  0.76849720  0.32030543  1  0.046781  0  0.108698  0.118332  0  1.01278  0
H  H96  1  0.76850046  0.72259269  0.82030378  1  0.089531  0  0.10868  0.11822  0  1.012729  0
H  H97  1  0.27740903  0.23150367  0.67969251  1  0.046762  0  0.108705  0.11833  0  1.012809  0
H  H98  1  0.23765967  0.16756782  0.26090852  1  0.081727  0  0.108089  0.131391  0  0.970895  0
H  H99  1  0.83243082  0.76234388  0.23909081  1  0.081773  0  0.10812  0.131415  0  0.970894  0
H  H100  1  0.76234966  0.83243565  0.73908709  1  0.081664  0  0.108074  0.131367  0  0.970785  0
H  H101  1  0.16756415  0.23765425  0.76090817  1  0.081683  0  0.108092  0.131376  0  0.970828  0
H  H102  1  0.70828255  0.50948581  0.33939934  1  0.600394  0  0.355495  0.382712  0  0.852253  0
H  H103  1  0.49051452  0.29171686  0.16060002  1  0.600407  0  0.35548  0.382716  0  0.852211  0
H  H104  1  0.29171959  0.49051603  0.66059942  1  0.600355  0  0.355558  0.382745  0  0.852287  0
H  H105  1  0.50948332  0.70828608  0.83939849  1  0.600352  0  0.355533  0.382813  0  0.852121  0
C  C106  1  0.88559497  0.34528284  0.14352753  1  1.524223  0  0.214441  0.594957  0  4.171783  0
C  C107  1  0.65471570  0.11440600  0.35647512  1  1.52434  0  0.214411  0.59496  0  4.172004  0
C  C108  1  0.11440357  0.65471090  0.85647344  1  1.525416  0  0.21447  0.595086  0  4.171872  0
C  C109  1  0.34528357  0.88560142  0.64352577  1  1.52423  0  0.214376  0.59482  0  4.172085  0
C  C110  1  0.90370905  0.26166815  0.10845795  1  0.000904  0  -0.008417  -0.021068  0  3.941074  0
C  C111  1  0.73833190  0.09629322  0.39153913  1  -3.2e-05  0  -0.008504  -0.021156  0  3.941214  0
C  C112  1  0.09629382  0.73832797  0.89153757  1  0.000927  0  -0.008509  -0.021146  0  3.941312  0
C  C113  1  0.26166592  0.90371179  0.60846405  1  0.000485  0  -0.008431  -0.021001  0  3.941137  0
C  C114  1  0.08112668  0.62243738  0.15980703  1  -0.046889  0  -0.013972  -0.024175  0  3.931297  0
C  C115  1  0.37756714  0.91886979  0.34019549  1  -0.046298  0  -0.014054  -0.02424  0  3.931273  0
C  C116  1  0.91887330  0.37756639  0.84019472  1  -0.046273  0  -0.013985  -0.024147  0  3.931223  0
C  C117  1  0.62242998  0.08113403  0.65980297  1  -0.046055  0  -0.014053  -0.024184  0  3.931224  0
C  C118  1  0.02295308  0.57387946  0.13982729  1  1.59267  0  0.219346  0.609906  0  4.213214  0
C  C119  1  0.42611302  0.97704389  0.36018735  1  1.592423  0  0.219527  0.610123  0  4.213056  0
C  C120  1  0.97706126  0.42610745  0.86017401  1  1.592468  0  0.219431  0.610079  0  4.213152  0
C  C121  1  0.57388406  0.02294533  0.63982295  1  1.592707  0  0.219499  0.610153  0  4.212635  0
C  C122  1  0.79427248  0.62346223  0.07272085  1  1.630558  0  0.223333  0.617678  0  4.199544  0
C  C123  1  0.37653607  0.20572959  0.42728068  1  1.630528  0  0.223324  0.61766  0  4.199714  0
C  C124  1  0.20572461  0.37653532  0.92728821  1  1.631014  0  0.223326  0.617635  0  4.199367  0
C  C125  1  0.62346535  0.79427243  0.57271881  1  1.631066  0  0.223308  0.617635  0  4.19967  0
C  C126  1  0.72344910  0.71688432  0.04635000  1  -0.050054  0  -0.010723  -0.030264  0  3.942508  0
C  C127  1  0.28311413  0.27655493  0.45364813  1  -0.050161  0  -0.010731  -0.030304  0  3.942733  0
C  C128  1  0.27653650  0.28310993  0.95366041  1  -0.050032  0  -0.010572  -0.030174  0  3.942795  0
C  C129  1  0.71688518  0.72345600  0.54634004  1  -0.05008  0  -0.010556  -0.029956  0  3.94244  0
C  C130  1  0.06056037  0.63302079  0.24316297  1  -0.053316  0  -0.089227  -0.097019  0  4.005315  0
C  C131  1  0.36698139  0.93943916  0.25683761  1  -0.053056  0  -0.089159  -0.096873  0  4.005097  0
C  C132  1  0.93944465  0.36697962  0.75683654  1  -0.053199  0  -0.089179  -0.096975  0  4.004948  0
C  C133  1  0.63301574  0.06055981  0.74316050  1  -0.05331  0  -0.089159  -0.096982  0  4.004972  0
C  C134  1  0.85650497  0.12574853  0.10702300  1  -0.043448  0  -0.078546  -0.136372  0  3.928506  0
C  C135  1  0.87425261  0.14349707  0.39297668  1  -0.043243  0  -0.078601  -0.136443  0  3.928518  0
C  C136  1  0.14350075  0.87424753  0.89297639  1  -0.043161  0  -0.078543  -0.136341  0  3.928365  0
C  C137  1  0.12574739  0.85650394  0.60702176  1  -0.043506  0  -0.078549  -0.136299  0  3.928444  0
C  C138  1  0.11224563  0.67846777  0.26340854  1  -0.055083  0  -0.090937  -0.155465  0  3.973922  0
C  C139  1  0.32153357  0.88775523  0.23659365  1  -0.055325  0  -0.090896  -0.155514  0  3.973953  0
C  C140  1  0.88775723  0.32152972  0.73659185  1  -0.055854  0  -0.09101  -0.155639  0  3.973903  0
C  C141  1  0.67846714  0.11224350  0.76340759  1  -0.055515  0  -0.090929  -0.155513  0  3.973725  0
C  C142  1  0.94404942  0.09831747  0.04870184  1  0.286739  0  0.087874  0.167546  0  4.047941  0
C  C143  1  0.90168089  0.05594982  0.45129878  1  0.287055  0  0.087887  0.167552  0  4.047893  0
C  C144  1  0.05594985  0.90167540  0.95129625  1  0.286597  0  0.087786  0.167426  0  4.047893  0
C  C145  1  0.09831694  0.94405242  0.54870461  1  0.287102  0  0.087846  0.167478  0  4.048054  0
C  C146  1  0.83664382  0.20659323  0.13712975  1  -0.050109  0  -0.078085  -0.085909  0  3.941648  0
C  C147  1  0.79341004  0.16335816  0.36287058  1  -0.049352  0  -0.07802  -0.085881  0  3.941611  0
C  C148  1  0.16335832  0.79340306  0.86287061  1  -0.050321  0  -0.078021  -0.085867  0  3.941659  0
C  C149  1  0.20659210  0.83664436  0.63713149  1  -0.049776  0  -0.078087  -0.086007  0  3.941541  0
C  C150  1  0.01028822  0.15497673  0.01890792  1  -0.004392  0  -0.088539  -0.146478  0  3.955182  0
C  C151  1  0.84501964  0.98971677  0.48109300  1  -0.004337  0  -0.08845  -0.14637  0  3.9551  0
C  C152  1  0.98971751  0.84501863  0.98109284  1  -0.004282  0  -0.088483  -0.146432  0  3.95521  0
C  C153  1  0.15497531  0.01028898  0.51891079  1  -0.004727  0  -0.088477  -0.1465  0  3.955223  0
C  C154  1  0.99013641  0.23582634  0.04833071  1  -0.052839  0  -0.079926  -0.080856  0  3.956763  0
C  C155  1  0.76416995  0.00986818  0.45166786  1  -0.052928  0  -0.079995  -0.081014  0  3.956762  0
C  C156  1  0.00986861  0.76416576  0.95166535  1  -0.052943  0  -0.079988  -0.081035  0  3.956854  0
C  C157  1  0.23582572  0.99013946  0.54833635  1  -0.052754  0  -0.080033  -0.080999  0  3.956927  0
C  C158  1  0.18457732  0.71669511  0.19886021  1  0.295604  0  0.083648  0.170243  0  4.045084  0
C  C159  1  0.28330661  0.81542033  0.30114219  1  0.295484  0  0.083586  0.170243  0  4.045096  0
C  C160  1  0.81542986  0.28330615  0.80113375  1  0.295586  0  0.083628  0.170252  0  4.044871  0
C  C161  1  0.71669264  0.18457182  0.69886547  1  0.295555  0  0.083621  0.170275  0  4.044881  0
C  C162  1  0.68854838  0.87169634  0.94717866  1  -0.03956  0  -0.077406  -0.145811  0  3.955973  0
C  C163  1  0.12830301  0.31145251  0.55282296  1  -0.039547  0  -0.077381  -0.14579  0  3.955936  0
C  C164  1  0.31143219  0.12829434  0.05283483  1  -0.039744  0  -0.077313  -0.145855  0  3.956077  0
C  C165  1  0.87169844  0.68856132  0.44716960  1  -0.039552  0  -0.077291  -0.145774  0  3.956414  0
C  C166  1  0.15460049  0.65855170  0.09631406  1  0.021808  0  -0.083292  -0.080474  0  3.97327  0
C  C167  1  0.34144412  0.84540274  0.40368899  1  0.021601  0  -0.083394  -0.080689  0  3.973468  0
C  C168  1  0.84541026  0.34143752  0.90368527  1  0.022459  0  -0.083362  -0.080552  0  3.973392  0
C  C169  1  0.65855514  0.15459982  0.59631507  1  0.021645  0  -0.083296  -0.080516  0  3.973687  0
C  C170  1  0.63271081  0.74224871  0.10148702  1  -0.014572  0  -0.07944  -0.082766  0  3.973497  0
C  C171  1  0.25774913  0.36729423  0.39851285  1  -0.014307  0  -0.079432  -0.082814  0  3.973449  0
C  C172  1  0.36727909  0.25773957  0.89852622  1  -0.013666  0  -0.07942  -0.082948  0  3.973643  0
C  C173  1  0.74225519  0.63271609  0.60147814  1  -0.013766  0  -0.079481  -0.082999  0  3.973562  0
C  C174  1  0.59826102  0.89699771  0.00277111  1  0.338787  0  0.08744  0.155946  0  4.06746  0
C  C175  1  0.10300023  0.40173787  0.49722716  1  0.33853  0  0.087415  0.155887  0  4.067427  0
C  C176  1  0.40171883  0.10299038  0.99724100  1  0.340459  0  0.087379  0.15597  0  4.067179  0
C  C177  1  0.89700411  0.59827801  0.50276105  1  0.340301  0  0.087401  0.155984  0  4.067268  0
C  C178  1  0.20445266  0.70725299  0.11536989  1  -0.066886  0  -0.08396  -0.14462  0  3.952378  0
C  C179  1  0.29274547  0.79554866  0.38463236  1  -0.067093  0  -0.0839  -0.14452  0  3.95241  0
C  C180  1  0.79555737  0.29274196  0.88463091  1  -0.067543  0  -0.083848  -0.144465  0  3.952142  0
C  C181  1  0.70725380  0.20445113  0.61536723  1  -0.067319  0  -0.083956  -0.144614  0  3.952279  0
C  C182  1  0.75036337  0.78189174  0.96878742  1  -0.090697  0  -0.084292  -0.101214  0  4.000611  0
C  C183  1  0.21810925  0.24963980  0.53121118  1  -0.09075  0  -0.084321  -0.101262  0  4.000843  0
C  C184  1  0.24962224  0.21810183  0.03122026  1  -0.091003  0  -0.084334  -0.101278  0  4.001041  0
C  C185  1  0.78189722  0.75037343  0.46878244  1  -0.091008  0  -0.084377  -0.101353  0  4.001081  0
C  C186  1  0.57021763  0.83136109  0.08029285  1  -0.044041  0  -0.080603  -0.141808  0  3.943682  0
C  C187  1  0.16863687  0.42978679  0.41970729  1  -0.044014  0  -0.080549  -0.141561  0  3.943444  0
C  C188  1  0.42977370  0.16862891  0.91971948  1  -0.04558  0  -0.080826  -0.141966  0  3.943564  0
C  C189  1  0.83136531  0.57022201  0.58028243  1  -0.045555  0  -0.08067  -0.141729  0  3.94346  0
C  C190  1  0.05501104  0.34072003  0.24503841  1  1.346458  0  0.18256  0.306538  0  4.073556  0
C  C191  1  0.65927892  0.94498817  0.25495653  1  1.346821  0  0.182446  0.306411  0  4.073396  0
C  C192  1  0.94499830  0.65927582  0.75495414  1  1.346967  0  0.18253  0.306533  0  4.073869  0
C  C193  1  0.34072108  0.05501422  0.74504034  1  1.346514  0  0.182484  0.306395  0  4.073312  0
C  C194  1  0.80507412  0.50552996  0.39783811  1  0.399295  0  -0.06682  0.141809  0  3.888708  0
C  C195  1  0.49446900  0.19492552  0.10216325  1  0.39935  0  -0.066813  0.141866  0  3.888665  0
C  C196  1  0.19492658  0.49446877  0.60216489  1  0.399241  0  -0.066788  0.141885  0  3.888617  0
C  C197  1  0.50552741  0.80507987  0.89783380  1  0.382949  0  -0.06679  0.14193  0  3.888549  0
C  C198  1  0.79658987  0.41486933  0.46768731  1  -0.06835  0  -0.24893  -0.422861  0  3.969061  0
C  C199  1  0.58512828  0.20341015  0.03231367  1  -0.067837  0  -0.248989  -0.422971  0  3.96906  0
C  C200  1  0.20341514  0.58512829  0.53231359  1  -0.067274  0  -0.248976  -0.42297  0  3.968976  0
C  C201  1  0.41486883  0.79658880  0.96768912  1  -0.067719  0  -0.248981  -0.422934  0  3.968962  0
C  C202  1  0.08744839  0.25128985  0.38223199  1  0.237364  0  -0.136634  -0.273332  0  3.880174  0
C  C203  1  0.74871386  0.91255242  0.11776569  1  0.237315  0  -0.136694  -0.273498  0  3.880348  0
C  C204  1  0.91255736  0.74871524  0.61776303  1  0.237425  0  -0.136652  -0.273345  0  3.880332  0
C  C205  1  0.25128326  0.08744585  0.88223379  1  0.237206  0  -0.136675  -0.273416  0  3.8802  0
C  C206  1  0.21916531  0.24626435  0.24876962  1  0.278209  0  -0.126285  -0.272032  0  3.893028  0
C  C207  1  0.75373436  0.78083626  0.25123093  1  0.278094  0  -0.126383  -0.272102  0  3.893034  0
C  C208  1  0.78084187  0.75373898  0.75122549  1  0.235477  0  -0.126309  -0.271809  0  3.892964  0
C  C209  1  0.24626204  0.21916428  0.74876811  1  0.27816  0  -0.126333  -0.271951  0  3.892834  0
N  N210  1  0.23944406  0.76721304  0.21121562  1  -0.507621  0  -0.152231  -0.135755  0  3.277637  0
N  N211  1  0.23279137  0.76055426  0.28878580  1  -0.465667  0  -0.152196  -0.135718  0  3.277724  0
N  N212  1  0.76055951  0.23278496  0.78878559  1  -0.484265  0  -0.15217  -0.135729  0  3.277367  0
N  N213  1  0.76721436  0.23944388  0.71121416  1  -0.488852  0  -0.152275  -0.135853  0  3.27743  0
N  N214  1  0.95898202  0.01345454  0.02411404  1  -0.491271  0  -0.145065  -0.130755  0  3.276071  0
N  N215  1  0.98654240  0.04101955  0.47588623  1  -0.463555  0  -0.145017  -0.130634  0  3.275825  0
N  N216  1  0.04102085  0.98654434  0.97588361  1  -0.46319  0  -0.1449  -0.130466  0  3.275784  0
N  N217  1  0.01345615  0.95898043  0.52411468  1  -0.491738  0  -0.144978  -0.130588  0  3.275813  0
N  N218  1  0.54143087  0.98986355  0.97535269  1  -0.505242  0  -0.14797  -0.132717  0  3.280968  0
N  N219  1  0.01013287  0.45856752  0.52464955  1  -0.505145  0  -0.147959  -0.132761  0  3.28093  0
N  N220  1  0.45854969  0.01012365  0.02466357  1  -0.480655  0  -0.147592  -0.132307  0  3.280809  0
N  N221  1  0.98986859  0.54144840  0.47533889  1  -0.480554  0  -0.147679  -0.132405  0  3.280802  0
N  N222  1  0.11898442  0.28308230  0.28978769  1  -1.229642  0  -0.278649  0.03518  0  3.714949  0
N  N223  1  0.71691743  0.88102034  0.21020941  1  -1.229612  0  -0.278625  0.035264  0  3.715243  0
N  N224  1  0.88102276  0.71692033  0.71020820  1  -1.229779  0  -0.278741  0.034966  0  3.71528  0
N  N225  1  0.28308257  0.11897928  0.78978710  1  -1.229481  0  -0.278619  0.035201  0  3.715294  0
O  O226  1  0.05657589  0.54343775  0.07247933  1  -1.233109  0  -0.345745  -0.645225  0  2.259006  0
O  O227  1  0.45656339  0.94341214  0.42752831  1  -1.233093  0  -0.34585  -0.645341  0  2.25916  0
O  O228  1  0.94341905  0.45656035  0.92752843  1  -1.232788  0  -0.345831  -0.645367  0  2.258492  0
O  O229  1  0.54343518  0.05658924  0.57246693  1  -1.233055  0  -0.345928  -0.645522  0  2.258396  0
O  O230  1  0.94178709  0.40248138  0.10909220  1  -1.269274  0  -0.371985  -0.721388  0  2.355355  0
O  O231  1  0.59751714  0.05821360  0.39090762  1  -1.26929  0  -0.371979  -0.721354  0  2.355312  0
O  O232  1  0.05821003  0.59751065  0.89090792  1  -1.269428  0  -0.372029  -0.721455  0  2.355336  0
O  O233  1  0.40248213  0.94179382  0.60909445  1  -1.269359  0  -0.371968  -0.721333  0  2.355417  0
O  O234  1  0.81860314  0.35795714  0.20961088  1  -1.201595  0  -0.336947  -0.593041  0  2.13879  0
O  O235  1  0.64204614  0.18139787  0.29039045  1  -1.20158  0  -0.336909  -0.593054  0  2.138935  0
O  O236  1  0.18139755  0.64203534  0.79039451  1  -1.202644  0  -0.336924  -0.593066  0  2.138988  0
O  O237  1  0.35795385  0.81860660  0.70960933  1  -1.201447  0  -0.336897  -0.592993  0  2.138966  0
O  O238  1  0.77024677  0.57318533  0.14826173  1  -1.239459  0  -0.363133  -0.653351  0  2.231024  0
O  O239  1  0.42681287  0.22975843  0.35173481  1  -1.239476  0  -0.363226  -0.653462  0  2.230889  0
O  O240  1  0.22975033  0.42680183  0.85174331  1  -1.239696  0  -0.363108  -0.653285  0  2.230791  0
O  O241  1  0.57318931  0.77025246  0.64825195  1  -1.239791  0  -0.363  -0.653202  0  2.231372  0
O  O242  1  0.87321249  0.60441333  0.01833645  1  -1.240154  0  -0.343292  -0.642548  0  2.295879  0
O  O243  1  0.39558818  0.12679083  0.48165904  1  -1.240092  0  -0.343235  -0.642438  0  2.296044  0
O  O244  1  0.12678101  0.39558515  0.98167163  1  -1.240401  0  -0.343349  -0.642562  0  2.295898  0
O  O245  1  0.60440395  0.87321778  0.51833129  1  -1.240302  0  -0.343433  -0.642714  0  2.295693  0
O  O246  1  0.94314628  0.56614431  0.19350065  1  -1.244092  0  -0.37072  -0.663976  0  2.263714  0
O  O247  1  0.43386237  0.05684640  0.30650861  1  -1.243983  0  -0.370769  -0.664028  0  2.263478  0
O  O248  1  0.05684724  0.43386111  0.80650307  1  -1.244325  0  -0.370736  -0.664012  0  2.264217  0
O  O249  1  0.56614121  0.94315369  0.69349023  1  -1.244207  0  -0.370695  -0.66391  0  2.264  0
O  O250  1  0.77600219  0.50754367  0.32424001  1  -1.146469  0  -0.413734  -0.53062  0  2.328876  0
O  O251  1  0.49245413  0.22399719  0.17576062  1  -1.146548  0  -0.413692  -0.530612  0  2.328864  0
O  O252  1  0.22400138  0.49245363  0.67576082  1  -1.146386  0  -0.413831  -0.53065  0  2.32896  0
O  O253  1  0.50754228  0.77600613  0.82423644  1  -1.146358  0  -0.413792  -0.530796  0  2.328769  0
O  O254  1  0.96736091  0.36949827  0.27897513  1  -1.21681  0  -0.326337  -0.527266  0  2.323746  0
O  O255  1  0.63050720  0.03264958  0.22101161  1  -1.216945  0  -0.326306  -0.527296  0  2.323369  0
O  O256  1  0.03264628  0.63049744  0.72101633  1  -1.217163  0  -0.32621  -0.5271  0  2.324082  0
O  O257  1  0.36949781  0.96734943  0.77899006  1  -1.21692  0  -0.326361  -0.527329  0  2.323195  0
