# generated using pymatgen
data_ZnH16(CN)14
_symmetry_space_group_name_H-M   'P 1'
_cell_length_a   6.98529796
_cell_length_b   9.22679500
_cell_length_c   9.19295858
_cell_angle_alpha   120.12142825
_cell_angle_beta   108.13903469
_cell_angle_gamma   90.00044335
_symmetry_Int_Tables_number   1
_chemical_formula_structural   ZnH16(CN)14
_chemical_formula_sum   'Zn1 H16 C14 N14'
_cell_volume   478.14626370
_cell_formula_units_Z   1
loop_
 _symmetry_equiv_pos_site_id
 _symmetry_equiv_pos_as_xyz
  1  'x, y, z'
loop_
 _atom_site_type_symbol
 _atom_site_label
 _atom_site_symmetry_multiplicity
 _atom_site_fract_x
 _atom_site_fract_y
 _atom_site_fract_z
 _atom_site_occupancy
 _atom_site_pbe_bader_spin_density
 _atom_site_pbe_cm5_charge
 _atom_site_pbe_ddec_charge
 _atom_site_pbe_ddec_spin_density
 _atom_site_pbe_ddec_sum_bond_order
 _atom_site_pbe_magmom
Zn  Zn0  1  0.00000100  0.49999938  0.00000054  1  0  0.691968  0.675042  0  2.514677  0
H  H1  1  0.37799345  0.55131030  0.86534685  1  0  0.111849  0.102974  0  1.068914  0
H  H2  1  0.62201891  0.68596749  0.13468059  1  0  0.111884  0.102996  0  1.068922  0
H  H3  1  0.62200311  0.44868520  0.13465103  1  0  0.111844  0.102964  0  1.068908  0
H  H4  1  0.37798351  0.31403434  0.86531742  1  0  0.111879  0.103  0  1.068936  0
H  H5  1  0.34014373  0.69495764  0.65685059  1  0  0.11439  0.118608  0  1.071868  0
H  H6  1  0.65986557  0.03810402  0.34316677  1  0  0.114418  0.118658  0  1.072014  0
H  H7  1  0.65985309  0.30503911  0.34314688  1  0  0.114421  0.118645  0  1.071869  0
H  H8  1  0.34013509  0.96189657  0.65683240  1  0  0.114414  0.118658  0  1.072011  0
H  H9  1  0.78649533  0.67093538  0.74983728  1  0  0.139561  0.113346  0  0.987343  0
H  H10  1  0.21349908  0.92110530  0.25015119  1  0  0.139548  0.11337  0  0.987424  0
H  H11  1  0.21350624  0.32906913  0.25016946  1  0  0.139563  0.113344  0  0.987352  0
H  H12  1  0.78650523  0.07889796  0.74985557  1  0  0.139555  0.1134  0  0.987362  0
H  H13  1  0.99253304  0.72643930  0.45287723  1  0  0.128635  0.10175  0  0.996109  0
H  H14  1  0.00746616  0.27356134  0.54712487  1  0  0.128637  0.101752  0  0.996155  0
H  H15  1  0.78915978  0.77035224  0.54070461  1  0  0.126507  0.094173  0  1.055366  0
H  H16  1  0.21084178  0.22965226  0.45930103  1  0  0.126521  0.094175  0  1.055366  0
C  C17  1  0.24895757  0.59791586  0.81219682  1  0  -0.007021  -0.033164  0  3.995081  0
C  C18  1  0.75104689  0.78571153  0.18781407  1  0  -0.007033  -0.033077  0  3.994843  0
C  C19  1  0.75104076  0.40208091  0.18780101  1  0  -0.006978  -0.033082  0  3.99506  0
C  C20  1  0.24895376  0.21428903  0.81218399  1  0  -0.007051  -0.033085  0  3.994928  0
C  C21  1  0.23513011  0.67009795  0.71117983  1  0  -0.006515  -0.106968  0  3.907499  0
C  C22  1  0.76487521  0.95892613  0.28883799  1  0  -0.006488  -0.107136  0  3.907447  0
C  C23  1  0.76486644  0.32989755  0.28881805  1  0  -0.006576  -0.107113  0  3.907565  0
C  C24  1  0.23512603  0.04107703  0.71116365  1  0  -0.006513  -0.107111  0  3.9075  0
C  C25  1  0.94301272  0.65764024  0.75703522  1  0  0.140212  0.087778  0  3.909782  0
C  C26  1  0.05698820  0.90060861  0.24296262  1  0  0.140179  0.087619  0  3.909911  0
C  C27  1  0.05698704  0.34236296  0.24296937  1  0  0.140211  0.087729  0  3.909778  0
C  C28  1  0.94301607  0.09939459  0.75704084  1  0  0.140204  0.087691  0  3.909868  0
C  C29  1  0.95641459  0.78798929  0.57598167  1  0  0.05406  0.001366  0  3.856903  0
C  C30  1  0.04358667  0.21201390  0.42402218  1  0  0.054115  0.00134  0  3.857024  0
N  N31  1  0.06595829  0.58986730  0.83904910  1  0  -0.345063  -0.281362  0  3.544265  0
N  N32  1  0.93404621  0.75082112  0.16095628  1  0  -0.345068  -0.281329  0  3.544225  0
N  N33  1  0.93404089  0.41013332  0.16095190  1  0  -0.345058  -0.281368  0  3.544241  0
N  N34  1  0.06595624  0.24918075  0.83904393  1  0  -0.345045  -0.281379  0  3.54429  0
N  N35  1  0.04027247  0.70797834  0.67764758  1  0  -0.246419  0.015758  0  3.78074  0
N  N36  1  0.95973121  0.03033292  0.32235463  1  0  -0.246463  0.015925  0  3.780702  0
N  N37  1  0.95972672  0.29202229  0.32235453  1  0  -0.246448  0.015886  0  3.78077  0
N  N38  1  0.04027127  0.96966899  0.67764778  1  0  -0.246437  0.015846  0  3.780655  0
N  N39  1  0.32627828  0.58542858  0.17086334  1  0  -0.273288  -0.486526  0  2.917691  0
N  N40  1  0.67372456  0.41456820  0.82913445  1  0  -0.273251  -0.486507  0  2.917837  0
N  N41  1  0.39524193  0.66569008  0.33138097  1  0  0.070064  0.410807  0  4.545748  0
N  N42  1  0.60475635  0.33430663  0.66861356  1  0  0.070086  0.410769  0  4.546007  0
N  N43  1  0.46926765  0.74527864  0.49055300  1  0  -0.253985  -0.493107  0  2.717578  0
N  N44  1  0.53073123  0.25472067  0.50944511  1  0  -0.254027  -0.493058  0  2.717638  0
