# generated using pymatgen
data_Zn3H42C68(N3O7)2
_symmetry_space_group_name_H-M   'P 1'
_cell_length_a   9.77023288
_cell_length_b   11.59017515
_cell_length_c   16.34977257
_cell_angle_alpha   74.54033836
_cell_angle_beta   72.30400772
_cell_angle_gamma   65.02155709
_symmetry_Int_Tables_number   1
_chemical_formula_structural   Zn3H42C68(N3O7)2
_chemical_formula_sum   'Zn3 H42 C68 N6 O14'
_cell_volume   1578.23976048
_cell_formula_units_Z   1
loop_
 _symmetry_equiv_pos_site_id
 _symmetry_equiv_pos_as_xyz
  1  'x, y, z'
loop_
 _atom_site_type_symbol
 _atom_site_label
 _atom_site_symmetry_multiplicity
 _atom_site_fract_x
 _atom_site_fract_y
 _atom_site_fract_z
 _atom_site_occupancy
 _atom_site_hle17_bader_spin_density
 _atom_site_hle17_ddec_charge
 _atom_site_hle17_ddec_spin_density
 _atom_site_hle17_ddec_sum_bond_order
 _atom_site_hle17_magmom
 _atom_site_hse06_10hf_bader_spin_density
 _atom_site_hse06_10hf_ddec_charge
 _atom_site_hse06_10hf_ddec_spin_density
 _atom_site_hse06_10hf_ddec_sum_bond_order
 _atom_site_hse06_10hf_magmom
 _atom_site_hse06_bader_spin_density
 _atom_site_hse06_ddec_charge
 _atom_site_hse06_ddec_spin_density
 _atom_site_hse06_ddec_sum_bond_order
 _atom_site_hse06_magmom
 _atom_site_pbe_bader_charge
 _atom_site_pbe_bader_spin_density
 _atom_site_pbe_cm5_charge
 _atom_site_pbe_ddec_charge
 _atom_site_pbe_ddec_spin_density
 _atom_site_pbe_ddec_sum_bond_order
 _atom_site_pbe_magmom
Zn  Zn0  1  0.69630857  0.40662542  0.35872938  1  0  0.980374  0  1.832081  0  0  0.792629  0  2.289097  0  0  0.843684  0  2.234566  0  1.267114  0  0.678928  0.757635  0  2.325474  0
Zn  Zn1  1  0.46099835  0.59351252  0.64232349  1  0  0.978885  0  1.836965  0  0  0.791478  0  2.293942  0  0  0.842471  0  2.239482  0  1.267593  0  0.678071  0.756501  0  2.330288  0
Zn  Zn2  1  0.91277148  0.99931447  0.00098056  1  0  0.985434  0  1.863169  0  0  0.79144  0  2.339885  0  0  0.842352  0  2.282191  0  1.25568  0  0.684253  0.755813  0  2.379511  0
H  H3  1  0.33881009  0.69582578  0.15978637  1  0  0.099716  0  0.961298  0  0  0.105863  0  1.031336  0  0  0.110556  0  1.026488  0  0.100729  0  0.099204  0.102501  0  1.034809  0
H  H4  1  0.19431547  0.30337780  0.84058994  1  0  0.100284  0  0.960804  0  0  0.105917  0  1.031317  0  0  0.110616  0  1.02647  0  0.105078  0  0.099543  0.102552  0  1.034807  0
H  H5  1  0.93810168  0.00679125  0.26390212  1  0  0.117608  0  0.963911  0  0  0.122922  0  1.033778  0  0  0.126766  0  1.030607  0  0.096823  0  0.104979  0.120123  0  1.036053  0
H  H6  1  0.20793868  0.99340647  0.73678716  1  0  0.115928  0  0.964534  0  0  0.121972  0  1.033656  0  0  0.125815  0  1.030533  0  0.142015  0  0.104569  0.119159  0  1.035928  0
H  H7  1  0.26859163  0.75437245  0.42091837  1  0  0.126275  0  0.958467  0  0  0.128601  0  1.032542  0  0  0.133669  0  1.027355  0  0.168862  0  0.109957  0.124931  0  1.036359  0
H  H8  1  0.44353245  0.24641250  0.57850845  1  0  0.126046  0  0.95866  0  0  0.127932  0  1.033156  0  0  0.132964  0  1.028068  0  0.138214  0  0.109492  0.124261  0  1.036949  0
H  H9  1  0.96017552  0.06613054  0.40436510  1  0  0.076226  0  0.910934  0  0  0.091221  0  0.969053  0  0  0.091513  0  0.96879  0  0.088947  0  0.107072  0.090938  0  0.969396  0
H  H10  1  0.42993629  0.93434681  0.59590115  1  0  0.076862  0  0.910729  0  0  0.09148  0  0.969102  0  0  0.091789  0  0.968809  0  0.095634  0  0.107343  0.091197  0  0.969467  0
H  H11  1  0.87853458  0.94540875  0.44335964  1  0  0.060533  0  0.930659  0  0  0.073315  0  0.998155  0  0  0.07317  0  0.998377  0  0.077232  0  0.10328  0.073381  0  0.9981  0
H  H12  1  0.26654577  0.05520361  0.55745697  1  0  0.06123  0  0.93343  0  0  0.074255  0  1.000537  0  0  0.073978  0  1.000988  0  0.068232  0  0.10331  0.074405  0  1.000362  0
H  H13  1  0.04087610  0.87780868  0.78060445  1  0  0.10564  0  0.955166  0  0  0.113663  0  1.019498  0  0  0.117095  0  1.016388  0  0.125862  0  0.103065  0.111208  0  1.02163  0
H  H14  1  0.70000590  0.12286153  0.21869433  1  0  0.104398  0  0.955785  0  0  0.11311  0  1.019401  0  0  0.116526  0  1.016338  0  0.116967  0  0.103041  0.110673  0  1.021502  0
H  H15  1  0.76102362  0.02155689  0.80996644  1  0  0.083624  0  0.968925  0  0  0.093128  0  1.030845  0  0  0.095887  0  1.030751  0  0.015691  0  0.08986  0.09123  0  1.031016  0
H  H16  1  0.59233027  0.97962438  0.19020376  1  0  0.08262  0  0.969824  0  0  0.091629  0  1.03257  0  0  0.094356  0  1.03248  0  0.057647  0  0.089793  0.089764  0  1.032715  0
H  H17  1  0.62024620  0.10583278  0.68923263  1  0  0.082345  0  0.98294  0  0  0.094327  0  1.041666  0  0  0.096071  0  1.041567  0  0.076606  0  0.09506  0.092979  0  1.041838  0
H  H18  1  0.41485156  0.89485671  0.31184897  1  0  0.083044  0  0.983297  0  0  0.095204  0  1.0416  0  0  0.096937  0  1.041534  0  0.083987  0  0.095429  0.093842  0  1.041779  0
H  H19  1  0.75631283  0.06013288  0.54172822  1  0  0.113103  0  0.968834  0  0  0.118441  0  1.039022  0  0  0.12228  0  1.036969  0  0.097829  0  0.103155  0.115656  0  1.040717  0
H  H20  1  0.35789038  0.93998288  0.45923453  1  0  0.113859  0  0.969861  0  0  0.118947  0  1.040411  0  0  0.122804  0  1.038317  0  0.105173  0  0.102782  0.116208  0  1.042048  0
H  H21  1  0.81260394  0.52982829  0.16447844  1  0  0.091418  0  0.931431  0  0  0.099618  0  0.992018  0  0  0.102265  0  0.989806  0  0.112265  0  0.120281  0.097479  0  0.993888  0
H  H22  1  0.50595020  0.46988345  0.83637311  1  0  0.090625  0  0.931448  0  0  0.099402  0  0.991544  0  0  0.102084  0  0.989291  0  0.131395  0  0.119903  0.097234  0  0.993447  0
H  H23  1  0.04650592  0.59092060  0.08622474  1  0  0.099463  0  0.967535  0  0  0.108575  0  1.029435  0  0  0.111161  0  1.029432  0  0.0961  0  0.105246  0.10675  0  1.029414  0
H  H24  1  0.72239983  0.40962811  0.91366785  1  0  0.100705  0  0.966945  0  0  0.109245  0  1.029259  0  0  0.111861  0  1.029227  0  0.095279  0  0.105251  0.107433  0  1.029223  0
H  H25  1  0.24865805  0.54244364  0.16688804  1  0  0.106445  0  0.940528  0  0  0.118336  0  1.00027  0  0  0.121335  0  0.997141  0  0.113882  0  0.114079  0.11597  0  1.002954  0
H  H26  1  0.95751301  0.45832588  0.83196872  1  0  0.106459  0  0.940136  0  0  0.118129  0  1.00022  0  0  0.12103  0  0.997236  0  0.084441  0  0.113983  0.115815  0  1.002827  0
H  H27  1  0.34819434  0.44107922  0.30633810  1  0  0.11337  0  0.961883  0  0  0.123848  0  1.020955  0  0  0.125927  0  1.021513  0  0.140978  0  0.108612  0.122042  0  1.020986  0
H  H28  1  0.09622068  0.55923807  0.69172675  1  0  0.113461  0  0.961771  0  0  0.124275  0  1.020482  0  0  0.126328  0  1.021081  0  0.120679  0  0.108943  0.12253  0  1.020423  0
H  H29  1  0.29776065  0.35282577  0.46193655  1  0  0.125773  0  0.948188  0  0  0.133459  0  1.010065  0  0  0.137201  0  1.007816  0  0.154189  0  0.113251  0.131032  0  1.011163  0
H  H30  1  0.11388101  0.64720900  0.53622811  1  0  0.126287  0  0.947537  0  0  0.133776  0  1.0095  0  0  0.13749  0  1.007313  0  0.127358  0  0.11348  0.131323  0  1.01065  0
H  H31  1  0.10974735  0.29063324  0.59710589  1  0  0.098066  0  0.971952  0  0  0.109968  0  1.032133  0  0  0.111348  0  1.033006  0  0.115594  0  0.107822  0.108819  0  1.03173  0
H  H32  1  0.99875657  0.70943527  0.40172207  1  0  0.096604  0  0.976472  0  0  0.108308  0  1.036833  0  0  0.109681  0  1.037728  0  0.133181  0  0.106795  0.107121  0  1.036472  0
H  H33  1  0.86182523  0.25149316  0.65890752  1  0  0.109907  0  0.936163  0  0  0.122895  0  0.988875  0  0  0.125421  0  0.989755  0  0.092946  0  0.111284  0.121063  0  0.988386  0
H  H34  1  0.77347305  0.74800837  0.34111274  1  0  0.110731  0  0.934213  0  0  0.123375  0  0.987374  0  0  0.125905  0  0.988208  0  0.113049  0  0.111496  0.121576  0  0.986836  0
H  H35  1  0.68280906  0.30466605  0.56043992  1  0  0.101615  0  0.957157  0  0  0.107603  0  1.021998  0  0  0.110586  0  1.018877  0  0.160828  0  0.12319  0.105151  0  1.024564  0
H  H36  1  0.54831117  0.69465228  0.44064553  1  0  0.101093  0  0.955466  0  0  0.107992  0  1.01944  0  0  0.11101  0  1.016256  0  0.171858  0  0.123293  0.105509  0  1.02208  0
H  H37  1  0.69128809  0.27788193  0.04697124  1  0  0.09564  0  0.903079  0  0  0.109109  0  0.954092  0  0  0.111761  0  0.951516  0  0.115304  0  0.133224  0.106998  0  0.956236  0
H  H38  1  0.01736090  0.72133322  0.95375645  1  0  0.095849  0  0.903312  0  0  0.109485  0  0.954061  0  0  0.11206  0  0.951547  0  0.087162  0  0.133526  0.107373  0  0.956219  0
H  H39  1  0.40417047  0.40361116  0.06935256  1  0  0.107922  0  0.949206  0  0  0.120689  0  1.002283  0  0  0.12357  0  1.001921  0  0.08385  0  0.113543  0.118549  0  1.002854  0
H  H40  1  0.87916065  0.59627126  0.93034976  1  0  0.10739  0  0.94891  0  0  0.120415  0  1.001615  0  0  0.123312  0  1.001233  0  0.084897  0  0.114268  0.11828  0  1.002156  0
H  H41  1  0.23331131  0.30424177  0.05167267  1  0  0.1074  0  0.921386  0  0  0.121191  0  0.973357  0  0  0.123862  0  0.971802  0  0.094744  0  0.118728  0.119151  0  0.974706  0
H  H42  1  0.59079216  0.69585277  0.94784882  1  0  0.106031  0  0.92116  0  0  0.120026  0  0.973046  0  0  0.122774  0  0.97139  0  0.091547  0  0.118059  0.117873  0  0.974535  0
H  H43  1  0.21205056  0.11041396  0.01746939  1  0  0.122868  0  0.938693  0  0  0.133499  0  0.995324  0  0  0.136473  0  0.994596  0  0.100183  0  0.114156  0.130997  0  0.99639  0
H  H44  1  0.34059352  0.88960634  0.98216189  1  0  0.122577  0  0.939385  0  0  0.133152  0  0.996021  0  0  0.1362  0  0.995191  0  0.12155  0  0.113694  0.130619  0  0.997137  0
C  C45  1  0.46942754  0.60282626  0.29766769  1  0  0.619346  0  3.945827  0  0  0.573589  0  4.234463  0  0  0.607299  0  4.228943  0  1.55882  0  0.190912  0.551069  0  4.236423  0
C  C46  1  0.36966626  0.39713715  0.70218963  1  0  0.616942  0  3.94815  0  0  0.57133  0  4.236743  0  0  0.605023  0  4.231212  0  1.547409  0  0.189823  0.548809  0  4.238729  0
C  C47  1  0.32107183  0.71584082  0.29009392  1  0  -0.069724  0  3.7865  0  0  -0.042499  0  4.02262  0  0  -0.052148  0  4.046944  0  0.00166  0  -0.023637  -0.036229  0  4.005854  0
C  C48  1  0.32682094  0.28414959  0.70978906  1  0  -0.068722  0  3.787656  0  0  -0.041702  0  4.024106  0  0  -0.051278  0  4.048301  0  -0.023615  0  -0.023567  -0.035451  0  4.007366  0
C  C49  1  0.26976568  0.75010273  0.21301492  1  0  -0.085965  0  3.742915  0  0  -0.125596  0  3.994739  0  0  -0.123962  0  4.015604  0  -0.088993  0  -0.084435  -0.126077  0  3.980123  0
C  C50  1  0.23269474  0.24942098  0.78729184  1  0  -0.085111  0  3.742091  0  0  -0.124363  0  3.994098  0  0  -0.122742  0  4.014901  0  -0.02177  0  -0.083561  -0.124855  0  3.979494  0
C  C51  1  0.13044624  0.85290197  0.20400994  1  0  -0.063533  0  3.787885  0  0  -0.035954  0  4.018713  0  0  -0.045813  0  4.043905  0  -0.047339  0  -0.022381  -0.029569  0  4.001405  0
C  C52  1  0.18691962  0.14673649  0.79656890  1  0  -0.064021  0  3.786849  0  0  -0.036385  0  4.018052  0  0  -0.046224  0  4.043259  0  -0.062195  0  -0.023549  -0.029966  0  4.000657  0
C  C53  1  0.07232776  0.88112668  0.12320298  1  0  0.626569  0  3.935713  0  0  0.582422  0  4.219729  0  0  0.616563  0  4.213956  0  1.54568  0  0.19429  0.559243  0  4.222306  0
C  C54  1  0.07610123  0.11823600  0.87783189  1  0  0.624995  0  3.936734  0  0  0.580559  0  4.221375  0  0  0.614669  0  4.215611  0  1.542208  0  0.192237  0.557378  0  4.223943  0
C  C55  1  0.04465075  0.92449984  0.27192569  1  0  -0.102139  0  3.660964  0  0  -0.134215  0  3.902397  0  0  -0.132222  0  3.92015  0  0.073345  0  -0.078652  -0.134822  0  3.889992  0
C  C56  1  0.24048565  0.07561303  0.72853838  1  0  -0.1017  0  3.662786  0  0  -0.134306  0  3.903738  0  0  -0.132329  0  3.921459  0  -0.009472  0  -0.077992  -0.134914  0  3.891325  0
C  C57  1  0.09347344  0.88937010  0.35028525  1  0  0.053802  0  3.741024  0  0  0.075085  0  3.987135  0  0  0.072713  0  4.00884  0  -0.098199  0  -0.012946  0.07652  0  3.972115  0
C  C58  1  0.33264182  0.11108508  0.64976736  1  0  0.0533  0  3.742316  0  0  0.074843  0  3.987847  0  0  0.072529  0  4.009502  0  -0.052453  0  -0.0135  0.076245  0  3.97289  0
C  C59  1  0.23121549  0.78425761  0.35959149  1  0  -0.112494  0  3.67272  0  0  -0.150408  0  3.930123  0  0  -0.147689  0  3.944681  0  -0.103772  0  -0.082524  -0.151915  0  3.920345  0
C  C60  1  0.37468362  0.21623517  0.64015126  1  0  -0.11179  0  3.672318  0  0  -0.149379  0  3.929791  0  0  -0.146708  0  3.944371  0  -0.091218  0  -0.081673  -0.150858  0  3.919998  0
C  C61  1  0.98848455  0.96139995  0.42438744  1  0  0.061017  0  3.630482  0  0  -0.003308  0  3.891563  0  0  0.005339  0  3.896777  0  0.393874  0  -0.05559  -0.009113  0  3.887687  0
C  C62  1  0.37378341  0.03909476  0.57583970  1  0  0.05867  0  3.63422  0  0  -0.00559  0  3.894862  0  0  0.003062  0  3.900011  0  0.391135  0  -0.056104  -0.011469  0  3.891047  0
C  C63  1  0.97766054  0.94013234  0.57675502  1  0  0.270773  0  3.780017  0  0  0.250225  0  4.042705  0  0  0.26482  0  4.057929  0  0.432163  0  0.090758  0.240352  0  4.032462  0
C  C64  1  0.49462915  0.06023605  0.42318558  1  0  0.271682  0  3.782417  0  0  0.250796  0  4.045118  0  0  0.265337  0  4.060338  0  0.444875  0  0.090881  0.240903  0  4.034886  0
C  C65  1  0.05669149  0.88565868  0.64599195  1  0  -0.176314  0  3.736518  0  0  -0.157525  0  3.976149  0  0  -0.170128  0  3.998634  0  0.003679  0  -0.032282  -0.149326  0  3.961117  0
C  C66  1  0.58874743  0.11481578  0.35354374  1  0  -0.176794  0  3.737288  0  0  -0.158149  0  3.977287  0  0  -0.170707  0  3.999775  0  0.004742  0  -0.032565  -0.149978  0  3.962274  0
C  C67  1  0.21704459  0.78662100  0.63742845  1  0  0.631995  0  3.912456  0  0  0.58266  0  4.205063  0  0  0.617753  0  4.198287  0  1.51182  0  0.18958  0.558791  0  4.208834  0
C  C68  1  0.64233055  0.21338966  0.36169965  1  0  0.630169  0  3.91446  0  0  0.580652  0  4.207297  0  0  0.615742  0  4.20056  0  1.522462  0  0.189521  0.556782  0  4.211049  0
C  C69  1  0.97695796  0.91799305  0.72890050  1  0  -0.052509  0  3.762612  0  0  -0.077959  0  4.01404  0  0  -0.074833  0  4.03395  0  3.2e-05  0  -0.087378  -0.079638  0  4.000232  0
C  C70  1  0.62414855  0.08274177  0.27072617  1  0  -0.052753  0  3.762149  0  0  -0.078572  0  4.013352  0  0  -0.075493  0  4.03331  0  -0.004924  0  -0.087857  -0.080255  0  3.999564  0
C  C71  1  0.82099622  0.99734449  0.74516284  1  0  -0.118821  0  3.820684  0  0  -0.133756  0  4.077928  0  0  -0.139267  0  4.099271  0  -0.022191  0  -0.114409  -0.13006  0  4.063222  0
C  C72  1  0.56345005  0.00351760  0.25499936  1  0  -0.115756  0  3.819213  0  0  -0.130372  0  4.076534  0  0  -0.135825  0  4.097883  0  -0.072934  0  -0.114223  -0.126724  0  4.061842  0
C  C73  1  0.74274483  0.04506350  0.67751646  1  0  -0.02776  0  3.79076  0  0  -0.040765  0  4.035488  0  0  -0.037239  0  4.054132  0  -0.079704  0  -0.090627  -0.042738  0  4.02261  0
C  C74  1  0.46513383  0.95551028  0.32315127  1  0  -0.028861  0  3.792383  0  0  -0.041898  0  4.036933  0  0  -0.038401  0  4.055599  0  -0.103351  0  -0.091341  -0.043846  0  4.02405  0
C  C75  1  0.81991426  0.01824853  0.59353072  1  0  -0.222688  0  3.768503  0  0  -0.242366  0  4.026715  0  0  -0.250231  0  4.046202  0  -0.057596  0  -0.116092  -0.237296  0  4.013815  0
C  C76  1  0.43157401  0.98207455  0.40706627  1  0  -0.223472  0  3.770396  0  0  -0.243053  0  4.028594  0  0  -0.250885  0  4.048063  0  -0.044024  0  -0.115333  -0.238019  0  4.015659  0
C  C77  1  0.90502970  0.51060490  0.19641346  1  0  0.144353  0  3.690882  0  0  0.112897  0  3.939132  0  0  0.121191  0  3.955954  0  0.469594  0  0.061361  0.107383  0  3.927679  0
C  C78  1  0.61134384  0.48931029  0.80393830  1  0  0.144774  0  3.690915  0  0  0.112656  0  3.939359  0  0  0.120908  0  3.956229  0  0.516355  0  0.06087  0.107189  0  3.927908  0
C  C79  1  0.03584153  0.54254585  0.15342329  1  0  -0.126295  0  3.753628  0  0  -0.139209  0  4.008911  0  0  -0.146916  0  4.031576  0  0.051641  0  -0.085816  -0.133996  0  3.99358  0
C  C80  1  0.73094890  0.45781676  0.84642785  1  0  -0.129537  0  3.755456  0  0  -0.141739  0  4.010883  0  0  -0.149456  0  4.033479  0  -0.066144  0  -0.086925  -0.136541  0  3.995569  0
C  C81  1  0.14838154  0.51549368  0.19809485  1  0  -0.037362  0  3.677568  0  0  -0.06392  0  3.927218  0  0  -0.061004  0  3.945455  0  -0.081333  0  -0.057587  -0.065912  0  3.915106  0
C  C82  1  0.86155164  0.48495861  0.80117301  1  0  -0.034324  0  3.674678  0  0  -0.060947  0  3.923773  0  0  -0.057953  0  3.942026  0  -0.014813  0  -0.055453  -0.062968  0  3.911643  0
C  C83  1  0.13073997  0.45648030  0.28616143  1  0  0.03032  0  3.792411  0  0  0.047626  0  4.021531  0  0  0.045204  0  4.046186  0  0.036023  0  0.002985  0.049138  0  4.004979  0
C  C84  1  0.87350880  0.54361136  0.71303359  1  0  0.028452  0  3.790111  0  0  0.046662  0  4.01874  0  0  0.044213  0  4.043417  0  -0.008512  0  0.001361  0.048163  0  4.002227  0
C  C85  1  0.99338828  0.43067008  0.32467059  1  0  0.125474  0  3.762742  0  0  0.119204  0  3.994917  0  0  0.123452  0  4.016956  0  0.493404  0  0.116276  0.116286  0  3.980389  0
C  C86  1  0.74884333  0.56917087  0.67509711  1  0  0.128983  0  3.760402  0  0  0.121766  0  3.993586  0  0  0.126035  0  4.015532  0  0.449055  0  0.117704  0.11882  0  3.979144  0
C  C87  1  0.24053010  0.42516708  0.33770413  1  0  -0.092009  0  3.701161  0  0  -0.113505  0  3.952747  0  0  -0.11812  0  3.977673  0  -0.046269  0  -0.077875  -0.110467  0  3.936182  0
C  C88  1  0.00403070  0.57491108  0.66084267  1  0  -0.092961  0  3.702128  0  0  -0.115105  0  3.953462  0  0  -0.119736  0  3.978411  0  -0.077001  0  -0.077838  -0.112088  0  3.936863  0
C  C89  1  0.21172230  0.37628224  0.42436435  1  0  -0.08236  0  3.689371  0  0  -0.108589  0  3.947158  0  0  -0.110948  0  3.968717  0  -0.098325  0  -0.077752  -0.107169  0  3.932398  0
C  C90  1  0.01334060  0.62374771  0.57421014  1  0  -0.081235  0  3.686384  0  0  -0.106475  0  3.944033  0  0  -0.108817  0  3.965569  0  0.058374  0  -0.077005  -0.105063  0  3.929299  0
C  C91  1  0.07164940  0.35329054  0.46581658  1  0  0.02585  0  3.793586  0  0  0.044053  0  4.023544  0  0  0.041488  0  4.04716  0  0.007741  0  0.001272  0.045677  0  4.007835  0
C  C92  1  0.89165392  0.64658609  0.53336821  1  0  0.026088  0  3.788594  0  0  0.043038  0  4.020251  0  0  0.040466  0  4.043775  0  0.02283  0  0.00086  0.044683  0  4.00457  0
C  C93  1  0.96372678  0.37845470  0.41569498  1  0  0.125235  0  3.772594  0  0  0.118956  0  4.004294  0  0  0.122951  0  4.026875  0  0.442396  0  0.115151  0.116038  0  3.98958  0
C  C94  1  0.75834737  0.62133707  0.58410505  1  0  0.123847  0  3.770681  0  0  0.117831  0  4.003825  0  0  0.121936  0  4.026256  0  0.47748  0  0.115211  0.114843  0  3.989209  0
C  C95  1  0.03188342  0.30799562  0.55575913  1  0  -0.046041  0  3.682217  0  0  -0.073951  0  3.934114  0  0  -0.070287  0  3.951787  0  -0.052229  0  -0.063471  -0.076358  0  3.922299  0
C  C96  1  0.89668291  0.69185304  0.44352305  1  0  -0.043503  0  3.682609  0  0  -0.070755  0  3.93376  0  0  -0.067129  0  3.951495  0  -0.098692  0  -0.061103  -0.073116  0  3.921946  0
C  C97  1  0.89451600  0.28787065  0.59014172  1  0  -0.107891  0  3.715292  0  0  -0.124253  0  3.976677  0  0  -0.131716  0  3.997754  0  0.00449  0  -0.078539  -0.119263  0  3.962456  0
C  C98  1  0.77348941  0.71168681  0.40980234  1  0  -0.109441  0  3.716971  0  0  -0.125648  0  3.978484  0  0  -0.133091  0  3.999541  0  -0.048542  0  -0.079029  -0.120662  0  3.964275  0
C  C99  1  0.79456735  0.31483701  0.53529224  1  0  0.159705  0  3.656156  0  0  0.122903  0  3.9189  0  0  0.132621  0  3.933598  0  0.507178  0  0.063356  0.116518  0  3.908787  0
C  C100  1  0.64526392  0.68458352  0.46523666  1  0  0.160008  0  3.656865  0  0  0.12286  0  3.919129  0  0  0.132576  0  3.933872  0  0.520831  0  0.062968  0.116476  0  3.908981  0
C  C101  1  0.61289256  0.23855672  0.03947232  1  0  0.157614  0  3.676694  0  0  0.121671  0  3.935754  0  0  0.130401  0  3.951801  0  0.499154  0  0.071921  0.115903  0  3.924899  0
C  C102  1  0.89196357  0.76075293  0.96118777  1  0  0.156393  0  3.677385  0  0  0.120574  0  3.936509  0  0  0.129372  0  3.952546  0  0.533209  0  0.071086  0.114795  0  3.92567  0
C  C103  1  0.45232997  0.30773527  0.05185599  1  0  -0.117746  0  3.73486  0  0  -0.13136  0  3.989091  0  0  -0.13899  0  4.01112  0  0.023941  0  -0.075746  -0.126442  0  3.974318  0
C  C104  1  0.81345205  0.69196393  0.94815493  1  0  -0.114739  0  3.734823  0  0  -0.128666  0  3.989095  0  0  -0.136282  0  4.011084  0  0.001068  0  -0.07471  -0.123743  0  3.974292  0
C  C105  1  0.35829534  0.25251142  0.04222508  1  0  -0.026779  0  3.663138  0  0  -0.052249  0  3.907375  0  0  -0.048673  0  3.924514  0  -0.017645  0  -0.048024  -0.054502  0  3.895832  0
C  C106  1  0.65434077  0.74730157  0.95765324  1  0  -0.026287  0  3.662123  0  0  -0.051844  0  3.906198  0  0  -0.048335  0  3.923353  0  0.004308  0  -0.047996  -0.054007  0  3.894659  0
C  C107  1  0.42453196  0.12680244  0.02092038  1  0  0.035089  0  3.779529  0  0  0.051618  0  4.010624  0  0  0.049336  0  4.034945  0  -0.005094  0  0.007795  0.053104  0  3.994286  0
C  C108  1  0.57291667  0.87283312  0.97925795  1  0  0.035356  0  3.776925  0  0  0.051874  0  4.007972  0  0  0.049585  0  4.03233  0  -0.046278  0  0.008559  0.053364  0  3.99162  0
C  C109  1  0.33713874  0.06095828  0.01011051  1  0  -0.082283  0  3.682245  0  0  -0.105297  0  3.933523  0  0  -0.109183  0  3.957482  0  0.041763  0  -0.070474  -0.102775  0  3.917662  0
C  C110  1  0.40863605  0.93892027  0.98971429  1  0  -0.082536  0  3.682712  0  0  -0.105673  0  3.93421  0  0  -0.109595  0  3.958101  0  -0.034917  0  -0.071455  -0.10316  0  3.918399  0
C  C111  1  0.58744986  0.06426664  0.01026748  1  0  0.12444  0  3.761636  0  0  0.116797  0  3.997841  0  0  0.120774  0  4.019951  0  0.449855  0  0.120007  0.113914  0  3.983202  0
C  C112  1  0.66224588  0.93503047  0.99044659  1  0  0.125188  0  3.759489  0  0  0.117937  0  3.995392  0  0  0.121869  0  4.017554  0  0.526477  0  0.12024  0.115084  0  3.980718  0
N  N113  1  0.88482380  0.45678404  0.27975204  1  0  -0.330647  0  3.287173  0  0  -0.25656  0  3.553422  0  0  -0.274525  0  3.568103  0  -1.253472  0  -0.313934  -0.24458  0  3.543162  0
N  N114  1  0.62106221  0.54291709  0.72058237  1  0  -0.332967  0  3.283722  0  0  -0.258446  0  3.550382  0  0  -0.276387  0  3.565086  0  -1.240804  0  -0.3137  -0.246473  0  3.540099  0
N  N115  1  0.82835960  0.35955723  0.45081816  1  0  -0.346322  0  3.289306  0  0  -0.273089  0  3.564503  0  0  -0.29204  0  3.578911  0  -1.268343  0  -0.322443  -0.260615  0  3.554449  0
N  N116  1  0.63906551  0.64009665  0.54965964  1  0  -0.344667  0  3.290511  0  0  -0.271769  0  3.566098  0  0  -0.290831  0  3.580673  0  -1.268686  0  -0.322577  -0.259215  0  3.555932  0
N  N117  1  0.67823771  0.12084238  0.01839064  1  0  -0.336385  0  3.281901  0  0  -0.262404  0  3.557934  0  0  -0.280448  0  3.571523  0  -1.254126  0  -0.315436  -0.250382  0  3.548815  0
N  N118  1  0.81787443  0.87821367  0.98268748  1  0  -0.336099  0  3.281494  0  0  -0.262893  0  3.558136  0  0  -0.280938  0  3.571729  0  -1.26514  0  -0.315163  -0.250867  0  3.549002  0
O  O119  1  0.54174324  0.53707371  0.23690797  1  0  -0.632393  0  1.878257  0  0  -0.587723  0  2.094385  0  0  -0.610491  0  2.083889  0  -1.191272  0  -0.341741  -0.571532  0  2.100893  0
O  O120  1  0.31545105  0.46220412  0.76328824  1  0  -0.632069  0  1.877687  0  0  -0.587333  0  2.093905  0  0  -0.610214  0  2.083487  0  -1.190436  0  -0.34165  -0.571087  0  2.100409  0
O  O121  1  0.51516842  0.57580591  0.36935153  1  0  -0.624436  0  2.017291  0  0  -0.552169  0  2.271339  0  0  -0.581421  0  2.258564  0  -1.159821  0  -0.324862  -0.531189  0  2.278589  0
O  O122  1  0.45991322  0.42512465  0.63021091  1  0  -0.622837  0  2.020306  0  0  -0.55021  0  2.273539  0  0  -0.579408  0  2.260812  0  -1.158236  0  -0.32391  -0.529254  0  2.280718  0
O  O123  1  0.13594377  0.80437197  0.06895777  1  0  -0.636038  0  1.880668  0  0  -0.59135  0  2.098558  0  0  -0.614681  0  2.088682  0  -1.183432  0  -0.338784  -0.574586  0  2.104647  0
O  O124  1  0.00807590  0.19502735  0.93206637  1  0  -0.635923  0  1.879383  0  0  -0.591091  0  2.096981  0  0  -0.614447  0  2.087203  0  -1.192891  0  -0.338834  -0.574342  0  2.103059  0
O  O125  1  0.95333660  0.98726899  0.11375737  1  0  -0.634126  0  2.026633  0  0  -0.560225  0  2.288854  0  0  -0.590104  0  2.274036  0  -1.161034  0  -0.333696  -0.538943  0  2.297953  0
O  O126  1  0.05448111  0.01174463  0.88760789  1  0  -0.633226  0  2.025971  0  0  -0.559762  0  2.288065  0  0  -0.589596  0  2.273303  0  -1.154124  0  -0.333142  -0.538511  0  2.297163  0
O  O127  1  0.06280088  0.91413892  0.49612343  1  0  -0.27434  0  2.387884  0  0  -0.198276  0  2.623955  0  0  -0.218002  0  2.627544  0  -1.073302  0  -0.16887  -0.184302  0  2.620879  0
O  O128  1  0.47318719  0.08616294  0.50365873  1  0  -0.275264  0  2.387748  0  0  -0.198996  0  2.623772  0  0  -0.218602  0  2.627213  0  -1.077768  0  -0.169557  -0.184989  0  2.620762  0
O  O129  1  0.27426638  0.71681472  0.57734425  1  0  -0.612245  0  1.96727  0  0  -0.548136  0  2.211218  0  0  -0.574711  0  2.199647  0  -1.152912  0  -0.316251  -0.530067  0  2.218052  0
O  O130  1  0.56835550  0.28398277  0.42150680  1  0  -0.612828  0  1.971988  0  0  -0.54712  0  2.216363  0  0  -0.574036  0  2.204705  0  -1.153775  0  -0.317002  -0.528846  0  2.223291  0
O  O131  1  0.29357229  0.76621833  0.69453550  1  0  -0.632266  0  1.925706  0  0  -0.572269  0  2.161973  0  0  -0.599323  0  2.150031  0  -1.161012  0  -0.333252  -0.553127  0  2.169328  0
O  O132  1  0.75727364  0.23250794  0.30495841  1  0  -0.628825  0  1.922887  0  0  -0.569804  0  2.1575  0  0  -0.596611  0  2.145761  0  -1.166113  0  -0.331453  -0.55085  0  2.164758  0
