# generated using pymatgen
data_Cu3H16C12N4Cl3
_symmetry_space_group_name_H-M   'P 1'
_cell_length_a   7.26162557
_cell_length_b   8.80956179
_cell_length_c   12.77218686
_cell_angle_alpha   89.10670821
_cell_angle_beta   87.35636313
_cell_angle_gamma   87.75719634
_symmetry_Int_Tables_number   1
_chemical_formula_structural   Cu3H16C12N4Cl3
_chemical_formula_sum   'Cu6 H32 C24 N8 Cl6'
_cell_volume   815.48642282
_cell_formula_units_Z   2
loop_
 _symmetry_equiv_pos_site_id
 _symmetry_equiv_pos_as_xyz
  1  'x, y, z'
loop_
 _atom_site_type_symbol
 _atom_site_label
 _atom_site_symmetry_multiplicity
 _atom_site_fract_x
 _atom_site_fract_y
 _atom_site_fract_z
 _atom_site_occupancy
 _atom_site_hle17_bader_spin_density
 _atom_site_hle17_ddec_charge
 _atom_site_hle17_ddec_spin_density
 _atom_site_hle17_ddec_sum_bond_order
 _atom_site_hle17_magmom
 _atom_site_hse06_10hf_bader_spin_density
 _atom_site_hse06_10hf_ddec_charge
 _atom_site_hse06_10hf_ddec_spin_density
 _atom_site_hse06_10hf_ddec_sum_bond_order
 _atom_site_hse06_10hf_magmom
 _atom_site_hse06_bader_spin_density
 _atom_site_hse06_ddec_charge
 _atom_site_hse06_ddec_spin_density
 _atom_site_hse06_ddec_sum_bond_order
 _atom_site_hse06_magmom
 _atom_site_pbe_bader_spin_density
 _atom_site_pbe_cm5_charge
 _atom_site_pbe_ddec_charge
 _atom_site_pbe_ddec_spin_density
 _atom_site_pbe_ddec_sum_bond_order
 _atom_site_pbe_magmom
Cu  Cu0  1  0.73528618  0.05654564  0.74740372  1  0  0.44238  0  1.997592  0  0  0.334673  0  2.48283  0  0  0.324092  0  2.444169  0  0  0.478199  0.343631  0  2.507345  0
Cu  Cu1  1  0.26471577  0.94345659  0.25259872  1  0  0.442458  0  1.99747  0  0  0.334783  0  2.482699  0  0  0.324159  0  2.444015  0  0  0.478222  0.343746  0  2.507216  0
Cu  Cu2  1  0.75212299  0.72684943  0.66181293  1  0  0.402706  0  1.972898  0  0  0.310325  0  2.448727  0  0  0.320332  0  2.393577  0  0  0.36938  0.30629  0  2.484092  0
Cu  Cu3  1  0.24788453  0.27315153  0.33818785  1  0  0.402758  0  1.972816  0  0  0.310385  0  2.448703  0  0  0.320412  0  2.393486  0  0  0.369385  0.30634  0  2.484083  0
Cu  Cu4  1  0.76662569  0.71915650  0.86325834  1  0  0.426739  0  1.962828  0  0  0.330594  0  2.446725  0  0  0.336808  0  2.393949  0  0  0.387614  0.32745  0  2.481246  0
Cu  Cu5  1  0.23337202  0.28084921  0.13674489  1  0  0.426735  0  1.962802  0  0  0.33057  0  2.446755  0  0  0.336768  0  2.393951  0  0  0.387617  0.327423  0  2.481282  0
H  H6  1  0.08041949  0.20634305  0.76049097  1  0  0.088298  0  0.944755  0  0  0.096695  0  1.012463  0  0  0.099886  0  1.009464  0  0  0.112807  0.09391  0  1.015884  0
H  H7  1  0.91957720  0.79364685  0.23951499  1  0  0.088415  0  0.944691  0  0  0.0968  0  1.012401  0  0  0.099993  0  1.009398  0  0  0.112838  0.094019  0  1.015817  0
H  H8  1  0.67287994  0.08012026  0.98115187  1  0  0.093187  0  0.967678  0  0  0.098053  0  1.038007  0  0  0.101137  0  1.036403  0  0  0.105353  0.095688  0  1.039312  0
H  H9  1  0.32711657  0.91987647  0.01885473  1  0  0.093175  0  0.967645  0  0  0.098028  0  1.037987  0  0  0.101129  0  1.036368  0  0  0.10534  0.095674  0  1.03928  0
H  H10  1  0.86558717  0.16492412  0.12496204  1  0  0.095228  0  0.951427  0  0  0.100308  0  1.02049  0  0  0.10342  0  1.018486  0  0  0.109749  0.097805  0  1.02225  0
H  H11  1  0.13441353  0.83507137  0.87504293  1  0  0.095329  0  0.951409  0  0  0.10035  0  1.020528  0  0  0.103465  0  1.018521  0  0  0.109756  0.097846  0  1.02229  0
H  H12  1  0.37464004  0.28533733  0.81759460  1  0  0.084329  0  0.932908  0  0  0.100505  0  0.994945  0  0  0.101684  0  0.994885  0  0  0.092815  0.099795  0  0.994817  0
H  H13  1  0.62535093  0.71466388  0.18240653  1  0  0.084339  0  0.932855  0  0  0.100495  0  0.994886  0  0  0.101671  0  0.994829  0  0  0.092816  0.099788  0  0.994757  0
H  H14  1  0.42240374  0.27628268  0.95234130  1  0  0.083641  0  0.943833  0  0  0.098968  0  1.011093  0  0  0.101519  0  1.008795  0  0  0.090859  0.096868  0  1.012937  0
H  H15  1  0.57759109  0.72373092  0.04765789  1  0  0.083551  0  0.943854  0  0  0.098862  0  1.011125  0  0  0.101421  0  1.008816  0  0  0.090764  0.096759  0  1.012976  0
H  H16  1  0.43179929  0.54519973  0.88220135  1  0  0.100964  0  0.979152  0  0  0.1186  0  1.047019  0  0  0.121189  0  1.046317  0  0  0.076111  0.116723  0  1.047579  0
H  H17  1  0.56817365  0.45481284  0.11778972  1  0  0.100984  0  0.979116  0  0  0.118618  0  1.04698  0  0  0.12121  0  1.046279  0  0  0.076103  0.116739  0  1.047544  0
H  H18  1  0.19766640  0.53684270  0.84748513  1  0  0.097577  0  0.954579  0  0  0.117825  0  1.017495  0  0  0.119049  0  1.018342  0  0  0.081794  0.116872  0  1.016838  0
H  H19  1  0.80230556  0.46315177  0.15250873  1  0  0.097584  0  0.954408  0  0  0.117836  0  1.017314  0  0  0.119059  0  1.018167  0  0  0.081816  0.116884  0  1.016655  0
H  H20  1  0.25313405  0.52736543  0.98164808  1  0  0.091876  0  0.965065  0  0  0.108602  0  1.034176  0  0  0.110573  0  1.033979  0  0  0.077012  0.107344  0  1.033889  0
H  H21  1  0.74684034  0.47264263  0.01834541  1  0  0.091923  0  0.964996  0  0  0.108686  0  1.034081  0  0  0.110657  0  1.033889  0  0  0.077083  0.107425  0  1.033797  0
H  H22  1  0.79814533  0.26441186  0.57048373  1  0  0.101013  0  0.933148  0  0  0.111318  0  0.99401  0  0  0.114998  0  0.990993  0  0  0.119177  0.108302  0  0.997158  0
H  H23  1  0.20186208  0.73559364  0.42951695  1  0  0.101015  0  0.933214  0  0  0.111312  0  0.994094  0  0  0.114993  0  0.991079  0  0  0.119219  0.108295  0  0.997238  0
H  H24  1  0.34970063  0.02356933  0.68690553  1  0  0.09625  0  0.972787  0  0  0.10181  0  1.041671  0  0  0.104777  0  1.040789  0  0  0.10368  0.099545  0  1.042474  0
H  H25  1  0.65031409  0.97642232  0.31309062  1  0  0.096283  0  0.972668  0  0  0.10182  0  1.041563  0  0  0.104784  0  1.040687  0  0  0.10369  0.099558  0  1.042366  0
H  H26  1  0.17556541  0.10052146  0.52845726  1  0  0.091278  0  0.963734  0  0  0.094825  0  1.035778  0  0  0.098139  0  1.03375  0  0  0.104661  0.092162  0  1.037672  0
H  H27  1  0.82445217  0.89946673  0.47153813  1  0  0.091244  0  0.963728  0  0  0.094778  0  1.035779  0  0  0.098102  0  1.033718  0  0  0.104662  0.092115  0  1.037674  0
H  H28  1  0.53445260  0.44885765  0.35985670  1  0  0.084421  0  0.946955  0  0  0.099727  0  1.012484  0  0  0.101833  0  1.011465  0  0  0.087793  0.097877  0  1.013675  0
H  H29  1  0.46554913  0.55115147  0.64014871  1  0  0.084386  0  0.947001  0  0  0.099667  0  1.012568  0  0  0.101798  0  1.011531  0  0  0.08775  0.097822  0  1.013756  0
H  H30  1  0.68402743  0.29858815  0.31926887  1  0  0.098213  0  0.930361  0  0  0.114587  0  0.993483  0  0  0.115943  0  0.993979  0  0  0.0937  0.113682  0  0.993047  0
H  H31  1  0.31597027  0.70142196  0.68072877  1  0  0.098267  0  0.930241  0  0  0.114615  0  0.993412  0  0  0.115978  0  0.993907  0  0  0.093717  0.113709  0  0.992981  0
H  H32  1  0.85494331  0.53638477  0.35431856  1  0  0.099457  0  0.955009  0  0  0.122389  0  1.01191  0  0  0.123859  0  1.012892  0  0  0.08048  0.121198  0  1.011444  0
H  H33  1  0.14506006  0.46361738  0.64568150  1  0  0.099443  0  0.954993  0  0  0.122392  0  1.011892  0  0  0.123865  0  1.012869  0  0  0.080484  0.121201  0  1.01143  0
H  H34  1  0.78108130  0.52462219  0.48916253  1  0  0.08274  0  0.994131  0  0  0.097527  0  1.070458  0  0  0.09929  0  1.070101  0  0  0.074052  0.096292  0  1.07039  0
H  H35  1  0.21892757  0.47537989  0.51083820  1  0  0.082708  0  0.994122  0  0  0.097531  0  1.070428  0  0  0.099293  0  1.070073  0  0  0.07407  0.096297  0  1.070357  0
H  H36  1  0.93146859  0.38171160  0.43144224  1  0  0.085566  0  0.990529  0  0  0.102507  0  1.063619  0  0  0.105586  0  1.061195  0  0  0.071085  0.099938  0  1.065625  0
H  H37  1  0.06853900  0.61828926  0.56855463  1  0  0.085545  0  0.990522  0  0  0.1025  0  1.0636  0  0  0.10558  0  1.061174  0  0  0.071105  0.099947  0  1.065594  0
C  C38  1  0.14141852  0.24679773  0.92102196  1  0  0.218748  0  3.676628  0  0  0.225459  0  3.918121  0  0  0.230949  0  3.936068  0  0  0.120362  0.221923  0  3.905498  0
C  C39  1  0.85857811  0.75319663  0.07898077  1  0  0.21864  0  3.676806  0  0  0.225319  0  3.918276  0  0  0.230804  0  3.936226  0  0  0.120312  0.221778  0  3.905657  0
C  C40  1  0.03213618  0.19829570  0.84232653  1  0  0.031386  0  3.648309  0  0  -0.006598  0  3.902926  0  0  -0.003201  0  3.914572  0  0  0.03853  -0.010259  0  3.897267  0
C  C41  1  0.96786187  0.80169639  0.15767700  1  0  0.031295  0  3.648262  0  0  -0.006659  0  3.902854  0  0  -0.00326  0  3.914497  0  0  0.038536  -0.010311  0  3.897196  0
C  C42  1  0.80663557  0.12849790  0.96361876  1  0  0.063898  0  3.674278  0  0  0.031629  0  3.930615  0  0  0.033931  0  3.943532  0  0  0.034317  0.029181  0  3.923076  0
C  C43  1  0.19336376  0.87149650  0.03638704  1  0  0.064104  0  3.674185  0  0  0.031895  0  3.930439  0  0  0.034186  0  3.943341  0  0  0.034405  0.029445  0  3.922903  0
C  C44  1  0.91349959  0.17534401  0.04311960  1  0  0.080062  0  3.67343  0  0  0.051318  0  3.92939  0  0  0.056412  0  3.942533  0  0  0.039674  0.047583  0  3.920678  0
C  C45  1  0.08649971  0.82465261  0.95688459  1  0  0.079875  0  3.673552  0  0  0.051119  0  3.929597  0  0  0.056208  0  3.942753  0  0  0.03965  0.047386  0  3.920888  0
C  C46  1  0.32142303  0.31916936  0.89610670  1  0  -0.141615  0  3.720106  0  0  -0.181967  0  3.971983  0  0  -0.183085  0  3.982668  0  0  -0.163092  -0.181206  0  3.964704  0
C  C47  1  0.67856787  0.68083524  0.10389357  1  0  -0.141512  0  3.720098  0  0  -0.181799  0  3.971887  0  0  -0.182915  0  3.982564  0  0  -0.163021  -0.181036  0  3.964605  0
C  C48  1  0.29995664  0.49284597  0.90220936  1  0  -0.273304  0  3.671372  0  0  -0.34011  0  3.906448  0  0  -0.344331  0  3.91729  0  0  -0.249643  -0.3371  0  3.898891  0
C  C49  1  0.70001787  0.50715643  0.09778503  1  0  -0.273388  0  3.671184  0  0  -0.340266  0  3.906299  0  0  -0.344489  0  3.917121  0  0  -0.249729  -0.337264  0  3.898762  0
C  C50  1  0.56390533  0.27278896  0.47185038  1  0  0.229425  0  3.65083  0  0  0.234632  0  3.891229  0  0  0.240894  0  3.908467  0  0  0.124331  0.230094  0  3.87986  0
C  C51  1  0.43610361  0.72721082  0.52814962  1  0  0.229298  0  3.650758  0  0  0.234547  0  3.891159  0  0  0.240818  0  3.908404  0  0  0.124285  0.230007  0  3.879792  0
C  C52  1  0.65863384  0.22820337  0.56053297  1  0  0.029409  0  3.615429  0  0  -0.005476  0  3.866974  0  0  -0.002189  0  3.87729  0  0  0.041019  -0.008429  0  3.862103  0
C  C53  1  0.34137504  0.77179759  0.43946857  1  0  0.02948  0  3.615463  0  0  -0.005416  0  3.86702  0  0  -0.002126  0  3.877327  0  0  0.041005  -0.008361  0  3.862136  0
C  C54  1  0.41022749  0.09617547  0.62577657  1  0  0.049925  0  3.683728  0  0  0.015791  0  3.94527  0  0  0.017728  0  3.957884  0  0  0.026881  0.014117  0  3.937517  0
C  C55  1  0.58978305  0.90381740  0.37422042  1  0  0.049905  0  3.683471  0  0  0.015812  0  3.945008  0  0  0.017748  0  3.957618  0  0  0.026944  0.01413  0  3.93726  0
C  C56  1  0.31474817  0.13871564  0.53827055  1  0  0.07667  0  3.682864  0  0  0.048267  0  3.937678  0  0  0.05325  0  3.950511  0  0  0.034965  0.044534  0  3.930003  0
C  C57  1  0.68526512  0.86127611  0.46172876  1  0  0.076677  0  3.682573  0  0  0.048305  0  3.937379  0  0  0.053301  0  3.950216  0  0  0.034988  0.044574  0  3.929703  0
C  C58  1  0.64611888  0.37151255  0.38704131  1  0  -0.149542  0  3.729218  0  0  -0.185526  0  3.973917  0  0  -0.188398  0  3.987256  0  0  -0.165978  -0.183137  0  3.964411  0
C  C59  1  0.35388440  0.62849190  0.61296026  1  0  -0.149436  0  3.729203  0  0  -0.185397  0  3.973912  0  0  -0.188302  0  3.987277  0  0  -0.1659  -0.183014  0  3.964419  0
C  C60  1  0.81190115  0.45853228  0.41783961  1  0  -0.275554  0  3.71481  0  0  -0.346071  0  3.952291  0  0  -0.350457  0  3.964294  0  0  -0.25593  -0.342519  0  3.943942  0
C  C61  1  0.18810493  0.54147207  0.58215955  1  0  -0.27557  0  3.714811  0  0  -0.346138  0  3.952279  0  0  -0.350523  0  3.964292  0  0  -0.256015  -0.342599  0  3.943921  0
N  N62  1  0.08133699  0.23419938  0.02322996  1  0  -0.296254  0  3.351518  0  0  -0.230271  0  3.647761  0  0  -0.23611  0  3.651211  0  0  -0.36381  -0.226287  0  3.643915  0
N  N63  1  0.91866092  0.76579839  0.97677345  1  0  -0.296092  0  3.351642  0  0  -0.230068  0  3.647819  0  0  -0.235913  0  3.651291  0  0  -0.363742  -0.226086  0  3.643975  0
N  N64  1  0.86570779  0.13830239  0.86199726  1  0  -0.238464  0  3.409305  0  0  -0.171053  0  3.711493  0  0  -0.170198  0  3.713278  0  0  -0.364753  -0.171971  0  3.711263  0
N  N65  1  0.13429021  0.86169087  0.13800782  1  0  -0.238674  0  3.409317  0  0  -0.171307  0  3.711566  0  0  -0.170446  0  3.713335  0  0  -0.364855  -0.172249  0  3.711368  0
N  N66  1  0.38969448  0.22568962  0.46041844  1  0  -0.2997  0  3.357066  0  0  -0.233245  0  3.648682  0  0  -0.239401  0  3.651607  0  0  -0.362314  -0.229913  0  3.646453  0
N  N67  1  0.61031598  0.77430666  0.53957847  1  0  -0.299582  0  3.356902  0  0  -0.233144  0  3.648499  0  0  -0.239315  0  3.651443  0  0  -0.362318  -0.229819  0  3.646283  0
N  N68  1  0.58523196  0.13880575  0.63733620  1  0  -0.239589  0  3.409908  0  0  -0.174966  0  3.720581  0  0  -0.172914  0  3.720709  0  0  -0.365445  -0.177211  0  3.720999  0
N  N69  1  0.41477697  0.86119516  0.36266299  1  0  -0.239672  0  3.409942  0  0  -0.17507  0  3.72064  0  0  -0.173007  0  3.72074  0  0  -0.365522  -0.177316  0  3.721055  0
Cl  Cl70  1  0.78102920  0.51299771  0.75991676  1  0  -0.513726  0  1.312381  0  0  -0.436206  0  1.662639  0  0  -0.458257  0  1.632732  0  0  -0.297817  -0.420707  0  1.682918  0
Cl  Cl71  1  0.21896854  0.48700686  0.24008649  1  0  -0.513762  0  1.312366  0  0  -0.436231  0  1.662615  0  0  -0.458292  0  1.632709  0  0  -0.297845  -0.420732  0  1.682894  0
Cl  Cl72  1  0.98173776  0.90354313  0.66896491  1  0  -0.553374  0  1.216856  0  0  -0.482037  0  1.562645  0  0  -0.499744  0  1.532557  0  0  -0.300307  -0.468377  0  1.582464  0
Cl  Cl73  1  0.01826413  0.09646246  0.33103588  1  0  -0.553383  0  1.216813  0  0  -0.482062  0  1.562618  0  0  -0.499759  0  1.532511  0  0  -0.300317  -0.468399  0  1.582428  0
Cl  Cl74  1  0.51956155  0.87889741  0.83387251  1  0  -0.544319  0  1.255476  0  0  -0.47345  0  1.611088  0  0  -0.489043  0  1.578522  0  0  -0.287308  -0.461716  0  1.632  0
Cl  Cl75  1  0.48043492  0.12110483  0.16612769  1  0  -0.54429  0  1.255422  0  0  -0.473427  0  1.611044  0  0  -0.489007  0  1.578457  0  0  -0.287304  -0.461693  0  1.63196  0
