# generated using pymatgen
data_ZnH10C17NO4
_symmetry_space_group_name_H-M   'P 1'
_cell_length_a   7.90364872
_cell_length_b   10.53650825
_cell_length_c   11.13601329
_cell_angle_alpha   61.77746977
_cell_angle_beta   86.31462640
_cell_angle_gamma   82.17968518
_symmetry_Int_Tables_number   1
_chemical_formula_structural   ZnH10C17NO4
_chemical_formula_sum   'Zn2 H20 C34 N2 O8'
_cell_volume   809.52441599
_cell_formula_units_Z   2
loop_
 _symmetry_equiv_pos_site_id
 _symmetry_equiv_pos_as_xyz
  1  'x, y, z'
loop_
 _atom_site_type_symbol
 _atom_site_label
 _atom_site_symmetry_multiplicity
 _atom_site_fract_x
 _atom_site_fract_y
 _atom_site_fract_z
 _atom_site_occupancy
 _atom_site_pbe_bader_charge
 _atom_site_pbe_bader_spin_density
 _atom_site_pbe_cm5_charge
 _atom_site_pbe_ddec_charge
 _atom_site_pbe_ddec_spin_density
 _atom_site_pbe_ddec_sum_bond_order
 _atom_site_pbe_magmom
Zn  Zn0  1  0.11003710  0.59594412  0.00007859  1  1.281099  0  0.664845  0.813813  0  2.41996  0
Zn  Zn1  1  0.88996547  0.40405450  0.99991818  1  1.281271  0  0.664807  0.813762  0  2.419961  0
H  H2  1  0.77472742  0.16308308  0.41246655  1  0.078507  0  0.103812  0.113268  0  0.999045  0
H  H3  1  0.92483989  0.96537816  0.62135830  1  0.084308  0  0.10116  0.10661  0  1.019229  0
H  H4  1  0.48285546  0.73514962  0.73229846  1  0.110374  0  0.102587  0.107535  0  1.047929  0
H  H5  1  0.22522653  0.42432993  0.41255514  1  0.075585  0  0.103636  0.113555  0  0.999299  0
H  H6  1  0.07527102  0.41319112  0.62154145  1  0.087794  0  0.101129  0.106754  0  1.019079  0
H  H7  1  0.51735329  0.53268082  0.73229157  1  0.103119  0  0.102696  0.107761  0  1.048553  0
H  H8  1  0.22527535  0.83691918  0.58753311  1  0.078537  0  0.103835  0.113296  0  0.999061  0
H  H9  1  0.07516414  0.03462405  0.37864143  1  0.084435  0  0.101144  0.106599  0  1.01921  0
H  H10  1  0.51714550  0.26485366  0.26770343  1  0.110578  0  0.102572  0.107515  0  1.047913  0
H  H11  1  0.77477338  0.57567298  0.58743835  1  0.07559  0  0.103647  0.11358  0  0.999329  0
H  H12  1  0.92473168  0.58680331  0.37845847  1  0.087771  0  0.101145  0.106744  0  1.019115  0
H  H13  1  0.48264638  0.46731824  0.26770690  1  0.103081  0  0.1027  0.107764  0  1.048542  0
H  H14  1  0.04168813  0.87546758  0.99971441  1  0.099398  0  0.118961  0.084195  0  1.027457  0
H  H15  1  0.20216480  0.06314812  0.99975314  1  0.073058  0  0.111278  0.115919  0  1.035861  0
H  H16  1  0.66652841  0.79241367  0.00000446  1  0.113776  0  0.11224  0.121398  0  1.028461  0
H  H17  1  0.48782534  0.61921325  0.99999759  1  0.134907  0  0.125757  0.10388  0  0.996306  0
H  H18  1  0.95830742  0.12453466  0.00028297  1  0.099469  0  0.118963  0.084155  0  1.027521  0
H  H19  1  0.79783143  0.93685146  0.00025023  1  0.072906  0  0.111222  0.115847  0  1.035909  0
H  H20  1  0.33346497  0.20759081  0.99999609  1  0.11372  0  0.112225  0.121393  0  1.028377  0
H  H21  1  0.51217348  0.38079157  0.00000052  1  0.135052  0  0.12572  0.103879  0  0.996312  0
C  C22  1  0.54236995  0.06121841  0.45380717  1  0.009647  0  -0.00447  0.081066  0  3.989636  0
C  C23  1  0.71199912  0.06908863  0.48297195  1  -0.028474  0  -0.086903  -0.123285  0  3.966122  0
C  C24  1  0.79475770  0.96067613  0.59804631  1  -0.025948  0  -0.091907  -0.106627  0  3.997485  0
C  C25  1  0.54683314  0.82830155  0.66236889  1  -0.050898  0  -0.080567  -0.14308  0  3.935814  0
C  C26  1  0.71293611  0.83752666  0.68753780  1  -0.070725  0  -0.024122  -0.039468  0  4.000303  0
C  C27  1  0.80907392  0.71547059  0.80639523  1  1.547689  0  0.211565  0.582035  0  4.181765  0
C  C28  1  0.45757022  0.48495286  0.45382791  1  0.016564  0  -0.004089  0.081854  0  3.988675  0
C  C29  1  0.28796733  0.44786985  0.48304491  1  -0.07388  0  -0.08711  -0.124252  0  3.967072  0
C  C30  1  0.20532812  0.44125154  0.59815469  1  -0.027264  0  -0.091544  -0.106152  0  3.997157  0
C  C31  1  0.45334825  0.50938691  0.66239799  1  -0.023552  0  -0.080853  -0.144238  0  3.936572  0
C  C32  1  0.28727683  0.47493517  0.68762085  1  -0.0447  0  -0.024471  -0.0395  0  4.000793  0
C  C33  1  0.19117989  0.47802720  0.80652578  1  1.549408  0  0.210865  0.580053  0  4.183148  0
C  C34  1  0.45763047  0.93878582  0.54619704  1  -0.037767  0  -0.004499  0.080908  0  3.989749  0
C  C35  1  0.28800040  0.93091532  0.51703034  1  -0.028457  0  -0.086913  -0.123236  0  3.966068  0
C  C36  1  0.20524600  0.03932910  0.40195256  1  -0.025931  0  -0.091891  -0.106667  0  3.997522  0
C  C37  1  0.45317053  0.17170100  0.33763269  1  -0.051135  0  -0.080555  -0.143046  0  3.935597  0
C  C38  1  0.28706721  0.16247713  0.31246471  1  -0.070719  0  -0.024136  -0.039482  0  4.000388  0
C  C39  1  0.19092975  0.28453196  0.19360635  1  1.547719  0  0.211477  0.581945  0  4.181957  0
C  C40  1  0.54242882  0.51505491  0.54616612  1  -0.040061  0  -0.004054  0.082  0  3.988437  0
C  C41  1  0.71203222  0.55213429  0.51694951  1  -0.073772  0  -0.087146  -0.124316  0  3.967211  0
C  C42  1  0.79467441  0.55874440  0.40184479  1  -0.027245  0  -0.091514  -0.106163  0  3.997288  0
C  C43  1  0.54665287  0.49061148  0.33760008  1  -0.023377  0  -0.080831  -0.144246  0  3.936633  0
C  C44  1  0.71272856  0.52505765  0.31237965  1  -0.044792  0  -0.024471  -0.039373  0  4.000571  0
C  C45  1  0.80881859  0.52196080  0.19347510  1  1.549292  0  0.210849  0.57998  0  4.183306  0
C  C46  1  0.18049124  0.86295497  0.99985204  1  0.468323  0  0.05623  0.107831  0  3.929575  0
C  C47  1  0.27102768  0.96649563  0.99989453  1  -0.028483  0  -0.071855  -0.161698  0  3.925292  0
C  C48  1  0.45012894  0.94556046  0.00000714  1  0.120154  0  0.022536  0.116396  0  3.948018  0
C  C49  1  0.52846579  0.81777867  0.00007680  1  -0.071288  0  -0.070644  -0.157813  0  3.899748  0
C  C50  1  0.42880638  0.71889015  0.00002934  1  0.538415  0  0.063091  0.113418  0  3.900519  0
C  C51  1  0.81950374  0.13704645  0.00014945  1  0.468386  0  0.056214  0.107889  0  3.929584  0
C  C52  1  0.72896855  0.03350484  0.00010794  1  -0.028309  0  -0.071799  -0.161648  0  3.9253  0
C  C53  1  0.54986728  0.05443912  0.99999622  1  0.081218  0  0.022521  0.116283  0  3.948072  0
C  C54  1  0.47153047  0.18222447  0.99992296  1  -0.071528  0  -0.070606  -0.157736  0  3.899657  0
C  C55  1  0.57119007  0.28111238  0.99996995  1  0.5384  0  0.063124  0.113372  0  3.900534  0
N  N56  1  0.25727395  0.74087496  0.99996001  1  -1.298199  0  -0.322782  -0.202468  0  3.517768  0
N  N57  1  0.74272251  0.25912846  0.00003838  1  -1.298214  0  -0.322761  -0.202429  0  3.517793  0
O  O58  1  0.93671155  0.74369738  0.85051482  1  -1.169443  0  -0.32096  -0.559359  0  2.322601  0
O  O59  1  0.75735951  0.59094573  0.85416160  1  -1.167434  0  -0.314877  -0.545986  0  2.344365  0
O  O60  1  0.06352779  0.40569476  0.85052099  1  -1.174881  0  -0.320714  -0.558745  0  2.321053  0
O  O61  1  0.24294947  0.55457067  0.85452803  1  -1.165632  0  -0.314528  -0.544651  0  2.345352  0
O  O62  1  0.06329832  0.25630750  0.14947792  1  -1.169367  0  -0.320945  -0.559307  0  2.322475  0
O  O63  1  0.24264682  0.40905253  0.14584326  1  -1.167546  0  -0.314791  -0.545924  0  2.344551  0
O  O64  1  0.93647558  0.59429116  0.14947550  1  -1.174645  0  -0.320728  -0.558696  0  2.320978  0
O  O65  1  0.75704820  0.44541088  0.14548375  1  -1.165888  0  -0.314514  -0.544661  0  2.345469  0
