# generated using pymatgen
data_Zn4H44C55O16
_symmetry_space_group_name_H-M   'P 1'
_cell_length_a   19.51010532
_cell_length_b   19.53798638
_cell_length_c   19.52968889
_cell_angle_alpha   84.68865147
_cell_angle_beta   89.94845744
_cell_angle_gamma   85.30951837
_symmetry_Int_Tables_number   1
_chemical_formula_structural   Zn4H44C55O16
_chemical_formula_sum   'Zn4 H44 C55 O16'
_cell_volume   7387.53111609
_cell_formula_units_Z   1
loop_
 _symmetry_equiv_pos_site_id
 _symmetry_equiv_pos_as_xyz
  1  'x, y, z'
loop_
 _atom_site_type_symbol
 _atom_site_label
 _atom_site_symmetry_multiplicity
 _atom_site_fract_x
 _atom_site_fract_y
 _atom_site_fract_z
 _atom_site_occupancy
 _atom_site_pbe_bader_charge
 _atom_site_pbe_bader_spin_density
 _atom_site_pbe_cm5_charge
 _atom_site_pbe_ddec_charge
 _atom_site_pbe_ddec_spin_density
 _atom_site_pbe_ddec_sum_bond_order
 _atom_site_pbe_magmom
Zn  Zn0  1  0.44660587  0.44460838  0.55810584  1  1.315005  0  0.669797  0.961139  0  2.392967  0
Zn  Zn1  1  0.56684401  0.44266402  0.44834673  1  1.318296  0  0.671349  0.967566  0  2.36743  0
Zn  Zn2  1  0.55614163  0.55572786  0.55672268  1  1.312597  0  0.66936  0.962203  0  2.401568  0
Zn  Zn3  1  0.44488330  0.56536249  0.43507623  1  1.317317  0  0.670569  0.9706  0  2.356464  0
H  H4  1  0.24648884  0.39878063  0.53519850  1  0.088712  0  0.104117  0.10857  0  0.999018  0
H  H5  1  0.41648753  0.50271451  0.99801731  1  0.052453  0  0.101782  0.099349  0  1.001679  0
H  H6  1  0.56979824  0.55489010  0.89345383  1  0.087978  0  0.101936  0.101152  0  1.004134  0
H  H7  1  0.76802704  0.59623928  0.52487873  1  0.097058  0  0.106082  0.120021  0  1.031409  0
H  H8  1  0.62560867  0.47185578  0.10841277  1  0.058484  0  0.10186  0.100847  0  0.995705  0
H  H9  1  0.54080419  0.76170170  0.58644848  1  0.107445  0  0.106987  0.112218  0  0.996504  0
H  H10  1  0.54721942  0.23437353  0.41370592  1  0.111886  0  0.107366  0.115972  0  0.994501  0
H  H11  1  0.47884397  0.23123909  0.62343861  1  0.106372  0  0.113858  0.133866  0  0.990735  0
H  H12  1  0.50870045  0.99622339  0.58113188  1  0.070832  0  0.104487  0.10206  0  1.014497  0
H  H13  1  0.46217650  0.90924461  0.37592837  1  0.058113  0  0.101649  0.100855  0  0.997244  0
H  H14  1  0.54325041  0.10717483  0.41904310  1  0.092606  0  0.102  0.102467  0  1.001547  0
H  H15  1  0.90176644  0.36904816  0.52581440  1  0.092895  0  0.107717  0.111304  0  0.986593  0
H  H16  1  0.45697748  0.78167185  0.38173093  1  0.074995  0  0.108107  0.113095  0  0.992613  0
H  H17  1  0.49426505  0.00971648  0.42321232  1  0.049394  0  0.099967  0.097365  0  1.005517  0
H  H18  1  0.54511019  0.88849678  0.58221612  1  0.072475  0  0.102615  0.103243  0  1.002126  0
H  H19  1  0.77326413  0.37757265  0.51488042  1  0.118009  0  0.107194  0.116881  0  0.994083  0
H  H20  1  0.10046834  0.59554373  0.41909915  1  0.043523  0  0.099411  0.099978  0  0.997851  0
H  H21  1  0.22807524  0.59665376  0.41835498  1  0.060655  0  0.105037  0.109658  0  0.997811  0
H  H22  1  0.99895650  0.54179659  0.44679267  1  0.07618  0  0.102323  0.117738  0  1.007762  0
H  H23  1  0.11931882  0.39691782  0.53639876  1  0.102447  0  0.101689  0.107258  0  1.029039  0
H  H24  1  0.40610050  0.03598734  0.69136870  1  0.029916  0  0.105002  0.072998  0  0.956718  0
H  H25  1  0.39197968  0.05267520  0.60092554  1  0.037493  0  0.095223  0.054669  0  0.997424  0
H  H26  1  0.57798862  0.55055635  0.76697632  1  0.077918  0  0.10754  0.113275  0  0.995116  0
H  H27  1  0.36496410  0.15757835  0.70780910  1  0.006768  0  0.093177  0.087568  0  0.968995  0
H  H28  1  0.35246027  0.17619163  0.61814794  1  0.034586  0  0.092419  0.087366  0  0.979429  0
H  H29  1  0.26360936  0.08880302  0.61919871  1  0.038602  0  0.085832  0.110094  0  1.003358  0
H  H30  1  0.24041407  0.15224949  0.67623212  1  0.023938  0  0.089062  0.116908  0  0.998896  0
H  H31  1  0.27597648  0.06927824  0.70917045  1  0.003608  0  0.08502  0.107217  0  1.007418  0
H  H32  1  0.01477301  0.37775970  0.67507286  1  0.04722  0  0.105656  0.074354  0  0.958635  0
H  H33  1  0.94231850  0.43781028  0.65352705  1  0.046787  0  0.094559  0.05445  0  0.99689  0
H  H34  1  0.09280572  0.47312540  0.66038140  1  0.014382  0  0.093112  0.089146  0  0.973883  0
H  H35  1  0.02262975  0.53266255  0.63460131  1  0.032905  0  0.091627  0.087889  0  0.985469  0
H  H36  1  0.96875722  0.51218142  0.75201853  1  0.02545  0  0.084202  0.107253  0  1.00642  0
H  H37  1  0.41100367  0.54822197  0.22640366  1  0.086699  0  0.108247  0.113628  0  0.993957  0
H  H38  1  0.05224976  0.54092447  0.75848132  1  0.027746  0  0.088793  0.116655  0  0.998342  0
H  H39  1  0.03943090  0.45255926  0.77865763  1  0.017026  0  0.084244  0.106387  0  1.006971  0
H  H40  1  0.83780053  0.66079895  0.58407007  1  0.05442  0  0.102165  0.099427  0  0.982959  0
H  H41  1  0.83772070  0.68153293  0.49245080  1  0.050162  0  0.101739  0.099054  0  0.981379  0
H  H42  1  0.90915843  0.70022030  0.54336156  1  0.078351  0  0.112136  0.117206  0  0.967108  0
H  H43  1  0.62288209  0.46882627  0.23634743  1  0.09575  0  0.108242  0.113285  0  0.991607  0
H  H44  1  0.57386673  0.50581395  0.99877460  1  0.045824  0  0.101009  0.097412  0  1.005251  0
H  H45  1  0.37658200  0.46239328  0.89205554  1  0.062318  0  0.101797  0.101419  0  0.996906  0
H  H46  1  0.41173890  0.54834738  0.09916990  1  0.058314  0  0.101749  0.101123  0  1.00155  0
H  H47  1  0.38610789  0.45784969  0.76509422  1  0.086124  0  0.107687  0.112652  0  0.993278  0
C  C48  1  0.51455667  0.50709157  0.31539912  1  1.531229  0  0.225996  0.606  0  4.166875  0
C  C49  1  0.02554395  0.50276871  0.48320326  1  0.027937  0  -0.10744  -0.273919  0  3.988945  0
C  C50  1  0.98450290  0.46808145  0.52778259  1  0.433211  0  0.081682  0.219459  0  4.036818  0
C  C51  1  0.48950507  0.50053676  0.68294477  1  1.545419  0  0.224232  0.601392  0  4.170246  0
C  C52  1  0.76402232  0.48783809  0.51844107  1  0.01349  0  -0.019729  -0.010124  0  4.007499  0
C  C53  1  0.48314886  0.50303421  0.75862661  1  0.055809  0  -0.020959  -0.045239  0  3.983544  0
C  C54  1  0.53469026  0.53049030  0.79528706  1  -0.063546  0  -0.082754  -0.086429  0  3.99392  0
C  C55  1  0.52997743  0.53229246  0.86591921  1  -0.077829  0  -0.091189  -0.135662  0  3.972793  0
C  C56  1  0.47343247  0.50698821  0.90235560  1  0.064876  0  -0.006866  0.120872  0  4.041287  0
C  C57  1  0.42107177  0.48136098  0.86469551  1  -0.097574  0  -0.090449  -0.14025  0  3.976636  0
C  C58  1  0.42608005  0.47865394  0.79397875  1  -0.058511  0  -0.081491  -0.083753  0  3.987708  0
C  C59  1  0.10023136  0.49738104  0.48011547  1  -0.047816  0  -0.003622  0.15436  0  4.020153  0
C  C60  1  0.45805786  0.53021228  0.12886210  1  -0.070585  0  -0.08926  -0.132712  0  3.968627  0
C  C61  1  0.45729210  0.53046755  0.19985840  1  0.012945  0  -0.081969  -0.086476  0  3.989151  0
C  C62  1  0.57706604  0.48617950  0.20565682  1  -0.0671  0  -0.081499  -0.085281  0  3.989835  0
C  C63  1  0.51341221  0.31716338  0.51390181  1  1.554262  0  0.226062  0.605669  0  4.158391  0
C  C64  1  0.57819129  0.48781485  0.13438274  1  -0.004184  0  -0.090203  -0.13747  0  3.977033  0
C  C65  1  0.51858611  0.50866892  0.09455184  1  0.024871  0  -0.008883  0.1168  0  4.046877  0
C  C66  1  0.46808755  0.50674612  0.97678158  1  -0.099541  0  -0.088848  -0.131633  0  3.995688  0
C  C67  1  0.52195786  0.50791316  0.02016470  1  -0.03216  0  -0.088086  -0.129771  0  4.000418  0
C  C68  1  0.51654511  0.50779140  0.23905842  1  -0.030198  0  -0.020539  -0.044478  0  3.97908  0
C  C69  1  0.49762078  0.76404075  0.48484497  1  0.018864  0  -0.022727  -0.049108  0  3.983468  0
C  C70  1  0.13251109  0.55236200  0.44486783  1  -0.039868  0  -0.094549  -0.146423  0  3.976661  0
C  C71  1  0.52276622  0.79482271  0.54102483  1  -0.112812  0  -0.083234  -0.086308  0  3.994243  0
C  C72  1  0.52471032  0.86575158  0.53839117  1  -0.042538  0  -0.090268  -0.133659  0  3.97148  0
C  C73  1  0.50201520  0.90857002  0.47922348  1  0.000241  0  -0.008094  0.120198  0  4.047127  0
C  C74  1  0.47879430  0.87688882  0.42248832  1  -0.011682  0  -0.091415  -0.140542  0  3.978397  0
C  C75  1  0.49569562  0.68773412  0.48912540  1  1.535938  0  0.225298  0.605357  0  4.169504  0
C  C76  1  0.47580945  0.80581918  0.42536440  1  -0.006115  0  -0.081955  -0.084442  0  3.99135  0
C  C77  1  0.52776620  0.13449591  0.46350924  1  -0.092441  0  -0.09064  -0.120594  0  3.995746  0
C  C78  1  0.53071281  0.20534582  0.46024122  1  0.006362  0  -0.088587  -0.106367  0  4.008881  0
C  C79  1  0.49261136  0.20406003  0.57853379  1  0.045249  0  -0.088797  -0.199347  0  3.961461  0
C  C80  1  0.49052755  0.13276042  0.58194598  1  0.484878  0  0.082828  0.204882  0  4.023417  0
C  C81  1  0.20358852  0.55331716  0.44423029  1  -0.026803  0  -0.087193  -0.09037  0  4.00711  0
C  C82  1  0.50765102  0.09622098  0.52396411  1  -0.073146  0  -0.014144  0.020688  0  4.020173  0
C  C83  1  0.50163221  0.98335018  0.47491532  1  -0.073332  0  -0.090135  -0.136173  0  3.997083  0
C  C84  1  0.50654156  0.02162828  0.52883626  1  -0.038256  0  -0.090239  -0.119765  0  4.013614  0
C  C85  1  0.51264963  0.24076827  0.51781638  1  -0.054702  0  -0.020524  -0.024281  0  4.000326  0
C  C86  1  0.68751528  0.49341706  0.51254755  1  1.523655  0  0.227652  0.609245  0  4.152381  0
C  C87  1  0.32083411  0.50097429  0.48267340  1  1.540911  0  0.222866  0.603779  0  4.168548  0
C  C88  1  0.24509559  0.49856962  0.47831754  1  -0.021314  0  -0.027648  -0.055585  0  4.001581  0
C  C89  1  0.21382207  0.44189840  0.51041837  1  -0.013986  0  -0.085984  -0.088926  0  4.001313  0
C  C90  1  0.14282019  0.44098295  0.51120345  1  -0.062597  0  -0.094704  -0.142384  0  3.96199  0
C  C91  1  0.40446490  0.07635943  0.64809571  1  0.434931  0  -0.065247  0.035861  0  3.903005  0
C  C92  1  0.87048755  0.54295164  0.52592126  1  0.409692  0  0.085524  0.217365  0  4.035805  0
C  C93  1  0.35105399  0.13509459  0.66058156  1  -0.006932  0  -0.170763  -0.139549  0  3.987933  0
C  C94  1  0.27886286  0.10998415  0.66663492  1  -0.057912  0  -0.242436  -0.351924  0  3.989137  0
C  C95  1  0.99815764  0.42720580  0.64604090  1  0.393878  0  -0.065594  0.030622  0  3.890168  0
C  C96  1  0.03753749  0.48558781  0.66851236  1  0.016163  0  -0.170797  -0.137843  0  3.979626  0
C  C97  1  0.02370333  0.49839904  0.74346036  1  -0.071056  0  -0.242512  -0.350005  0  3.992845  0
C  C98  1  0.87017465  0.66379666  0.53780272  1  0.379351  0  -0.130926  -0.168279  0  3.929847  0
C  C99  1  0.79859573  0.54728184  0.52356210  1  0.029265  0  -0.106908  -0.239675  0  3.983973  0
C  C100  1  0.80086267  0.42329714  0.51872012  1  -0.02496  0  -0.096035  -0.121677  0  4.012125  0
C  C101  1  0.87211521  0.41896719  0.52415475  1  -0.030157  0  -0.088153  -0.101927  0  4.014717  0
C  C102  1  0.90843272  0.47791156  0.52590612  1  -0.002498  0  -0.019053  -0.080243  0  4.009344  0
O  O103  1  0.50365086  0.50274761  0.49856203  1  -1.235023  0  -0.575801  -1.032182  0  2.555675  0
O  O104  1  0.66077569  0.44499303  0.48504671  1  -1.174693  0  -0.316455  -0.55041  0  2.320777  0
O  O105  1  0.34706583  0.55330481  0.45178664  1  -1.171593  0  -0.320581  -0.554265  0  2.321676  0
O  O106  1  0.65490648  0.54604368  0.53535522  1  -1.172483  0  -0.319977  -0.548843  0  2.313705  0
O  O107  1  0.35415443  0.45059220  0.51814677  1  -1.184639  0  -0.32317  -0.557661  0  2.341654  0
O  O108  1  0.47385459  0.09760959  0.64362689  1  -1.07542  0  -0.216113  -0.256492  0  2.486588  0
O  O109  1  0.01169058  0.41573584  0.57474401  1  -1.0617  0  -0.19487  -0.229063  0  2.502101  0
O  O110  1  0.90756547  0.59900348  0.52987217  1  -1.073019  0  -0.188428  -0.168161  0  2.588422  0
O  O111  1  0.48413890  0.34764754  0.56265644  1  -1.172248  0  -0.320544  -0.551564  0  2.320329  0
O  O112  1  0.46545654  0.66209490  0.44051476  1  -1.175023  0  -0.317638  -0.551279  0  2.312801  0
O  O113  1  0.56408355  0.47258917  0.34938679  1  -1.174966  0  -0.319958  -0.552627  0  2.315629  0
O  O114  1  0.54144951  0.52698945  0.65431998  1  -1.164532  0  -0.319667  -0.553919  0  2.337444  0
O  O115  1  0.46326240  0.54081771  0.34067616  1  -1.177551  0  -0.317356  -0.552378  0  2.333568  0
O  O116  1  0.44296509  0.47195918  0.65242808  1  -1.173605  0  -0.317422  -0.546964  0  2.322635  0
O  O117  1  0.54275712  0.34644117  0.46173972  1  -1.168825  0  -0.317412  -0.54969  0  2.319728  0
O  O118  1  0.52474706  0.65377227  0.54186455  1  -1.183997  0  -0.321196  -0.555297  0  2.345847  0
