# generated using pymatgen
data_GdZnH16C26N2ClO11
_symmetry_space_group_name_H-M   'P 1'
_cell_length_a   8.27900490
_cell_length_b   12.84131908
_cell_length_c   13.30421242
_cell_angle_alpha   106.68144057
_cell_angle_beta   104.51296431
_cell_angle_gamma   93.57330380
_symmetry_Int_Tables_number   1
_chemical_formula_structural   GdZnH16C26N2ClO11
_chemical_formula_sum   'Gd2 Zn2 H32 C52 N4 Cl2 O22'
_cell_volume   1297.83768257
_cell_formula_units_Z   2
loop_
 _symmetry_equiv_pos_site_id
 _symmetry_equiv_pos_as_xyz
  1  'x, y, z'
loop_
 _atom_site_type_symbol
 _atom_site_label
 _atom_site_symmetry_multiplicity
 _atom_site_fract_x
 _atom_site_fract_y
 _atom_site_fract_z
 _atom_site_occupancy
 _atom_site_hle17_bader_spin_density
 _atom_site_hle17_ddec_charge
 _atom_site_hle17_ddec_spin_density
 _atom_site_hle17_ddec_sum_bond_order
 _atom_site_hle17_magmom
 _atom_site_hse06_10hf_bader_spin_density
 _atom_site_hse06_10hf_ddec_charge
 _atom_site_hse06_10hf_ddec_spin_density
 _atom_site_hse06_10hf_ddec_sum_bond_order
 _atom_site_hse06_10hf_magmom
 _atom_site_hse06_bader_spin_density
 _atom_site_hse06_ddec_charge
 _atom_site_hse06_ddec_spin_density
 _atom_site_hse06_ddec_sum_bond_order
 _atom_site_hse06_magmom
 _atom_site_pbe_bader_spin_density
 _atom_site_pbe_cm5_charge
 _atom_site_pbe_ddec_charge
 _atom_site_pbe_ddec_spin_density
 _atom_site_pbe_ddec_sum_bond_order
 _atom_site_pbe_magmom
Gd  Gd0  1  0.75395436  0.51003546  0.51054151  1  0  2.202392  0  1.745128  0  0  2.121363  0  2.082067  0  0  2.174203  0  2.031441  0  0  1.480361  2.079937  0  2.123436  0
Gd  Gd1  1  0.24604730  0.48996673  0.48945962  1  0  2.202379  0  1.74513  0  0  2.121351  0  2.082054  0  0  2.174123  0  2.031539  0  0  1.480352  2.079943  0  2.123395  0
Zn  Zn2  1  0.67648864  0.78127201  0.33397014  1  0  1.003358  0  1.90819  0  0  0.823477  0  2.397007  0  0  0.871039  0  2.338665  0  0  0.631312  0.790359  0  2.437019  0
Zn  Zn3  1  0.32351375  0.21872772  0.66603267  1  0  1.003388  0  1.90816  0  0  0.823491  0  2.396977  0  0  0.871055  0  2.338635  0  0  0.631322  0.790374  0  2.436973  0
H  H4  1  0.99758334  0.41732868  0.64050286  1  0  0.440315  0  0.852117  0  0  0.41276  0  0.910519  0  0  0.423063  0  0.895385  0  0  0.305279  0.405472  0  0.921195  0
H  H5  1  0.00241903  0.58267105  0.35949544  1  0  0.440355  0  0.852048  0  0  0.412804  0  0.910445  0  0  0.423107  0  0.895309  0  0  0.305293  0.405514  0  0.921125  0
H  H6  1  0.85845350  0.41655746  0.70525019  1  0  0.402618  0  0.91281  0  0  0.360541  0  0.995066  0  0  0.372446  0  0.97831  0  0  0.286541  0.352177  0  1.006781  0
H  H7  1  0.14154905  0.58344310  0.29474837  1  0  0.402644  0  0.912779  0  0  0.360589  0  0.995001  0  0  0.372494  0  0.978246  0  0  0.28655  0.352227  0  1.006712  0
H  H8  1  0.57243654  0.25572001  0.94169335  1  0  0.11167  0  0.957554  0  0  0.120756  0  1.018466  0  0  0.124031  0  1.017372  0  0  0.105337  0.11843  0  1.019319  0
H  H9  1  0.42755443  0.74427885  0.05830369  1  0  0.11165  0  0.957553  0  0  0.120733  0  1.018472  0  0  0.124008  0  1.017378  0  0  0.105348  0.11841  0  1.019319  0
H  H10  1  0.35311139  0.14599116  0.97847793  1  0  0.090497  0  0.969986  0  0  0.099443  0  1.032246  0  0  0.102321  0  1.030483  0  0  0.093996  0.097366  0  1.033588  0
H  H11  1  0.64688440  0.85400690  0.02152340  1  0  0.090468  0  0.970034  0  0  0.099401  0  1.032311  0  0  0.102277  0  1.030551  0  0  0.09397  0.097324  0  1.033645  0
H  H12  1  0.26134358  0.22044969  0.14933725  1  0  0.104178  0  0.95371  0  0  0.113371  0  1.016004  0  0  0.116531  0  1.014745  0  0  0.103431  0.111118  0  1.016961  0
H  H13  1  0.73865809  0.77955250  0.85066689  1  0  0.10426  0  0.953625  0  0  0.113415  0  1.015956  0  0  0.116574  0  1.014697  0  0  0.103467  0.111168  0  1.016914  0
H  H14  1  0.70590231  0.49932861  0.89418837  1  0  0.09143  0  0.962535  0  0  0.096528  0  1.033031  0  0  0.098268  0  1.032684  0  0  0.113681  0.095208  0  1.033447  0
H  H15  1  0.29410006  0.50067114  0.10580317  1  0  0.091443  0  0.962467  0  0  0.096518  0  1.032998  0  0  0.098259  0  1.03265  0  0  0.113642  0.095194  0  1.03341  0
H  H16  1  0.95277807  0.30848244  0.08937498  1  0  0.127822  0  0.926552  0  0  0.139151  0  0.984369  0  0  0.141885  0  0.983117  0  0  0.115509  0.13713  0  0.985394  0
H  H17  1  0.04720738  0.69151394  0.91061902  1  0  0.127923  0  0.926519  0  0  0.139237  0  0.984328  0  0  0.141972  0  0.983075  0  0  0.115538  0.137216  0  0.985365  0
H  H18  1  0.08950743  0.22849116  0.93812214  1  0  0.100662  0  0.979354  0  0  0.109441  0  1.042241  0  0  0.111424  0  1.043084  0  0  0.099176  0.108006  0  1.041789  0
H  H19  1  0.91049210  0.77150691  0.06187676  1  0  0.100648  0  0.979381  0  0  0.109427  0  1.04226  0  0  0.111412  0  1.043107  0  0  0.09917  0.107992  0  1.041809  0
H  H20  1  0.02219224  0.28751997  0.77345649  1  0  0.073  0  0.960654  0  0  0.079233  0  1.031786  0  0  0.081894  0  1.029176  0  0  0.10449  0.077226  0  1.033804  0
H  H21  1  0.97781354  0.71247814  0.22654264  1  0  0.073017  0  0.96072  0  0  0.079255  0  1.031827  0  0  0.081911  0  1.029232  0  0  0.104514  0.077249  0  1.033842  0
H  H22  1  0.95763258  0.01633358  0.89691530  1  0  0.107992  0  0.940327  0  0  0.121143  0  0.997712  0  0  0.124138  0  0.996268  0  0  0.108362  0.119031  0  0.99876  0
H  H23  1  0.04236873  0.98366696  0.10308833  1  0  0.107978  0  0.940192  0  0  0.121092  0  0.997627  0  0  0.124086  0  0.996184  0  0  0.108351  0.118979  0  0.998677  0
H  H24  1  0.23981037  0.95480577  0.95226501  1  0  0.088724  0  0.940584  0  0  0.103833  0  0.991851  0  0  0.106549  0  0.990774  0  0  0.104153  0.101896  0  0.992715  0
H  H25  1  0.76019095  0.04519476  0.04774011  1  0  0.088724  0  0.940613  0  0  0.103844  0  0.991873  0  0  0.106561  0  0.990793  0  0  0.10413  0.101899  0  0.992739  0
H  H26  1  0.32676519  0.80699024  0.81616473  1  0  0.099366  0  0.978442  0  0  0.106743  0  1.045141  0  0  0.108677  0  1.045887  0  0  0.102486  0.105341  0  1.04473  0
H  H27  1  0.67323789  0.19301277  0.18383836  1  0  0.099391  0  0.978523  0  0  0.106766  0  1.045218  0  0  0.1087  0  1.045964  0  0  0.102515  0.105362  0  1.044805  0
H  H28  1  0.48425775  0.04145721  0.71783552  1  0  0.100755  0  0.96233  0  0  0.106424  0  1.029125  0  0  0.110221  0  1.025563  0  0  0.110068  0.10363  0  1.031725  0
H  H29  1  0.51574321  0.95854170  0.28216384  1  0  0.100809  0  0.962265  0  0  0.106494  0  1.029048  0  0  0.110292  0  1.025485  0  0  0.110094  0.103698  0  1.031649  0
H  H30  1  0.92763648  0.01704695  0.60102191  1  0  0.127472  0  0.952197  0  0  0.135662  0  1.01366  0  0  0.139107  0  1.011023  0  0  0.108656  0.133094  0  1.015693  0
H  H31  1  0.07236733  0.98295361  0.39897835  1  0  0.127498  0  0.95218  0  0  0.135679  0  1.013646  0  0  0.139121  0  1.01101  0  0  0.108675  0.13311  0  1.01568  0
H  H32  1  0.84860933  0.16788285  0.52341532  1  0  0.116136  0  0.951221  0  0  0.124451  0  1.01  0  0  0.127354  0  1.009392  0  0  0.110241  0.12234  0  1.010621  0
H  H33  1  0.15138931  0.83211686  0.47658390  1  0  0.116146  0  0.951204  0  0  0.124464  0  1.009979  0  0  0.127366  0  1.009371  0  0  0.110249  0.122353  0  1.010595  0
H  H34  1  0.58820230  0.25078899  0.54739787  1  0  0.100639  0  0.936466  0  0  0.107883  0  1.001299  0  0  0.111161  0  0.99802  0  0  0.126126  0.105541  0  1.003642  0
H  H35  1  0.41179741  0.74920991  0.45260129  1  0  0.100699  0  0.936438  0  0  0.107942  0  1.001274  0  0  0.111219  0  0.997997  0  0  0.126162  0.105601  0  1.003613  0
C  C36  1  0.43673840  0.36926005  0.20715274  1  0  -0.047825  0  3.740415  0  0  -0.032734  0  3.973004  0  0  -0.03674  0  3.991751  0  0  -0.005045  -0.03031  0  3.960695  0
C  C37  1  0.56326433  0.63074132  0.79284908  1  0  -0.047902  0  3.740501  0  0  -0.032797  0  3.973061  0  0  -0.036809  0  3.991816  0  0  -0.005022  -0.030381  0  3.960771  0
C  C38  1  0.56671968  0.43053775  0.18895440  1  0  -0.158357  0  3.684494  0  0  -0.153977  0  3.928398  0  0  -0.159482  0  3.944666  0  0  -0.008951  -0.15038  0  3.917731  0
C  C39  1  0.43328002  0.56946115  0.81104326  1  0  -0.158299  0  3.684523  0  0  -0.153931  0  3.92841  0  0  -0.159433  0  3.944678  0  0  -0.008946  -0.150332  0  3.917755  0
C  C40  1  0.61505525  0.38815053  0.09300141  1  0  0.26167  0  3.759889  0  0  0.2453  0  4.023849  0  0  0.255747  0  4.038301  0  0  0.09209  0.237899  0  4.014242  0
C  C41  1  0.38494088  0.61184918  0.90699441  1  0  0.261769  0  3.759881  0  0  0.245383  0  4.023856  0  0  0.255832  0  4.038307  0  0  0.092102  0.237978  0  4.014256  0
C  C42  1  0.53762368  0.28642620  0.01737121  1  0  -0.16912  0  3.7479  0  0  -0.194402  0  4.004493  0  0  -0.197663  0  4.022387  0  0  -0.097129  -0.192151  0  3.992512  0
C  C43  1  0.46237014  0.71357431  0.98262749  1  0  -0.169198  0  3.747918  0  0  -0.194482  0  4.004522  0  0  -0.19774  0  4.022412  0  0  -0.09722  -0.192229  0  3.992537  0
C  C44  1  0.41253064  0.22499886  0.03861965  1  0  -0.051932  0  3.800352  0  0  -0.063407  0  4.054851  0  0  -0.063427  0  4.073127  0  0  -0.091309  -0.063422  0  4.042523  0
C  C45  1  0.58746533  0.77500002  0.96138118  1  0  -0.051843  0  3.800336  0  0  -0.063305  0  4.054821  0  0  -0.063324  0  4.073094  0  0  -0.091243  -0.063313  0  4.042481  0
C  C46  1  0.36089252  0.26613766  0.13223171  1  0  -0.081238  0  3.727616  0  0  -0.110838  0  3.984093  0  0  -0.111054  0  4.001383  0  0  -0.088394  -0.110659  0  3.972549  0
C  C47  1  0.63910754  0.73386288  0.86776946  1  0  -0.081302  0  3.727601  0  0  -0.110878  0  3.984081  0  0  -0.11109  0  4.001369  0  0  -0.088434  -0.110699  0  3.972545  0
C  C48  1  0.37033428  0.41233811  0.30273408  1  0  0.687439  0  3.848833  0  0  0.642358  0  4.140619  0  0  0.67703  0  4.130264  0  0  0.216301  0.618805  0  4.146675  0
C  C49  1  0.62966720  0.58766325  0.69726680  1  0  0.687442  0  3.848748  0  0  0.64237  0  4.140526  0  0  0.677044  0  4.130174  0  0  0.216289  0.618819  0  4.146581  0
C  C50  1  0.65472132  0.54140546  0.26645761  1  0  0.736684  0  3.840468  0  0  0.67627  0  4.149623  0  0  0.713733  0  4.135548  0  0  0.238721  0.650655  0  4.158516  0
C  C51  1  0.34527839  0.45859344  0.73354155  1  0  0.73665  0  3.840601  0  0  0.676278  0  4.149675  0  0  0.713743  0  4.135594  0  0  0.238748  0.650663  0  4.158566  0
C  C52  1  0.78907298  0.43857056  0.90497709  1  0  0.038565  0  3.687827  0  0  -0.002595  0  3.949994  0  0  0.002615  0  3.965523  0  0  0.040862  -0.005914  0  3.939552  0
C  C53  1  0.21092655  0.56142753  0.09501730  1  0  0.03857  0  3.687694  0  0  -0.00252  0  3.949828  0  0  0.002686  0  3.965357  0  0  0.040891  -0.005842  0  3.939372  0
C  C54  1  0.81661663  0.40648747  0.99865880  1  0  0.208125  0  3.801404  0  0  0.205161  0  4.063185  0  0  0.209117  0  4.081163  0  0  0.084622  0.201983  0  4.051149  0
C  C55  1  0.18337756  0.59350895  0.00133506  1  0  0.208156  0  3.801633  0  0  0.20514  0  4.063447  0  0  0.2091  0  4.081422  0  0  0.084635  0.20197  0  4.0514  0
C  C56  1  0.92640007  0.33079091  0.01429306  1  0  -0.121169  0  3.717231  0  0  -0.148328  0  3.967039  0  0  -0.148356  0  3.986347  0  0  -0.073588  -0.147902  0  3.953858  0
C  C57  1  0.07359286  0.66920551  0.98570210  1  0  -0.121347  0  3.717241  0  0  -0.148459  0  3.967047  0  0  -0.148487  0  3.986352  0  0  -0.073613  -0.148042  0  3.953892  0
C  C58  1  0.00144485  0.28720184  0.93173975  1  0  -0.109495  0  3.760067  0  0  -0.119398  0  4.010067  0  0  -0.12647  0  4.034668  0  0  -0.087981  -0.114856  0  3.993469  0
C  C59  1  0.99855201  0.71279540  0.06825851  1  0  -0.109432  0  3.75995  0  0  -0.119351  0  4.009937  0  0  -0.126429  0  4.034543  0  0  -0.087977  -0.114811  0  3.993348  0
C  C60  1  0.96550411  0.32155962  0.83922098  1  0  0.117594  0  3.714053  0  0  0.083336  0  3.970341  0  0  0.08914  0  3.988951  0  0  0.040535  0.079617  0  3.957733  0
C  C61  1  0.03449792  0.67843847  0.16077756  1  0  0.117547  0  3.714157  0  0  0.083322  0  3.970441  0  0  0.089124  0  3.989048  0  0  0.040477  0.079609  0  3.957826  0
C  C62  1  0.09473155  0.78241959  0.69052098  1  0  -0.051408  0  3.710106  0  0  -0.036145  0  3.940771  0  0  -0.042083  0  3.960627  0  0  -0.002203  -0.032449  0  3.927682  0
C  C63  1  0.90527118  0.21758178  0.30948085  1  0  -0.051428  0  3.710298  0  0  -0.036104  0  3.940972  0  0  -0.042047  0  3.960836  0  0  -0.002242  -0.032417  0  3.92789  0
C  C64  1  0.93624006  0.81601670  0.65944454  1  0  -0.125379  0  3.6714  0  0  -0.120764  0  3.91124  0  0  -0.124661  0  3.927858  0  0  0.001886  -0.11823  0  3.900279  0
C  C65  1  0.06376036  0.18398548  0.34055865  1  0  -0.125404  0  3.671393  0  0  -0.120845  0  3.911338  0  0  -0.124745  0  3.927954  0  0  0.001862  -0.118308  0  3.900374  0
C  C66  1  0.89202378  0.90129328  0.73507401  1  0  0.24755  0  3.757843  0  0  0.230745  0  4.026977  0  0  0.238782  0  4.04277  0  0  0.08815  0.224994  0  4.016463  0
C  C67  1  0.10797753  0.09870726  0.26492887  1  0  0.247516  0  3.75782  0  0  0.230641  0  4.027081  0  0  0.238681  0  4.042873  0  0  0.088063  0.224892  0  4.016561  0
C  C68  1  0.99835535  0.95057333  0.84047991  1  0  -0.144446  0  3.737934  0  0  -0.173215  0  4.000873  0  0  -0.174817  0  4.018559  0  0  -0.08999  -0.171994  0  3.988909  0
C  C69  1  0.00164507  0.04942884  0.15952629  1  0  -0.144379  0  3.737799  0  0  -0.173078  0  4.000761  0  0  -0.174679  0  4.018446  0  0  -0.089918  -0.171868  0  3.988804  0
C  C70  1  0.15502667  0.91640643  0.87031403  1  0  -0.054144  0  3.784025  0  0  -0.069947  0  4.045633  0  0  -0.07205  0  4.066042  0  0  -0.090271  -0.068618  0  4.03181  0
C  C71  1  0.84497198  0.08359327  0.12968970  1  0  -0.054198  0  3.784169  0  0  -0.07001  0  4.045786  0  0  -0.072112  0  4.066193  0  0  -0.090269  -0.068675  0  4.031955  0
C  C72  1  0.20424979  0.83394833  0.79488515  1  0  -0.062501  0  3.713779  0  0  -0.090951  0  3.966839  0  0  -0.090522  0  3.986829  0  0  -0.080038  -0.09112  0  3.953396  0
C  C73  1  0.79575046  0.16605303  0.20511854  1  0  -0.062579  0  3.714093  0  0  -0.091036  0  3.967161  0  0  -0.090605  0  3.987146  0  0  -0.080127  -0.091201  0  3.953707  0
C  C74  1  0.14328895  0.68657247  0.61618983  1  0  0.6965  0  3.857617  0  0  0.650008  0  4.152807  0  0  0.68524  0  4.142197  0  0  0.222927  0.626078  0  4.15904  0
C  C75  1  0.85671413  0.31343054  0.38381251  1  0  0.696579  0  3.857489  0  0  0.649983  0  4.152816  0  0  0.685221  0  4.142203  0  0  0.222983  0.626052  0  4.159054  0
C  C76  1  0.81817764  0.76982887  0.54534045  1  0  0.707374  0  3.860686  0  0  0.647815  0  4.17102  0  0  0.684567  0  4.158484  0  0  0.229148  0.622753  0  4.178674  0
C  C77  1  0.18182527  0.23017332  0.45466162  1  0  0.707339  0  3.860416  0  0  0.647805  0  4.170723  0  0  0.684564  0  4.158167  0  0  0.22918  0.622746  0  4.178373  0
C  C78  1  0.56837983  0.06756970  0.67542897  1  0  0.007861  0  3.69612  0  0  -0.031617  0  3.945359  0  0  -0.027462  0  3.962713  0  0  0.030736  -0.034114  0  3.933577  0
C  C79  1  0.43162005  0.93243002  0.32457045  1  0  0.007818  0  3.696185  0  0  -0.031679  0  3.94543  0  0  -0.027525  0  3.962784  0  0  0.030712  -0.034168  0  3.933645  0
C  C80  1  0.71029355  0.01751651  0.66446410  1  0  0.230666  0  3.790811  0  0  0.226131  0  4.051899  0  0  0.230936  0  4.069999  0  0  0.089675  0.222275  0  4.039796  0
C  C81  1  0.28970883  0.98248322  0.33553721  1  0  0.230614  0  3.790875  0  0  0.226091  0  4.051937  0  0  0.230899  0  4.070034  0  0  0.089679  0.22223  0  4.039839  0
C  C82  1  0.81472146  0.05338783  0.60962391  1  0  -0.116635  0  3.695572  0  0  -0.147508  0  3.950227  0  0  -0.146612  0  3.967875  0  0  -0.076495  -0.147772  0  3.938406  0
C  C83  1  0.18527842  0.94661189  0.39037551  1  0  -0.116652  0  3.695562  0  0  -0.147523  0  3.950222  0  0  -0.146624  0  3.967865  0  0  -0.076509  -0.147791  0  3.938405  0
C  C84  1  0.76990999  0.13775443  0.56639459  1  0  -0.078952  0  3.714066  0  0  -0.087814  0  3.96809  0  0  -0.093246  0  3.988027  0  0  -0.075627  -0.084411  0  3.954801  0
C  C85  1  0.23008972  0.86224448  0.43360382  1  0  -0.078926  0  3.71401  0  0  -0.08778  0  3.968023  0  0  -0.09321  0  3.987959  0  0  -0.075605  -0.084368  0  3.954723  0
C  C86  1  0.62668048  0.18466243  0.57981247  1  0  0.120143  0  3.669554  0  0  0.079211  0  3.929509  0  0  0.086722  0  3.946109  0  0  0.041943  0.073817  0  3.919156  0
C  C87  1  0.37331923  0.81533648  0.42018594  1  0  0.120096  0  3.669553  0  0  0.07917  0  3.929512  0  0  0.08668  0  3.946111  0  0  0.041894  0.073765  0  3.919177  0
N  N88  1  0.86289638  0.39648450  0.82614964  1  0  -0.291011  0  3.174155  0  0  -0.228106  0  3.424876  0  0  -0.241984  0  3.441418  0  0  -0.304464  -0.218697  0  3.413597  0
N  N89  1  0.13710689  0.60351360  0.17384534  1  0  -0.290977  0  3.173978  0  0  -0.228148  0  3.424739  0  0  -0.242025  0  3.44128  0  0  -0.304444  -0.218738  0  3.41345  0
N  N90  1  0.52880004  0.14994284  0.63442588  1  0  -0.321655  0  3.363056  0  0  -0.233275  0  3.641423  0  0  -0.252838  0  3.658696  0  0  -0.334695  -0.220004  0  3.629497  0
N  N91  1  0.47119984  0.85005688  0.36557354  1  0  -0.321686  0  3.363068  0  0  -0.233327  0  3.641466  0  0  -0.252888  0  3.658739  0  0  -0.334702  -0.220059  0  3.629546  0
Cl  Cl92  1  0.77299453  0.87441805  0.23869217  1  0  -0.582264  0  0.967216  0  0  -0.518235  0  1.250557  0  0  -0.537017  0  1.227097  0  0  -0.29237  -0.50462  0  1.266595  0
Cl  Cl93  1  0.22700663  0.12557593  0.76130584  1  0  -0.58227  0  0.967217  0  0  -0.518251  0  1.250583  0  0  -0.537035  0  1.227123  0  0  -0.292382  -0.50464  0  1.266617  0
O  O94  1  0.21976112  0.38137267  0.29602920  1  0  -0.637167  0  1.986751  0  0  -0.599314  0  2.218647  0  0  -0.623272  0  2.211696  0  0  -0.339565  -0.582491  0  2.223053  0
O  O95  1  0.78024144  0.61862788  0.70397162  1  0  -0.637213  0  1.986706  0  0  -0.599362  0  2.218581  0  0  -0.623327  0  2.211627  0  0  -0.339602  -0.582538  0  2.222994  0
O  O96  1  0.46630418  0.48355729  0.39264308  1  0  -0.806145  0  2.071574  0  0  -0.76038  0  2.320428  0  0  -0.78757  0  2.310059  0  0  -0.43208  -0.740382  0  2.326732  0
O  O97  1  0.53369713  0.51644325  0.60735829  1  0  -0.806075  0  2.071531  0  0  -0.760316  0  2.320383  0  0  -0.787503  0  2.310014  0  0  -0.43203  -0.740311  0  2.326682  0
O  O98  1  0.78202476  0.54394308  0.34457204  1  0  -0.727988  0  2.085459  0  0  -0.677882  0  2.330787  0  0  -0.704227  0  2.318621  0  0  -0.366139  -0.658854  0  2.338512  0
O  O99  1  0.21797762  0.45605665  0.65542701  1  0  -0.727893  0  2.085498  0  0  -0.677808  0  2.330806  0  0  -0.704141  0  2.318639  0  0  -0.36612  -0.658789  0  2.338546  0
O  O100  1  0.59694058  0.62438001  0.24557532  1  0  -0.592119  0  2.04822  0  0  -0.522542  0  2.323745  0  0  -0.550519  0  2.306122  0  0  -0.294377  -0.503161  0  2.335381  0
O  O101  1  0.40306198  0.37562054  0.75442624  1  0  -0.592146  0  2.048282  0  0  -0.522571  0  2.323772  0  0  -0.55055  0  2.306149  0  0  -0.294379  -0.503185  0  2.335403  0
O  O102  1  0.73806913  0.45481753  0.07757501  1  0  -0.282595  0  2.343225  0  0  -0.217016  0  2.566406  0  0  -0.233876  0  2.569566  0  0  -0.151354  -0.204913  0  2.563933  0
O  O103  1  0.26192057  0.54518134  0.92241733  1  0  -0.282668  0  2.343229  0  0  -0.217064  0  2.566425  0  0  -0.233933  0  2.569595  0  0  -0.151339  -0.204954  0  2.563946  0
O  O104  1  0.29408544  0.68122611  0.61390656  1  0  -0.645753  0  1.940677  0  0  -0.609684  0  2.169921  0  0  -0.633797  0  2.161717  0  0  -0.346455  -0.592619  0  2.175105  0
O  O105  1  0.70591532  0.31877771  0.38609639  1  0  -0.645737  0  1.940613  0  0  -0.609627  0  2.169896  0  0  -0.63375  0  2.161685  0  0  -0.346436  -0.59256  0  2.175082  0
O  O106  1  0.02618780  0.60580083  0.55526156  1  0  -0.797565  0  2.165822  0  0  -0.750254  0  2.422573  0  0  -0.777751  0  2.411845  0  0  -0.432433  -0.730196  0  2.429229  0
O  O107  1  0.97381438  0.39420383  0.44473959  1  0  -0.797616  0  2.165958  0  0  -0.750275  0  2.422762  0  0  -0.777772  0  2.412037  0  0  -0.432462  -0.730218  0  2.429418  0
O  O108  1  0.69779937  0.69366014  0.52161957  1  0  -0.687334  0  2.030189  0  0  -0.649001  0  2.283592  0  0  -0.674233  0  2.271999  0  0  -0.367236  -0.630694  0  2.290838  0
O  O109  1  0.30220479  0.30634206  0.47838196  1  0  -0.687339  0  2.030087  0  0  -0.648995  0  2.283462  0  0  -0.674221  0  2.271864  0  0  -0.367251  -0.630697  0  2.290709  0
O  O110  1  0.84935388  0.81704696  0.47841915  1  0  -0.604022  0  2.047214  0  0  -0.528675  0  2.315964  0  0  -0.557878  0  2.300477  0  0  -0.296477  -0.508319  0  2.326017  0
O  O111  1  0.15064921  0.18295605  0.52158394  1  0  -0.603996  0  2.047065  0  0  -0.528637  0  2.315788  0  0  -0.557842  0  2.300299  0  0  -0.296464  -0.508282  0  2.325834  0
O  O112  1  0.73226225  0.93255592  0.70812946  1  0  -0.291546  0  2.330681  0  0  -0.223981  0  2.550933  0  0  -0.240617  0  2.553034  0  0  -0.154932  -0.212  0  2.549204  0
O  O113  1  0.26773959  0.06744709  0.29187418  1  0  -0.291463  0  2.33064  0  0  -0.223862  0  2.550889  0  0  -0.240505  0  2.552995  0  0  -0.154888  -0.21188  0  2.549159  0
O  O114  1  0.87473998  0.41143624  0.63064233  1  0  -0.909464  0  1.920194  0  0  -0.866563  0  2.120747  0  0  -0.887706  0  2.090165  0  0  -0.647205  -0.850938  0  2.141973  0
O  O115  1  0.12526275  0.58856513  0.36935724  1  0  -0.909518  0  1.920105  0  0  -0.866649  0  2.120683  0  0  -0.887772  0  2.090087  0  0  -0.647233  -0.851031  0  2.141908  0
