# generated using pymatgen
data_NiH12(CO2)4
_symmetry_space_group_name_H-M   'P 1'
_cell_length_a   7.39471311
_cell_length_b   7.63651539
_cell_length_c   14.17060039
_cell_angle_alpha   89.98462070
_cell_angle_beta   90.00859534
_cell_angle_gamma   98.74588951
_symmetry_Int_Tables_number   1
_chemical_formula_structural   NiH12(CO2)4
_chemical_formula_sum   'Ni4 H48 C16 O32'
_cell_volume   790.90698743
_cell_formula_units_Z   4
loop_
 _symmetry_equiv_pos_site_id
 _symmetry_equiv_pos_as_xyz
  1  'x, y, z'
loop_
 _atom_site_type_symbol
 _atom_site_label
 _atom_site_symmetry_multiplicity
 _atom_site_fract_x
 _atom_site_fract_y
 _atom_site_fract_z
 _atom_site_occupancy
 _atom_site_hle17_ddec_charge
 _atom_site_hle17_ddec_spin_density
 _atom_site_hle17_ddec_sum_bond_order
 _atom_site_hle17_magmom
 _atom_site_hse06_10hf_ddec_charge
 _atom_site_hse06_10hf_ddec_spin_density
 _atom_site_hse06_10hf_ddec_sum_bond_order
 _atom_site_hse06_10hf_magmom
 _atom_site_hse06_ddec_charge
 _atom_site_hse06_ddec_spin_density
 _atom_site_hse06_ddec_sum_bond_order
 _atom_site_hse06_magmom
 _atom_site_pbe_cm5_charge
 _atom_site_pbe_ddec_charge
 _atom_site_pbe_ddec_spin_density
 _atom_site_pbe_ddec_sum_bond_order
 _atom_site_pbe_magmom
Ni  Ni0  1  0.07739840  0.81169489  0.64326058  1  0.997774  0.029648  1.777484  0.037  1.015292  0.004093  2.158682  0.012  1.103354  -0.005969  2.089483  0.004  0.592326  0.940224  0.013912  2.224529  0.02
Ni  Ni1  1  0.92330466  0.68836451  0.14348087  1  1.04348  -1.974794  1.763222  -1.556  1.050872  -2.003186  2.144763  -1.677  1.129426  -2.054195  2.082399  -1.752  0.615123  0.981758  -1.95128  2.203003  -1.61
Ni  Ni2  1  0.92315806  0.18819097  0.35658052  1  1.043925  1.863939  1.764238  1.557  1.051589  1.916839  2.145604  1.677  1.13005  1.965664  2.083202  1.752  0.615592  0.982842  1.86925  2.203569  1.611
Ni  Ni3  1  0.07665685  0.31164357  0.85646182  1  1.043316  1.863582  1.764044  1.556  1.050968  1.916653  2.145497  1.677  1.129451  1.965517  2.083131  1.752  0.615253  0.981914  1.868917  2.203879  1.611
H  H4  1  0.73872144  0.26928332  0.69568592  1  0.115011  0.000281  0.950201  0.0  0.127226  3.6e-05  1.014831  0.0  0.130076  8e-06  1.013624  0.0  0.105431  0.12505  5.3e-05  1.016053  0.0
H  H5  1  0.26166598  0.23067597  0.19604189  1  0.11528  -2.4e-05  0.949216  0.0  0.127029  -0.000193  1.013833  0.0  0.129864  -0.00016  1.012731  0.0  0.105441  0.124866  -0.000223  1.01498  0.0
H  H6  1  0.26143093  0.73070977  0.30408389  1  0.114996  2e-05  0.94936  0.0  0.126975  0.000222  1.014017  0.0  0.129851  0.000182  1.012855  0.0  0.105196  0.124776  0.000262  1.015195  0.0
H  H7  1  0.73845835  0.76950574  0.80395584  1  0.115735  -8.7e-05  0.948578  0.0  0.127409  0.000103  1.013379  0.0  0.130214  7.8e-05  1.012326  0.0  0.105592  0.125272  0.000127  1.01445  0.0
H  H8  1  0.55489820  0.38833234  0.70656751  1  0.110347  0.000247  0.948496  0.0  0.123741  6.4e-05  1.008437  0.0  0.126888  5.3e-05  1.006625  0.0  0.100327  0.121268  6e-05  1.010212  0.0
H  H9  1  0.44600142  0.11210290  0.20624478  1  0.110559  0.000171  0.947343  0.0  0.123614  -4.9e-05  1.007321  0.0  0.126783  -2.8e-05  1.005524  0.0  0.100363  0.121205  -7.4e-05  1.008971  0.0
H  H10  1  0.44578723  0.61218117  0.29365533  1  0.11042  -0.000188  0.947632  0.0  0.12363  4.1e-05  1.007635  0.0  0.126817  2.2e-05  1.005825  0.0  0.100298  0.121215  6.6e-05  1.009266  0.0
H  H11  1  0.55415413  0.88816873  0.79384045  1  0.110314  -0.000199  0.947707  0.0  0.123486  2e-06  1.007778  0.0  0.126633  -9e-06  1.006004  0.0  0.100391  0.121083  1.9e-05  1.009406  0.0
H  H12  1  0.64295455  0.18914499  0.52862697  1  0.106865  -0.000772  0.970096  -0.001  0.119432  -0.000683  1.034152  -0.001  0.120775  -0.000487  1.034336  -0.001  0.103971  0.118513  -0.000875  1.034078  -0.001
H  H13  1  0.35576102  0.31152936  0.02885446  1  0.107235  -0.000804  0.970668  -0.001  0.119476  -0.000678  1.03476  -0.001  0.120904  -0.000492  1.034881  0.0  0.103748  0.118516  -0.000871  1.034699  -0.001
H  H14  1  0.35586720  0.81110846  0.47127684  1  0.107236  0.000559  0.970457  0.001  0.119522  0.000466  1.034723  0.001  0.120933  0.000308  1.034912  0.0  0.103863  0.118596  0.000633  1.034614  0.001
H  H15  1  0.64432464  0.68815249  0.97108120  1  0.107202  0.000764  0.970753  0.001  0.119246  0.000646  1.035041  0.001  0.120682  0.00047  1.035169  0.0  0.103717  0.11827  0.000829  1.034995  0.001
H  H16  1  0.44810698  0.29751142  0.54233514  1  0.115925  0.00028  0.955325  0.0  0.124379  6.1e-05  1.021925  0.0  0.127834  5.4e-05  1.019628  0.0  0.098788  0.121796  6.1e-05  1.023899  0.0
H  H17  1  0.55105774  0.20367795  0.04189743  1  0.115544  0.000198  0.953922  0.0  0.123716  1e-05  1.020541  0.0  0.127122  1.6e-05  1.018327  0.0  0.09872  0.121188  0.0  1.022408  0.0
H  H18  1  0.55115978  0.70321284  0.45804569  1  0.115162  -0.000192  0.954026  0.0  0.123649  -0.0  1.020494  0.0  0.127086  -6e-06  1.01829  0.0  0.098461  0.1211  9e-06  1.02241  0.0
H  H19  1  0.44909596  0.79619299  0.95815466  1  0.115402  -0.0002  0.954206  0.0  0.123697  2.8e-05  1.020661  0.0  0.127118  1.4e-05  1.018421  0.0  0.098808  0.121116  4.8e-05  1.022603  0.0
H  H20  1  0.27399560  0.58710299  0.56720922  1  0.428697  -0.000175  0.873611  -0.001  0.397091  7.8e-05  0.941258  0.0  0.408857  3.9e-05  0.92452  0.0  0.297731  0.38859  0.000105  0.95329  0.0
H  H21  1  0.72762857  0.91190371  0.06711185  1  0.429077  0.000123  0.873211  0.001  0.397367  -0.000184  0.940697  0.0  0.408954  -7.1e-05  0.92422  0.0  0.29764  0.388958  -0.000286  0.952595  0.0
H  H22  1  0.72767556  0.41186762  0.43279148  1  0.428813  -0.000188  0.873104  -0.001  0.397158  0.000155  0.940753  0.0  0.408764  5.2e-05  0.924236  0.0  0.297722  0.388744  0.000251  0.952662  0.0
H  H23  1  0.27235779  0.08765303  0.93268762  1  0.428855  -0.000155  0.87372  -0.001  0.397252  0.000217  0.940687  0.0  0.40887  9.7e-05  0.924157  0.0  0.297596  0.388834  0.000331  0.952602  0.0
H  H24  1  0.38655753  0.73211581  0.63729019  1  0.419258  -0.000414  0.888486  -0.001  0.383685  -9.7e-05  0.960584  0.0  0.395788  -9.1e-05  0.943258  0.0  0.291812  0.375179  -0.000104  0.972657  0.0
H  H25  1  0.61416842  0.76718993  0.13720201  1  0.420123  0.000408  0.88676  0.001  0.384398  1.8e-05  0.959344  0.0  0.396468  0.00013  0.942096  0.001  0.291928  0.375902  -0.000108  0.971375  0.0
H  H26  1  0.61406289  0.26713912  0.36283041  1  0.420037  -0.000467  0.886647  -0.001  0.384316  -5.6e-05  0.959406  0.0  0.396398  -0.000159  0.942135  -0.001  0.291926  0.375785  6.4e-05  0.971494  0.0
H  H27  1  0.38562165  0.23245485  0.86267507  1  0.419768  -0.000462  0.886897  -0.001  0.384005  -3.6e-05  0.959834  0.0  0.396079  -0.000147  0.94257  0.0  0.291673  0.375505  9.3e-05  0.971879  0.0
H  H28  1  0.88424187  0.03294809  0.71638144  1  0.422496  -0.000161  0.877548  -0.001  0.393187  7.4e-05  0.947041  0.0  0.40471  -6e-06  0.930788  0.0  0.297253  0.384893  0.000154  0.95864  0.0
H  H29  1  0.11539326  0.46744625  0.21678209  1  0.422734  0.000305  0.878006  0.001  0.393284  -7e-06  0.947056  0.0  0.40474  3.5e-05  0.93089  0.0  0.296917  0.385012  -3.2e-05  0.958623  0.0
H  H30  1  0.11534587  0.96732484  0.28351817  1  0.423765  -0.000351  0.876525  -0.001  0.394453  -1.3e-05  0.945344  0.0  0.405932  -5e-05  0.92912  0.0  0.297536  0.386191  1.2e-05  0.956906  0.0
H  H31  1  0.88466863  0.53270152  0.78329397  1  0.422525  -0.000297  0.878042  -0.001  0.393139  -4e-05  0.94717  0.0  0.40463  -5.8e-05  0.930962  0.0  0.297294  0.384862  -3.2e-05  0.958729  0.0
H  H32  1  0.75162321  0.94364707  0.63646190  1  0.426585  0.000172  0.867374  0.0  0.397314  0.000115  0.933281  0.0  0.409634  8e-05  0.915814  0.0  0.298425  0.388373  0.000128  0.945857  0.0
H  H33  1  0.24741468  0.55728143  0.13659758  1  0.427665  -0.000192  0.866614  0.0  0.398129  -0.000448  0.932199  -0.001  0.410222  -0.000317  0.915018  0.0  0.29862  0.389296  -0.000556  0.944649  -0.001
H  H34  1  0.24731401  0.05716124  0.36362324  1  0.427688  0.000147  0.866425  0.0  0.398172  0.000421  0.932059  0.001  0.410262  0.000295  0.914886  0.0  0.298635  0.389323  0.000531  0.944537  0.001
H  H35  1  0.75250911  0.44276813  0.86337757  1  0.427401  0.000147  0.866482  0.0  0.397776  0.00042  0.932499  0.001  0.409863  0.000297  0.915331  0.0  0.298456  0.388946  0.000523  0.944948  0.001
H  H36  1  0.18518039  0.72841537  0.81631178  1  0.426688  9e-06  0.863715  0.0  0.402696  0.000586  0.922589  0.001  0.414059  0.000396  0.906421  0.001  0.300434  0.394203  0.000771  0.934625  0.001
H  H37  1  0.81523076  0.77165656  0.31757656  1  0.426565  -0.000348  0.865455  0.0  0.402953  -0.000533  0.922558  -0.001  0.414106  -0.000416  0.906628  -0.001  0.299717  0.394582  -0.000614  0.934471  -0.001
H  H38  1  0.81487183  0.27155365  0.18252369  1  0.426149  0.000321  0.86615  0.0  0.402609  0.000573  0.922988  0.001  0.41373  0.00045  0.907114  0.001  0.299719  0.394268  0.000663  0.934843  0.001
H  H39  1  0.18407524  0.22799660  0.68257642  1  0.425688  0.000331  0.866393  0.0  0.402383  0.000576  0.923461  0.001  0.413532  0.000459  0.907539  0.001  0.299943  0.394024  0.000666  0.935328  0.001
H  H40  1  0.19345301  0.93940368  0.80852029  1  0.43034  1.7e-05  0.865706  0.0  0.404568  0.000295  0.9232  0.0  0.415914  0.00015  0.906854  0.0  0.297005  0.396207  0.000433  0.935164  0.001
H  H41  1  0.80645609  0.56067929  0.30937507  1  0.431534  -0.000153  0.865775  0.0  0.405796  -0.000311  0.922061  0.0  0.416929  -0.000203  0.905961  0.0  0.297432  0.397573  -0.000404  0.933873  0.0
H  H42  1  0.80621091  0.06060469  0.19058333  1  0.431662  0.00012  0.865648  0.0  0.406022  0.000302  0.921794  0.0  0.417137  0.000199  0.905713  0.0  0.297374  0.397801  0.000394  0.933601  0.001
H  H43  1  0.19402275  0.43906524  0.69069469  1  0.431175  -1.7e-05  0.866545  0.0  0.405168  0.000317  0.92333  0.0  0.416326  0.000177  0.907192  0.0  0.296796  0.396943  0.000446  0.935144  0.0
H  H44  1  0.04701826  0.87390188  0.45083743  1  0.435647  -0.00031  0.854903  0.0  0.411284  0.000742  0.911858  0.002  0.42284  0.000561  0.89519  0.001  0.300007  0.402637  0.000907  0.924259  0.002
H  H45  1  0.95310239  0.62658897  0.94964649  1  0.435997  -0.001201  0.857187  -0.002  0.411461  -0.001204  0.912349  -0.002  0.422725  -0.000965  0.89604  -0.002  0.298975  0.40302  -0.001389  0.924481  -0.002
H  H46  1  0.95151926  0.12709551  0.55076137  1  0.436788  0.000849  0.8563  0.002  0.412384  0.001058  0.911264  0.002  0.423596  0.000817  0.895043  0.002  0.29935  0.403982  0.001262  0.923318  0.002
H  H47  1  0.04740070  0.37352024  0.05038795  1  0.435898  0.001157  0.856836  0.002  0.411625  0.001204  0.911946  0.002  0.422829  0.000966  0.89572  0.002  0.299171  0.403236  0.001395  0.924006  0.002
H  H48  1  0.92163763  0.69959905  0.49688633  1  0.419891  -0.000257  0.888397  0.0  0.386033  -7.1e-05  0.957279  0.0  0.398948  -0.00013  0.938681  0.0  0.292691  0.376788  -1e-05  0.970529  0.0
H  H49  1  0.07906525  0.79990401  0.99610400  1  0.418517  0.000183  0.890418  0.001  0.385055  -0.0  0.958541  0.0  0.397811  0.000102  0.940091  0.0  0.291722  0.375879  -9.8e-05  0.971749  0.0
H  H50  1  0.07849807  0.29960311  0.50403238  1  0.420013  -0.000179  0.888395  -0.001  0.386587  0.000141  0.956597  0.0  0.399328  -1e-06  0.938162  0.0  0.292133  0.377433  0.000288  0.969771  0.0
H  H51  1  0.92146837  0.20016112  0.00400172  1  0.419646  -0.000175  0.888958  -0.001  0.386309  0.00015  0.956992  0.0  0.39903  6e-06  0.93859  0.0  0.29212  0.377177  0.000297  0.970129  0.0
C  C52  1  0.76622942  0.50409239  0.61408366  1  0.73633  0.000461  3.740545  0.002  0.6875  -0.001051  4.042324  0.0  0.724759  -0.000636  4.03299  0.0  0.232626  0.661363  -0.001498  4.047764  0.0
C  C53  1  0.23411923  0.99625738  0.11412107  1  0.736423  0.00161  3.743773  0.004  0.687731  -0.000244  4.045238  0.001  0.724581  -0.000128  4.035725  0.001  0.23159  0.661861  -0.00033  4.050889  0.001
C  C54  1  0.23410367  0.49597066  0.38580047  1  0.738587  -0.001909  3.741107  -0.004  0.688892  0.000218  4.044181  -0.001  0.725759  9.1e-05  4.034589  -0.001  0.231988  0.662985  0.000331  4.049905  -0.001
C  C55  1  0.76607366  0.00374321  0.88599522  1  0.738267  -0.001922  3.742639  -0.004  0.688791  0.00014  4.045282  -0.001  0.725602  3.9e-05  4.03579  -0.001  0.232324  0.662931  0.000222  4.050913  -0.001
C  C56  1  0.64784677  0.34180594  0.65488043  1  -0.248579  -0.003564  3.656387  -0.004  -0.287595  -0.0028  3.90517  -0.003  -0.29344  -0.001908  3.91132  -0.002  -0.167834  -0.283605  -0.003629  3.901698  -0.004
C  C57  1  0.35235444  0.15856313  0.15487481  1  -0.248815  -0.004764  3.657345  -0.005  -0.286586  -0.002728  3.90426  -0.003  -0.292492  -0.001873  3.910557  -0.002  -0.167863  -0.282567  -0.003575  3.900602  -0.004
C  C58  1  0.35223907  0.65844512  0.34512505  1  -0.248799  0.004554  3.655425  0.005  -0.286898  0.002713  3.90374  0.003  -0.2928  0.001861  3.910054  0.002  -0.167765  -0.282798  0.003566  3.90002  0.004
C  C59  1  0.64777420  0.84153891  0.84517162  1  -0.24968  0.004485  3.656984  0.005  -0.287739  0.00256  3.905042  0.003  -0.293634  0.001743  3.911311  0.002  -0.168414  -0.283677  0.003378  3.901299  0.004
C  C60  1  0.54321692  0.22468922  0.57950231  1  -0.268014  -0.006664  3.695396  -0.008  -0.310557  -0.003802  3.948085  -0.005  -0.316573  -0.002595  3.955876  -0.003  -0.179383  -0.30628  -0.004878  3.943085  -0.006
C  C61  1  0.45611800  0.27616255  0.07941732  1  -0.267188  -0.006357  3.696482  -0.008  -0.309782  -0.003706  3.948885  -0.004  -0.315441  -0.002524  3.956315  -0.003  -0.179459  -0.305749  -0.004904  3.94409  -0.006
C  C62  1  0.45614049  0.77583258  0.42064284  1  -0.267691  0.005962  3.695393  0.007  -0.310576  0.003497  3.948779  0.004  -0.316374  0.002362  3.956368  0.003  -0.17957  -0.306523  0.004657  3.94388  0.006
C  C63  1  0.54398379  0.72375400  0.92057055  1  -0.2673  0.006018  3.695831  0.008  -0.309638  0.003606  3.948601  0.004  -0.315248  0.002457  3.955903  0.003  -0.179487  -0.305617  0.004779  3.943865  0.006
C  C64  1  0.43810638  0.05255136  0.61631957  1  0.723759  0.000838  3.756372  0.003  0.675768  -0.001351  4.064003  0.0  0.712154  -0.000774  4.055539  0.0  0.226909  0.650144  -0.00203  4.068742  -0.001
C  C65  1  0.56136151  0.44796735  0.11634149  1  0.723139  0.001824  3.762175  0.004  0.674879  -0.000358  4.068875  0.001  0.710644  -0.000164  4.06036  0.001  0.225552  0.649701  -0.000573  4.073721  0.001
C  C66  1  0.56136771  0.94772920  0.38377762  1  0.723469  -0.002157  3.760844  -0.004  0.675393  0.000214  4.067913  -0.001  0.711284  5.8e-05  4.059251  -0.001  0.225638  0.650141  0.000395  4.072891  -0.001
C  C67  1  0.43859402  0.55207795  0.88354050  1  0.723943  -0.002153  3.761008  -0.004  0.67552  0.000238  4.068068  -0.001  0.711276  6.7e-05  4.059534  -0.001  0.225497  0.650368  0.000441  4.07292  -0.001
O  O68  1  0.87319263  0.59839315  0.67253339  1  -0.63783  -0.047328  2.095006  -0.067  -0.595198  -0.034311  2.357615  -0.051  -0.635035  -0.026973  2.347606  -0.041  -0.305118  -0.564512  -0.039667  2.363834  -0.058
O  O69  1  0.12712397  0.90192941  0.17252454  1  -0.644992  -0.04859  2.096493  -0.073  -0.603405  -0.030736  2.360848  -0.047  -0.640993  -0.023735  2.350208  -0.037  -0.309089  -0.574208  -0.036768  2.367251  -0.055
O  O70  1  0.12695705  0.40181090  0.32737471  1  -0.645648  0.045489  2.096762  0.073  -0.603136  0.029192  2.360958  0.047  -0.640596  0.022483  2.350245  0.037  -0.308935  -0.574033  0.035019  2.367446  0.055
O  O71  1  0.87308690  0.09800866  0.82758400  1  -0.644988  0.046024  2.096646  0.074  -0.603379  0.029424  2.361684  0.048  -0.640932  0.022569  2.351048  0.037  -0.309074  -0.574131  0.03542  2.368101  0.056
O  O72  1  0.75568339  0.54270011  0.52746872  1  -0.621406  0.000328  2.023747  0.001  -0.549407  -5.7e-05  2.233413  0.0  -0.576534  6.9e-05  2.222444  0.0  -0.296301  -0.530697  -0.000189  2.240998  0.0
O  O73  1  0.24488907  0.95762336  0.02752741  1  -0.621996  0.000482  2.023108  0.0  -0.550436  0.000522  2.232613  0.0  -0.577423  0.000536  2.221582  0.001  -0.297091  -0.53176  0.000498  2.240186  0.0
O  O74  1  0.24500451  0.45717923  0.47235404  1  -0.623369  -0.000109  2.023581  0.0  -0.551437  -0.000142  2.233989  0.0  -0.578491  -0.000335  2.223013  0.0  -0.297056  -0.53272  9.5e-05  2.241549  0.0
O  O75  1  0.75534039  0.04234506  0.97258748  1  -0.623278  -0.000413  2.022903  0.0  -0.550743  -0.000418  2.232331  0.0  -0.577641  -0.00047  2.22127  -0.001  -0.297417  -0.532104  -0.000338  2.239897  0.0
O  O76  1  0.26476505  0.04435807  0.62774427  1  -0.635107  -0.053121  2.063111  -0.076  -0.594674  -0.034478  2.322903  -0.051  -0.633309  -0.026892  2.312111  -0.04  -0.306119  -0.564691  -0.040031  2.329838  -0.058
O  O77  1  0.73450115  0.45580808  0.12805487  1  -0.642964  -0.050484  2.065006  -0.076  -0.602226  -0.031221  2.325055  -0.048  -0.638243  -0.023805  2.313692  -0.037  -0.310202  -0.573949  -0.037793  2.332134  -0.057
O  O78  1  0.73452097  0.95561380  0.37206220  1  -0.642841  0.047414  2.064369  0.076  -0.602483  0.029811  2.325077  0.048  -0.638511  0.022664  2.313558  0.038  -0.310242  -0.574278  0.036206  2.332281  0.057
O  O79  1  0.26554612  0.54452835  0.87154625  1  -0.64396  0.047516  2.063608  0.076  -0.603046  0.030286  2.323694  0.049  -0.639051  0.022923  2.312282  0.038  -0.310273  -0.574834  0.036965  2.330868  0.058
O  O80  1  0.52239231  0.92131216  0.63125857  1  -0.638036  0.000397  2.010403  0.001  -0.568739  -0.00028  2.222708  0.0  -0.596731  -6.1e-05  2.213009  0.0  -0.302106  -0.54921  -0.000549  2.229074  -0.001
O  O81  1  0.47717252  0.57941095  0.13121353  1  -0.638351  -0.000971  2.011129  -0.002  -0.568138  -0.000557  2.22198  -0.001  -0.595842  -0.000115  2.21238  -0.001  -0.302259  -0.548919  -0.001113  2.228408  -0.002
O  O82  1  0.47712816  0.07917361  0.36897340  1  -0.638488  0.000843  2.009869  0.002  -0.56859  0.000484  2.221128  0.001  -0.596332  6.4e-05  2.211463  0.001  -0.302407  -0.549257  0.00102  2.227511  0.002
O  O83  1  0.52268525  0.42052643  0.86875598  1  -0.638588  0.00095  2.010403  0.002  -0.568198  0.000589  2.221271  0.001  -0.595913  0.000126  2.211661  0.001  -0.302218  -0.548965  0.001188  2.227699  0.002
O  O84  1  0.27639574  0.63615458  0.63310914  1  -0.823199  0.046208  1.961772  0.068  -0.787238  0.008853  2.170676  0.013  -0.818306  0.007053  2.136116  0.011  -0.561772  -0.763  0.009234  2.195402  0.014
O  O85  1  0.72537752  0.86222795  0.13293893  1  -0.829381  -0.045158  1.966762  -0.065  -0.791607  -0.031263  2.177179  -0.045  -0.821914  -0.024505  2.143069  -0.036  -0.562622  -0.767578  -0.037047  2.201234  -0.052
O  O86  1  0.72520342  0.36226203  0.36700027  1  -0.828867  0.042201  1.966767  0.065  -0.790855  0.029698  2.177221  0.045  -0.821031  0.02322  2.142909  0.036  -0.562558  -0.766959  0.035303  2.201425  0.052
O  O87  1  0.27452022  0.13731634  0.86687182  1  -0.828629  0.042313  1.966454  0.065  -0.790675  0.030148  2.176467  0.046  -0.820844  0.023486  2.142099  0.036  -0.562073  -0.766773  0.03597  2.200746  0.053
O  O88  1  0.88449503  0.98596202  0.64989085  1  -0.816378  0.043922  1.995064  0.065  -0.781627  0.005577  2.215956  0.008  -0.812752  0.004353  2.180446  0.007  -0.560482  -0.757008  0.005671  2.241612  0.008
O  O89  1  0.11463808  0.51498839  0.15032415  1  -0.822442  -0.042174  2.000893  -0.061  -0.78615  -0.029931  2.221855  -0.044  -0.81632  -0.023766  2.186781  -0.036  -0.561602  -0.761889  -0.035092  2.246854  -0.05
O  O90  1  0.11454585  0.01493297  0.34990002  1  -0.822901  0.040183  1.999074  0.062  -0.787188  0.029614  2.220422  0.046  -0.817181  0.023293  2.184871  0.037  -0.56231  -0.763029  0.035098  2.245594  0.053
O  O91  1  0.88531769  0.48498523  0.84967359  1  -0.821731  0.039352  2.001081  0.061  -0.785481  0.028381  2.222519  0.044  -0.815688  0.022477  2.187355  0.036  -0.56126  -0.761193  0.03339  2.247598  0.05
O  O92  1  0.12668924  0.82364493  0.78676384  1  -0.799291  -0.005299  1.938717  -0.007  -0.770701  0.023672  2.146803  0.035  -0.799677  0.019364  2.11186  0.029  -0.574171  -0.747644  0.027838  2.172971  0.04
O  O93  1  0.87321924  0.67646949  0.28771415  1  -0.811739  -0.039359  1.934444  -0.057  -0.780458  -0.027638  2.139477  -0.04  -0.80722  -0.022091  2.104812  -0.033  -0.579186  -0.758814  -0.032307  2.165064  -0.046
O  O94  1  0.87276438  0.17632687  0.21240116  1  -0.811743  0.036964  1.935407  0.057  -0.780253  0.026841  2.139759  0.041  -0.806998  0.021345  2.10528  0.033  -0.579356  -0.758728  0.031587  2.165265  0.047
O  O95  1  0.12659991  0.32351199  0.71238661  1  -0.810635  0.037556  1.936358  0.058  -0.779864  0.027008  2.141816  0.041  -0.806548  0.021428  2.107049  0.033  -0.578902  -0.758243  0.03185  2.167411  0.047
O  O96  1  0.04053238  0.78241779  0.50079787  1  -0.824647  -0.000943  1.980695  -0.001  -0.799326  0.027765  2.202407  0.041  -0.830402  0.02232  2.165931  0.034  -0.580638  -0.77455  0.032815  2.228898  0.048
O  O97  1  0.96051189  0.71691755  0.00019429  1  -0.836697  -0.043861  1.979936  -0.063  -0.807983  -0.029688  2.198201  -0.043  -0.836498  -0.023389  2.161909  -0.035  -0.584852  -0.784819  -0.035087  2.224348  -0.05
O  O98  1  0.95994974  0.21681841  0.49977366  1  -0.839572  0.04118  1.978393  0.064  -0.811456  0.028397  2.197173  0.043  -0.839915  0.022259  2.160916  0.035  -0.586461  -0.788374  0.033762  2.22327  0.05
O  O99  1  0.03984451  0.28331776  0.99974769  1  -0.837571  0.041007  1.979088  0.063  -0.809611  0.028394  2.197774  0.043  -0.838059  0.022296  2.161626  0.035  -0.58536  -0.786522  0.033695  2.223778  0.05
