# generated using pymatgen
data_Zn4H20(C8O5)5
_symmetry_space_group_name_H-M   'P 1'
_cell_length_a   23.84193974
_cell_length_b   23.84335136
_cell_length_c   23.84172707
_cell_angle_alpha   66.45349494
_cell_angle_beta   72.53284061
_cell_angle_gamma   107.47649858
_symmetry_Int_Tables_number   1
_chemical_formula_structural   Zn4H20(C8O5)5
_chemical_formula_sum   'Zn8 H40 C80 O50'
_cell_volume   10393.73403547
_cell_formula_units_Z   2
loop_
 _symmetry_equiv_pos_site_id
 _symmetry_equiv_pos_as_xyz
  1  'x, y, z'
loop_
 _atom_site_type_symbol
 _atom_site_label
 _atom_site_symmetry_multiplicity
 _atom_site_fract_x
 _atom_site_fract_y
 _atom_site_fract_z
 _atom_site_occupancy
 _atom_site_pbe_bader_charge
 _atom_site_pbe_bader_spin_density
 _atom_site_pbe_cm5_charge
 _atom_site_pbe_ddec_charge
 _atom_site_pbe_ddec_spin_density
 _atom_site_pbe_ddec_sum_bond_order
 _atom_site_pbe_magmom
Zn  Zn0  1  0.05663804  0.95733028  0.48604217  1  1.321067  0  0.684966  0.967651  0  2.369923  0
Zn  Zn1  1  0.05663904  0.09931061  0.45733235  1  1.320154  0  0.684897  0.967518  0  2.369995  0
Zn  Zn2  1  0.94335669  0.98603708  0.45732388  1  1.320948  0  0.684968  0.96761  0  2.369778  0
Zn  Zn3  1  0.94337224  0.95732784  0.59931276  1  1.320233  0  0.684968  0.967478  0  2.37012  0
Zn  Zn4  1  0.94336145  0.54266983  0.01395840  1  1.321037  0  0.684961  0.967708  0  2.369858  0
Zn  Zn5  1  0.05664572  0.51396440  0.04267485  1  1.321003  0  0.68495  0.967606  0  2.369767  0
Zn  Zn6  1  0.94336091  0.40069099  0.04267187  1  1.320115  0  0.684949  0.967504  0  2.370044  0
Zn  Zn7  1  0.05662485  0.54266793  0.90069035  1  1.320282  0  0.684989  0.967576  0  2.370043  0
H  H8  1  0.92279296  0.71513364  0.17517355  1  0.107039  0  0.116746  0.14614  0  0.974097  0
H  H9  1  0.07718801  0.67515753  0.21517699  1  0.106858  0  0.116783  0.146186  0  0.974045  0
H  H10  1  0.92280058  0.82482958  0.28483413  1  0.106195  0  0.116803  0.146141  0  0.973916  0
H  H11  1  0.07713983  0.78478707  0.32490803  1  0.106691  0  0.116661  0.145961  0  0.974183  0
H  H12  1  0.07721362  0.40201003  0.70766685  1  0.120713  0  0.116809  0.146285  0  0.974014  0
H  H13  1  0.92281326  0.20763801  0.90203750  1  0.120846  0  0.11677  0.146171  0  0.974067  0
H  H14  1  0.07714656  0.29235175  0.59797396  1  0.120694  0  0.116688  0.146063  0  0.974039  0
H  H15  1  0.92279973  0.09796699  0.79235621  1  0.12088  0  0.116774  0.146111  0  0.974046  0
H  H16  1  0.60968013  0.40202569  0.17513979  1  0.107521  0  0.11664  0.14594  0  0.974122  0
H  H17  1  0.60967324  0.20764115  0.21517916  1  0.110701  0  0.116786  0.146182  0  0.973956  0
H  H18  1  0.39032592  0.29235760  0.28481301  1  0.110691  0  0.116714  0.146051  0  0.974044  0
H  H19  1  0.39032018  0.09798898  0.32478490  1  0.10747  0  0.116851  0.146269  0  0.973932  0
H  H20  1  0.39033004  0.67511889  0.90202241  1  0.107548  0  0.116699  0.146102  0  0.974002  0
H  H21  1  0.39031361  0.71516528  0.70763157  1  0.110267  0  0.116729  0.146095  0  0.974031  0
H  H22  1  0.60968836  0.78482390  0.79236640  1  0.109995  0  0.11667  0.146024  0  0.974165  0
H  H23  1  0.60967061  0.82480635  0.59799005  1  0.10739  0  0.116818  0.146283  0  0.973926  0
H  H24  1  0.91923378  0.83695071  0.74381232  1  0.638868  0  0.309055  0.350875  0  0.968798  0
H  H25  1  0.08076819  0.66304891  0.75618821  1  0.638901  0  0.309002  0.350768  0  0.968968  0
H  H26  1  0.91923059  0.66304399  0.91772174  1  0.639462  0  0.308997  0.351116  0  0.968996  0
H  H27  1  0.08077318  0.83695638  0.58228046  1  0.639519  0  0.309052  0.35094  0  0.968699  0
H  H28  1  0.91922875  0.08228319  0.33694088  1  0.639755  0  0.309023  0.350824  0  0.969022  0
H  H29  1  0.08077037  0.41771654  0.16306057  1  0.639713  0  0.309036  0.350763  0  0.969074  0
H  H30  1  0.91923244  0.25619407  0.16303217  1  0.638749  0  0.309023  0.351044  0  0.96907  0
H  H31  1  0.08076872  0.24380614  0.33696847  1  0.638719  0  0.309088  0.351133  0  0.968959  0
H  H32  1  0.91968429  0.62824915  0.08621891  1  0.63806  0  0.308919  0.355297  0  0.965859  0
H  H33  1  0.08030833  0.58620852  0.12828710  1  0.638988  0  0.309033  0.355351  0  0.965708  0
H  H34  1  0.91968734  0.91378463  0.37171781  1  0.638847  0  0.308992  0.355245  0  0.966012  0
H  H35  1  0.08025977  0.87168129  0.41385163  1  0.638562  0  0.308953  0.355417  0  0.965637  0
H  H36  1  0.08032584  0.49406913  0.79145059  1  0.639606  0  0.308839  0.355081  0  0.965823  0
H  H37  1  0.91970003  0.29140478  0.99410985  1  0.639006  0  0.308961  0.355234  0  0.965879  0
H  H38  1  0.08025783  0.20858250  0.50590403  1  0.638416  0  0.308912  0.355501  0  0.965485  0
H  H39  1  0.91968559  0.00590440  0.70857694  1  0.639274  0  0.308892  0.35524  0  0.965903  0
H  H40  1  0.78552076  0.49408842  0.08618811  1  0.640215  0  0.308933  0.358154  0  0.961179  0
H  H41  1  0.78551345  0.29141142  0.12829347  1  0.624243  0  0.308983  0.355254  0  0.965973  0
H  H42  1  0.21448718  0.20859037  0.37170124  1  0.624061  0  0.309006  0.355372  0  0.965807  0
H  H43  1  0.21447867  0.00592537  0.41373802  1  0.639361  0  0.308851  0.357932  0  0.961285  0
H  H44  1  0.21449102  0.58617039  0.99408361  1  0.639361  0  0.308932  0.358222  0  0.961135  0
H  H45  1  0.21447559  0.62828304  0.79139855  1  0.643528  0  0.308929  0.355235  0  0.966025  0
H  H46  1  0.78552753  0.87171146  0.70860032  1  0.643529  0  0.308978  0.35531  0  0.965948  0
H  H47  1  0.78551061  0.91375844  0.50592922  1  0.63964  0  0.308958  0.358233  0  0.961114  0
C  C48  1  0.18408672  0.09205426  0.40794600  1  1.381955  0  0.2194  0.625968  0  4.136846  0
C  C49  1  0.99999735  0.13991233  0.36008642  1  1.424215  0  0.22891  0.636939  0  4.104189  0
C  C50  1  0.99998709  0.90794983  0.40796826  1  1.396496  0  0.219241  0.625879  0  4.13641  0
C  C51  1  0.81591705  0.90794497  0.59206153  1  1.381915  0  0.219517  0.6264  0  4.136815  0
C  C52  1  0.00000585  0.86008948  0.63991354  1  1.424263  0  0.22894  0.636764  0  4.104385  0
C  C53  1  0.99998760  0.09204275  0.59204739  1  1.388493  0  0.2193  0.625999  0  4.136658  0
C  C54  1  0.99999891  0.59203312  0.09204956  1  1.396574  0  0.219452  0.626043  0  4.136299  0
C  C55  1  0.00000537  0.36008892  0.13991333  1  1.424367  0  0.22886  0.636702  0  4.104186  0
C  C56  1  0.81591286  0.40795066  0.09203982  1  1.382484  0  0.219338  0.626078  0  4.136816  0
C  C57  1  0.99999561  0.40794119  0.90797157  1  1.388771  0  0.2194  0.625946  0  4.137047  0
C  C58  1  0.99999495  0.63991053  0.86008844  1  1.424084  0  0.22894  0.636939  0  4.104172  0
C  C59  1  0.18408351  0.59203445  0.90794368  1  1.382054  0  0.219344  0.626258  0  4.136886  0
C  C60  1  0.00000288  0.80416793  0.69583170  1  0.017601  0  -0.048893  -0.300601  0  4.021148  0
C  C61  1  0.99999937  0.69583040  0.80416968  1  0.018474  0  -0.048851  -0.300481  0  4.020904  0
C  C62  1  0.95613204  0.77685614  0.76700904  1  0.58193  0  0.073597  0.199954  0  4.058037  0
C  C63  1  0.04386978  0.72314175  0.73299348  1  0.675561  0  0.073527  0.199768  0  4.058212  0
C  C64  1  0.95613247  0.72313869  0.82072762  1  0.616381  0  0.073579  0.199804  0  4.058034  0
C  C65  1  0.04387095  0.77685924  0.67927482  1  0.522792  0  0.073639  0.199973  0  4.058249  0
C  C66  1  0.99999953  0.19583100  0.30416839  1  0.018488  0  -0.048878  -0.300539  0  4.021203  0
C  C67  1  0.00000295  0.30417053  0.19583217  1  0.018734  0  -0.048828  -0.300445  0  4.021416  0
C  C68  1  0.95613149  0.17927694  0.27685105  1  0.523689  0  0.073528  0.199808  0  4.058447  0
C  C69  1  0.04386987  0.32072399  0.22314924  1  0.523545  0  0.073561  0.199841  0  4.058596  0
C  C70  1  0.95613170  0.23299555  0.22313391  1  0.675111  0  0.073655  0.199816  0  4.058073  0
C  C71  1  0.04387054  0.26700626  0.27686703  1  0.675954  0  0.073624  0.19974  0  4.05804  0
C  C72  1  0.99999327  0.62831322  0.12834534  1  0.076898  0  -0.057244  -0.348721  0  3.964668  0
C  C73  1  0.95619622  0.65823840  0.13560022  1  0.49946  0  0.098579  0.352697  0  4.068293  0
C  C74  1  0.95649770  0.69302940  0.17055030  1  0.036817  0  -0.107885  -0.289615  0  3.90859  0
C  C75  1  0.99999202  0.69921065  0.19923883  1  0.092807  0  0.014764  0.201876  0  4.153507  0
C  C76  1  0.04348696  0.67053088  0.19306380  1  0.038361  0  -0.108086  -0.289777  0  3.908804  0
C  C77  1  0.04378971  0.63557699  0.15827709  1  0.498779  0  0.098792  0.352921  0  4.068283  0
C  C78  1  0.99999636  0.73469006  0.23471865  1  -0.040015  0  -0.028551  -0.085796  0  4.063436  0
C  C79  1  0.99998830  0.76527638  0.26531494  1  -0.24895  0  -0.02865  -0.085873  0  4.063596  0
C  C80  1  0.99997222  0.80074527  0.30080425  1  0.095024  0  0.014792  0.201851  0  4.153461  0
C  C81  1  0.95648990  0.82944133  0.30696222  1  0.036285  0  -0.108058  -0.289661  0  3.908581  0
C  C82  1  0.95618617  0.86439162  0.34175108  1  0.499548  0  0.098747  0.352882  0  4.068271  0
C  C83  1  0.99996775  0.87163790  0.37170188  1  0.077304  0  -0.057012  -0.34845  0  3.964264  0
C  C84  1  0.04374741  0.84169160  0.36447021  1  0.498416  0  0.098484  0.352574  0  4.06832  0
C  C85  1  0.04344926  0.80690813  0.32951236  1  0.038944  0  -0.10788  -0.289339  0  3.908448  0
C  C86  1  0.00001674  0.37164837  0.87168828  1  0.020686  0  -0.05713  -0.348661  0  3.964586  0
C  C87  1  0.04381726  0.40818712  0.79796570  1  0.534973  0  0.09868  0.353007  0  4.068085  0
C  C88  1  0.04351129  0.37293727  0.76347493  1  0.012857  0  -0.107906  -0.289833  0  3.908384  0
C  C89  1  0.00001056  0.30076336  0.80078621  1  0.109272  0  0.014771  0.201956  0  4.15333  0
C  C90  1  0.95651468  0.26344602  0.87296244  1  0.012525  0  -0.107998  -0.289717  0  3.908613  0
C  C91  1  0.95621793  0.29792699  0.90822221  1  0.534845  0  0.098711  0.352938  0  4.068095  0
C  C92  1  0.00000117  0.26528411  0.76530701  1  -0.041033  0  -0.02868  -0.086006  0  4.063746  0
C  C93  1  0.99999291  0.23469817  0.73471095  1  -0.250208  0  -0.028457  -0.085688  0  4.063712  0
C  C94  1  0.99997610  0.19922089  0.69923068  1  0.108919  0  0.014716  0.201822  0  4.153677  0
C  C95  1  0.04345329  0.23654092  0.62705230  1  0.013221  0  -0.107947  -0.28947  0  3.908484  0
C  C96  1  0.04374692  0.20205788  0.59179471  1  0.534741  0  0.098725  0.353058  0  4.068464  0
C  C97  1  0.99996725  0.12833424  0.62833091  1  0.021366  0  -0.057105  -0.348756  0  3.964747  0
C  C98  1  0.95618285  0.09179388  0.70205431  1  0.534099  0  0.098699  0.352962  0  4.06845  0
C  C99  1  0.95648989  0.12704533  0.73654286  1  0.012396  0  -0.107989  -0.289714  0  3.908718  0
C  C100  1  0.74333631  0.37166089  0.12832906  1  0.033328  0  -0.057302  -0.348878  0  3.964773  0
C  C101  1  0.70615394  0.40820036  0.13557190  1  0.604767  0  0.098875  0.353122  0  4.068773  0
C  C102  1  0.63641352  0.37294841  0.17052484  1  -0.040798  0  -0.107862  -0.289412  0  3.908461  0
C  C103  1  0.60155071  0.30077242  0.19921991  1  0.121727  0  0.01469  0.201826  0  4.153708  0
C  C104  1  0.63640827  0.26345305  0.19305770  1  0.045389  0  -0.108013  -0.289694  0  3.908731  0
C  C105  1  0.70614818  0.29793681  0.15827352  1  0.5239  0  0.098827  0.353031  0  4.068164  0
C  C106  1  0.53059085  0.26529912  0.23469604  1  -0.333153  0  -0.028593  -0.086019  0  4.06356  0
C  C107  1  0.46940829  0.23471583  0.26527838  1  -0.013842  0  -0.028589  -0.08573  0  4.063716  0
C  C108  1  0.39845126  0.19923548  0.30074429  1  0.121544  0  0.014807  0.20186  0  4.153301  0
C  C109  1  0.36359144  0.23654889  0.30692172  1  0.045345  0  -0.108016  -0.289559  0  3.908371  0
C  C110  1  0.29385072  0.20206798  0.34170165  1  0.524111  0  0.098729  0.352885  0  4.068156  0
C  C111  1  0.25666265  0.12834766  0.37162698  1  0.031968  0  -0.057096  -0.348443  0  3.964461  0
C  C112  1  0.29384718  0.09181145  0.36436206  1  0.60409  0  0.098552  0.352547  0  4.068673  0
C  C113  1  0.36358696  0.12706222  0.32941524  1  -0.039011  0  -0.108057  -0.289696  0  3.908154  0
C  C114  1  0.25666159  0.62831010  0.87165455  1  0.033644  0  -0.057035  -0.348715  0  3.964414  0
C  C115  1  0.29385418  0.63555155  0.90819374  1  0.606277  0  0.098819  0.353141  0  4.0688  0
C  C116  1  0.36359431  0.67050766  0.87294031  1  -0.042192  0  -0.108096  -0.28973  0  3.908423  0
C  C117  1  0.39845122  0.69920625  0.80076321  1  0.121723  0  0.014832  0.202041  0  4.153672  0
C  C118  1  0.36358674  0.69303990  0.76344451  1  0.045445  0  -0.108084  -0.289738  0  3.908862  0
C  C119  1  0.29384647  0.65825659  0.79792842  1  0.52318  0  0.098685  0.352768  0  4.068131  0
C  C120  1  0.46940792  0.73468889  0.76529439  1  -0.015162  0  -0.028675  -0.086114  0  4.063572  0
C  C121  1  0.53059093  0.76527732  0.73471868  1  -0.331561  0  -0.028479  -0.085551  0  4.063357  0
C  C122  1  0.60155038  0.80075490  0.69924140  1  0.121702  0  0.014787  0.201887  0  4.153273  0
C  C123  1  0.63641681  0.80693417  0.73655690  1  0.045932  0  -0.107974  -0.289603  0  3.908552  0
C  C124  1  0.70615873  0.84171652  0.70207287  1  0.523195  0  0.098718  0.352889  0  4.067798  0
C  C125  1  0.74333952  0.87164116  0.62835371  1  0.032806  0  -0.057183  -0.348859  0  3.964806  0
C  C126  1  0.70614963  0.86438521  0.59181361  1  0.603838  0  0.098703  0.353028  0  4.068685  0
C  C127  1  0.63641011  0.82943598  0.62706412  1  -0.038977  0  -0.107944  -0.289764  0  3.908152  0
O  O128  1  0.99999809  0.00000051  0.50000280  1  -1.235135  0  -0.574416  -1.020047  0  2.570465  0
O  O129  1  0.15237343  0.02532414  0.43459286  1  -1.190609  0  -0.317637  -0.566559  0  2.376612  0
O  O130  1  0.04014442  0.15608957  0.38405197  1  -1.178739  0  -0.310443  -0.555695  0  2.374153  0
O  O131  1  0.95990799  0.93460120  0.41302521  1  -1.188076  0  -0.3175  -0.565037  0  2.376463  0
O  O132  1  0.15237515  0.12706641  0.41304095  1  -1.186946  0  -0.317603  -0.565133  0  2.376376  0
O  O133  1  0.04008406  0.91303259  0.43460546  1  -1.188099  0  -0.317568  -0.56532  0  2.37648  0
O  O134  1  0.95985059  0.07580658  0.38404835  1  -1.177836  0  -0.310358  -0.555305  0  2.373804  0
O  O135  1  0.84762459  0.93458516  0.52533206  1  -1.190259  0  -0.317736  -0.5668  0  2.376619  0
O  O136  1  0.95986371  0.88405231  0.65609188  1  -1.178511  0  -0.310469  -0.55545  0  2.374057  0
O  O137  1  0.84763276  0.91302836  0.62707765  1  -1.187195  0  -0.317598  -0.565204  0  2.376543  0
O  O138  1  0.04015013  0.88405708  0.57580624  1  -1.177889  0  -0.310412  -0.55537  0  2.373869  0
O  O139  1  0.04008193  0.12705992  0.52531887  1  -1.184338  0  -0.317559  -0.56532  0  2.376623  0
O  O140  1  0.95991222  0.02531053  0.62706589  1  -1.1846  0  -0.317562  -0.565168  0  2.376516  0
O  O141  1  0.00000007  0.49999891  0.99999999  1  -1.235176  0  -0.574413  -1.020055  0  2.570512  0
O  O142  1  0.95990517  0.58695567  0.06540920  1  -1.187947  0  -0.317627  -0.565272  0  2.376393  0
O  O143  1  0.04015053  0.42419463  0.11595149  1  -1.177911  0  -0.3103  -0.555156  0  2.373698  0
O  O144  1  0.84762412  0.37293502  0.08696858  1  -1.188107  0  -0.317505  -0.565072  0  2.376465  0
O  O145  1  0.04009877  0.56540568  0.08696965  1  -1.188067  0  -0.317611  -0.565213  0  2.376299  0
O  O146  1  0.84762751  0.47468111  0.06539116  1  -1.189857  0  -0.317578  -0.566576  0  2.376296  0
O  O147  1  0.95986078  0.34391260  0.11594583  1  -1.178917  0  -0.310456  -0.555584  0  2.374134  0
O  O148  1  0.95989441  0.37292966  0.97469692  1  -1.184302  0  -0.317603  -0.565121  0  2.376609  0
O  O149  1  0.04013227  0.61594286  0.84391013  1  -1.178626  0  -0.310453  -0.555444  0  2.374051  0
O  O150  1  0.04007798  0.47467151  0.87295459  1  -1.184813  0  -0.317637  -0.56535  0  2.376961  0
O  O151  1  0.95985551  0.61594777  0.92419488  1  -1.17788  0  -0.31044  -0.555643  0  2.373895  0
O  O152  1  0.15237736  0.56539929  0.97467324  1  -1.189971  0  -0.317624  -0.566715  0  2.376608  0
O  O153  1  0.15236425  0.58696941  0.87292595  1  -1.187388  0  -0.317601  -0.565209  0  2.376447  0
O  O154  1  0.91309774  0.79964547  0.78724901  1  -1.124377  0  -0.34956  -0.406359  0  2.276072  0
O  O155  1  0.08690511  0.70035502  0.71275385  1  -1.124379  0  -0.349439  -0.406153  0  2.276171  0
O  O156  1  0.91309949  0.70034660  0.88655094  1  -1.123499  0  -0.349425  -0.406513  0  2.275979  0
O  O157  1  0.08690609  0.79965453  0.61345043  1  -1.123704  0  -0.349514  -0.406354  0  2.27587  0
O  O158  1  0.91309887  0.11345442  0.29963524  1  -1.124717  0  -0.349443  -0.40616  0  2.276153  0
O  O159  1  0.08690253  0.38654551  0.20036418  1  -1.12476  0  -0.349474  -0.406123  0  2.276262  0
O  O160  1  0.91309850  0.21275832  0.20033467  1  -1.124552  0  -0.349611  -0.406564  0  2.276116  0
O  O161  1  0.08690286  0.28724261  0.29966605  1  -1.124589  0  -0.349602  -0.406499  0  2.276166  0
O  O162  1  0.91335869  0.65415188  0.10932399  1  -1.138808  0  -0.349902  -0.430751  0  2.23947  0
O  O163  1  0.08662989  0.60930957  0.15419682  1  -1.139693  0  -0.350143  -0.430928  0  2.239361  0
O  O164  1  0.91336070  0.89067901  0.34581437  1  -1.139666  0  -0.350148  -0.430986  0  2.23961  0
O  O165  1  0.08657520  0.84576471  0.39075890  1  -1.14011  0  -0.349943  -0.430904  0  2.239408  0
O  O166  1  0.08666484  0.47729115  0.75922086  1  -1.144054  0  -0.350062  -0.430817  0  2.239339  0
O  O167  1  0.91337905  0.25917415  0.97733046  1  -1.143655  0  -0.350115  -0.43091  0  2.2394  0
O  O168  1  0.08657381  0.24081229  0.52268483  1  -1.142589  0  -0.350043  -0.431231  0  2.239464  0
O  O169  1  0.91335521  0.02268473  0.74080566  1  -1.143716  0  -0.34996  -0.430867  0  2.239743  0
O  O170  1  0.73651156  0.47731006  0.10928971  1  -1.144636  0  -0.350164  -0.432889  0  2.236626  0
O  O171  1  0.73650407  0.25918229  0.15420237  1  -1.126943  0  -0.350142  -0.430921  0  2.239514  0
O  O172  1  0.26349808  0.24082154  0.34578814  1  -1.127125  0  -0.350094  -0.430999  0  2.239379  0
O  O173  1  0.26348701  0.02270761  0.39061458  1  -1.143586  0  -0.349921  -0.432432  0  2.23649  0
O  O174  1  0.26350159  0.60926639  0.97730502  1  -1.143797  0  -0.350134  -0.432978  0  2.236658  0
O  O175  1  0.26348479  0.65418840  0.75917040  1  -1.146094  0  -0.349943  -0.430721  0  2.239578  0
O  O176  1  0.73651762  0.84580122  0.74082768  1  -1.146198  0  -0.350006  -0.430813  0  2.239201  0
O  O177  1  0.73650193  0.89065077  0.52270559  1  -1.143764  0  -0.350243  -0.433043  0  2.236367  0
