# generated using pymatgen
data_ZnH14C20(NO)6
_symmetry_space_group_name_H-M   'P 1'
_cell_length_a   8.25109719
_cell_length_b   11.12314223
_cell_length_c   11.25540472
_cell_angle_alpha   73.52007066
_cell_angle_beta   74.68733432
_cell_angle_gamma   82.78107580
_symmetry_Int_Tables_number   1
_chemical_formula_structural   ZnH14C20(NO)6
_chemical_formula_sum   'Zn2 H28 C40 N12 O12'
_cell_volume   953.95840542
_cell_formula_units_Z   2
loop_
 _symmetry_equiv_pos_site_id
 _symmetry_equiv_pos_as_xyz
  1  'x, y, z'
loop_
 _atom_site_type_symbol
 _atom_site_label
 _atom_site_symmetry_multiplicity
 _atom_site_fract_x
 _atom_site_fract_y
 _atom_site_fract_z
 _atom_site_occupancy
 _atom_site_hle17_bader_spin_density
 _atom_site_hle17_ddec_charge
 _atom_site_hle17_ddec_spin_density
 _atom_site_hle17_ddec_sum_bond_order
 _atom_site_hle17_magmom
 _atom_site_hse06_10hf_bader_spin_density
 _atom_site_hse06_10hf_ddec_charge
 _atom_site_hse06_10hf_ddec_spin_density
 _atom_site_hse06_10hf_ddec_sum_bond_order
 _atom_site_hse06_10hf_magmom
 _atom_site_hse06_bader_spin_density
 _atom_site_hse06_ddec_charge
 _atom_site_hse06_ddec_spin_density
 _atom_site_hse06_ddec_sum_bond_order
 _atom_site_hse06_magmom
 _atom_site_pbe_bader_spin_density
 _atom_site_pbe_cm5_charge
 _atom_site_pbe_ddec_charge
 _atom_site_pbe_ddec_spin_density
 _atom_site_pbe_ddec_sum_bond_order
 _atom_site_pbe_magmom
Zn  Zn0  1  0.76141060  0.79626677  0.74546959  1  0  0.906523  0  1.93473  0  0  0.705109  0  2.386119  0  0  0.752445  0  2.338431  0  0  0.696103  0.672265  0  2.418971  0
Zn  Zn1  1  0.23858942  0.20373251  0.25452892  1  0  0.906569  0  1.934806  0  0  0.705155  0  2.386101  0  0  0.752491  0  2.338404  0  0  0.696112  0.672316  0  2.418944  0
H  H2  1  0.39912789  0.91701485  0.88358229  1  0  0.091275  0  0.943383  0  0  0.099962  0  1.005882  0  0  0.102398  0  1.003562  0  0  0.121161  0.098272  0  1.007417  0
H  H3  1  0.60087596  0.08298347  0.11641662  1  0  0.091271  0  0.94333  0  0  0.099952  0  1.005854  0  0  0.102388  0  1.003534  0  0  0.121147  0.098263  0  1.007386  0
H  H4  1  0.10897763  0.84534735  0.97977067  1  0  0.106701  0  0.943036  0  0  0.118688  0  0.998276  0  0  0.121063  0  0.998574  0  0  0.111561  0.116978  0  0.998159  0
H  H5  1  0.89102489  0.15465193  0.02022646  1  0  0.106661  0  0.943023  0  0  0.118638  0  0.998278  0  0  0.121013  0  0.998574  0  0  0.111539  0.116929  0  0.998161  0
H  H6  1  0.05174378  0.62387214  0.99520594  1  0  0.109119  0  0.951453  0  0  0.118068  0  1.011236  0  0  0.121387  0  1.008388  0  0  0.108987  0.115467  0  1.013615  0
H  H7  1  0.94825478  0.37612993  0.00479476  1  0  0.109165  0  0.951507  0  0  0.118126  0  1.011226  0  0  0.121447  0  1.008374  0  0  0.109002  0.115526  0  1.013606  0
H  H8  1  0.28811498  0.48343859  0.91408275  1  0  0.116364  0  0.980993  0  0  0.119026  0  1.053604  0  0  0.123513  0  1.050317  0  0  0.104916  0.115814  0  1.055939  0
H  H9  1  0.71187889  0.51655880  0.08591836  1  0  0.116303  0  0.981073  0  0  0.119014  0  1.053679  0  0  0.12351  0  1.050387  0  0  0.104889  0.115795  0  1.056021  0
H  H10  1  0.48870137  0.38321923  0.82613150  1  0  0.122887  0  0.97184  0  0  0.131067  0  1.035034  0  0  0.134255  0  1.034036  0  0  0.11217  0.128796  0  1.035788  0
H  H11  1  0.51130248  0.61677909  0.17386742  1  0  0.122848  0  0.971871  0  0  0.131066  0  1.03502  0  0  0.134254  0  1.034024  0  0  0.11216  0.128797  0  1.035775  0
H  H12  1  0.02519671  0.37516184  0.66566225  1  0  0.1293  0  0.971813  0  0  0.134242  0  1.040635  0  0  0.138511  0  1.037624  0  0  0.113205  0.131192  0  1.042835  0
H  H13  1  0.97480569  0.62483929  0.33433796  1  0  0.129258  0  0.971763  0  0  0.134208  0  1.040594  0  0  0.13848  0  1.037583  0  0  0.11319  0.13116  0  1.04279  0
H  H14  1  0.23863257  0.47473927  0.62029051  1  0  0.123496  0  0.948567  0  0  0.134108  0  1.00664  0  0  0.137665  0  1.004521  0  0  0.113062  0.131375  0  1.008506  0
H  H15  1  0.76136744  0.52526001  0.37970711  1  0  0.123516  0  0.948536  0  0  0.134134  0  1.006624  0  0  0.137691  0  1.004507  0  0  0.113067  0.131402  0  1.008489  0
H  H16  1  0.48178717  0.61454904  0.54840406  1  0  0.098343  0  0.940464  0  0  0.110735  0  0.997153  0  0  0.113075  0  0.99613  0  0  0.108041  0.108921  0  0.998086  0
H  H17  1  0.51821265  0.38545302  0.45159639  1  0  0.098357  0  0.940482  0  0  0.110753  0  0.997159  0  0  0.113094  0  0.996131  0  0  0.108032  0.108904  0  0.998125  0
H  H18  1  0.42228955  0.84224371  0.55123402  1  0  0.116942  0  0.95418  0  0  0.123603  0  1.017797  0  0  0.126634  0  1.016792  0  0  0.112171  0.121214  0  1.019039  0
H  H19  1  0.57770539  0.15775644  0.44877324  1  0  0.116894  0  0.954299  0  0  0.123546  0  1.017914  0  0  0.126576  0  1.016911  0  0  0.112152  0.121161  0  1.019147  0
H  H20  1  0.12980651  0.92023187  0.61782027  1  0  0.07843  0  0.966478  0  0  0.081521  0  1.040176  0  0  0.084266  0  1.037571  0  0  0.113029  0.07941  0  1.042166  0
H  H21  1  0.87018847  0.07976742  0.38217833  1  0  0.07843  0  0.96645  0  0  0.081535  0  1.040139  0  0  0.084283  0  1.037532  0  0  0.113011  0.079424  0  1.042125  0
H  H22  1  0.50725270  0.24103006  0.71139726  1  0  0.120705  0  0.951376  0  0  0.12627  0  1.018226  0  0  0.130185  0  1.015828  0  0  0.111577  0.123483  0  1.020021  0
H  H23  1  0.49274851  0.75897012  0.28860433  1  0  0.120759  0  0.951238  0  0  0.126292  0  1.018161  0  0  0.130208  0  1.015762  0  0  0.111599  0.123506  0  1.019958  0
H  H24  1  0.53100656  0.02278264  0.69748180  1  0  0.090113  0  0.95769  0  0  0.095769  0  1.026485  0  0  0.098402  0  1.023503  0  0  0.120566  0.093761  0  1.028749  0
H  H25  1  0.46899326  0.97721943  0.30251777  1  0  0.090066  0  0.957721  0  0  0.095717  0  1.026535  0  0  0.098349  0  1.023552  0  0  0.12055  0.093712  0  1.0288  0
H  H26  1  0.99202598  0.95549586  0.79524262  1  0  0.075793  0  0.953229  0  0  0.083638  0  1.022086  0  0  0.085658  0  1.020267  0  0  0.118344  0.082145  0  1.023493  0
H  H27  1  0.00797404  0.04450341  0.20475678  1  0  0.075802  0  0.953264  0  0  0.083649  0  1.022107  0  0  0.085668  0  1.020289  0  0  0.11834  0.082149  0  1.023518  0
H  H28  1  0.00609874  0.17884233  0.78576977  1  0  0.124146  0  0.95155  0  0  0.129032  0  1.019723  0  0  0.132869  0  1.017555  0  0  0.113126  0.126263  0  1.021403  0
H  H29  1  0.99390385  0.82115600  0.21422849  1  0  0.124132  0  0.951472  0  0  0.129007  0  1.019693  0  0  0.132843  0  1.017526  0  0  0.113113  0.126239  0  1.021365  0
C  C30  1  0.37073606  0.82219394  0.88908061  1  0  0.142867  0  3.674847  0  0  0.111158  0  3.928173  0  0  0.118005  0  3.945676  0  0  0.056301  0.106622  0  3.916279  0
C  C31  1  0.62926394  0.17780535  0.11091613  1  0  0.142781  0  3.67485  0  0  0.111092  0  3.928144  0  0  0.117938  0  3.945647  0  0  0.056287  0.106557  0  3.916251  0
C  C32  1  0.20831606  0.78115774  0.94407425  1  0  -0.113506  0  3.711531  0  0  -0.127607  0  3.968148  0  0  -0.134658  0  3.990567  0  0  -0.080203  -0.123071  0  3.95314  0
C  C33  1  0.79168640  0.21884248  0.05592175  1  0  -0.113392  0  3.711541  0  0  -0.127485  0  3.968121  0  0  -0.134535  0  3.990544  0  0  -0.080175  -0.122952  0  3.953119  0
C  C34  1  0.17768852  0.65804990  0.95317461  1  0  0.008676  0  3.692688  0  0  -0.012498  0  3.94667  0  0  -0.009136  0  3.965412  0  0  -0.06664  -0.014401  0  3.933876  0
C  C35  1  0.82231135  0.34195127  0.04682164  1  0  0.008556  0  3.692852  0  0  -0.012633  0  3.946792  0  0  -0.009267  0  3.965527  0  0  -0.066646  -0.01454  0  3.934007  0
C  C36  1  0.31010968  0.58018184  0.90653963  1  0  -0.135701  0  3.683929  0  0  -0.153666  0  3.933568  0  0  -0.160829  0  3.95455  0  0  -0.079433  -0.148943  0  3.919347  0
C  C37  1  0.68988900  0.41981838  0.09345800  1  0  -0.135557  0  3.683925  0  0  -0.153541  0  3.933654  0  0  -0.160708  0  3.95463  0  0  -0.07937  -0.14881  0  3.919425  0
C  C38  1  0.46881660  0.62875654  0.84984722  1  0  0.166205  0  3.755235  0  0  0.163697  0  3.993495  0  0  0.169254  0  4.014914  0  0  0.118262  0.159956  0  3.97906  0
C  C39  1  0.53118228  0.37124089  0.15014846  1  0  0.166265  0  3.755061  0  0  0.16364  0  3.993524  0  0  0.169194  0  4.014949  0  0  0.118264  0.159904  0  3.97908  0
C  C40  1  0.61583508  0.55193203  0.79734216  1  0  0.202979  0  3.762364  0  0  0.19408  0  4.008905  0  0  0.201965  0  4.02739  0  0  0.129897  0.18879  0  3.996296  0
C  C41  1  0.38416362  0.44806817  0.20265724  1  0  0.202978  0  3.762245  0  0  0.194038  0  4.008899  0  0  0.201926  0  4.027386  0  0  0.129849  0.188747  0  3.996287  0
C  C42  1  0.60796528  0.42860066  0.79277106  1  0  -0.170477  0  3.624459  0  0  -0.197204  0  3.86998  0  0  -0.204115  0  3.889754  0  0  -0.072057  -0.192318  0  3.856408  0
C  C43  1  0.39203724  0.57139860  0.20722785  1  0  -0.17048  0  3.624369  0  0  -0.197164  0  3.8699  0  0  -0.204082  0  3.889685  0  0  -0.071999  -0.192284  0  3.856331  0
C  C44  1  0.75718857  0.36318024  0.74697908  1  0  0.109724  0  3.759437  0  0  0.122508  0  3.99201  0  0  0.126296  0  4.013524  0  0  0.016222  0.119911  0  3.977373  0
C  C45  1  0.24281277  0.63681808  0.25302121  1  0  0.109848  0  3.759317  0  0  0.122594  0  3.99193  0  0  0.126382  0  4.013456  0  0  0.016249  0.120003  0  3.977284  0
C  C46  1  0.90867613  0.42419109  0.70352997  1  0  -0.159801  0  3.611409  0  0  -0.1876  0  3.858472  0  0  -0.19435  0  3.877148  0  0  -0.066548  -0.183167  0  3.846077  0
C  C47  1  0.09132773  0.57580721  0.29647161  1  0  -0.159862  0  3.611413  0  0  -0.187669  0  3.858568  0  0  -0.194418  0  3.877225  0  0  -0.06658  -0.18324  0  3.846169  0
C  C48  1  0.90588131  0.54869786  0.70742019  1  0  0.216475  0  3.746796  0  0  0.208859  0  3.988251  0  0  0.217059  0  4.005882  0  0  0.134964  0.203186  0  3.97646  0
C  C49  1  0.09412004  0.45130043  0.29258366  1  0  0.216589  0  3.746839  0  0  0.208936  0  3.98832  0  0  0.217155  0  4.005922  0  0  0.134977  0.203262  0  3.976527  0
C  C50  1  0.05619290  0.62449897  0.66092219  1  0  0.181815  0  3.731014  0  0  0.179453  0  3.965984  0  0  0.185005  0  3.98678  0  0  0.1245  0.175703  0  3.952037  0
C  C51  1  0.94380726  0.37549838  0.33908215  1  0  0.181866  0  3.730989  0  0  0.179539  0  3.965945  0  0  0.185086  0  3.986741  0  0  0.124524  0.175788  0  3.952  0
C  C52  1  0.21846368  0.57371841  0.61924581  1  0  -0.13141  0  3.669818  0  0  -0.149214  0  3.913157  0  0  -0.155669  0  3.934169  0  0  -0.073235  -0.144909  0  3.899086  0
C  C53  1  0.78153515  0.42627990  0.38075675  1  0  -0.131462  0  3.669773  0  0  -0.149285  0  3.913136  0  0  -0.155742  0  3.934151  0  0  -0.07324  -0.144978  0  3.899054  0
C  C54  1  0.35333871  0.65123302  0.57960334  1  0  -0.007874  0  3.720269  0  0  -0.027597  0  3.973759  0  0  -0.025199  0  3.993632  0  0  -0.067717  -0.028941  0  3.960167  0
C  C55  1  0.64665887  0.34876529  0.42039946  1  0  -0.00793  0  3.720317  0  0  -0.027664  0  3.973788  0  0  -0.025267  0  3.993661  0  0  -0.067752  -0.028979  0  3.960205  0
C  C56  1  0.32244713  0.77722776  0.58025067  1  0  -0.099298  0  3.698112  0  0  -0.11393  0  3.952482  0  0  -0.120334  0  3.974854  0  0  -0.077823  -0.109863  0  3.937741  0
C  C57  1  0.67754913  0.22277147  0.41975391  1  0  -0.099233  0  3.69818  0  0  -0.113815  0  3.952451  0  0  -0.120219  0  3.974826  0  0  -0.077773  -0.109753  0  3.937705  0
C  C58  1  0.15706528  0.82132123  0.62016633  1  0  0.138814  0  3.68843  0  0  0.107148  0  3.944155  0  0  0.113515  0  3.96175  0  0  0.051709  0.102993  0  3.932356  0
C  C59  1  0.84293216  0.17867896  0.37983599  1  0  0.138845  0  3.688271  0  0  0.107161  0  3.943965  0  0  0.113526  0  3.961562  0  0  0.051747  0.103004  0  3.932169  0
C  C60  1  0.75715164  0.23069631  0.74708135  1  0  0.09108  0  3.753509  0  0  0.103418  0  3.981061  0  0  0.106795  0  4.003533  0  0  0.01243  0.101465  0  3.965549  0
C  C61  1  0.24285215  0.76930294  0.25291821  1  0  0.090939  0  3.753497  0  0  0.103306  0  3.981008  0  0  0.106684  0  4.003479  0  0  0.012451  0.101355  0  3.965493  0
C  C62  1  0.62065326  0.18334367  0.72635409  1  0  -0.139202  0  3.684241  0  0  -0.159125  0  3.93265  0  0  -0.166345  0  3.953436  0  0  -0.075585  -0.154438  0  3.918701  0
C  C63  1  0.37934781  0.81665840  0.27364611  1  0  -0.139269  0  3.684084  0  0  -0.159145  0  3.932482  0  0  -0.166366  0  3.953267  0  0  -0.075658  -0.154463  0  3.918544  0
C  C64  1  0.63080022  0.05905222  0.72209965  1  0  0.14285  0  3.671738  0  0  0.108764  0  3.923513  0  0  0.116504  0  3.94  0  0  0.053643  0.103577  0  3.912343  0
C  C65  1  0.36920211  0.94094984  0.27790031  1  0  0.142928  0  3.671586  0  0  0.10883  0  3.923378  0  0  0.116572  0  3.939864  0  0  0.05367  0.103637  0  3.912221  0
C  C66  1  0.89061078  0.02323661  0.77178636  1  0  0.145362  0  3.69901  0  0  0.108841  0  3.953783  0  0  0.116509  0  3.97086  0  0  0.048717  0.103748  0  3.941985  0
C  C67  1  0.10939168  0.97676359  0.22821231  1  0  0.145339  0  3.699133  0  0  0.108826  0  3.953866  0  0  0.116494  0  3.970941  0  0  0.048727  0.103734  0  3.942072  0
C  C68  1  0.89561886  0.14797451  0.76921672  1  0  -0.148816  0  3.680203  0  0  -0.168775  0  3.930075  0  0  -0.176263  0  3.950894  0  0  -0.077676  -0.163615  0  3.915812  0
C  C69  1  0.10438486  0.85202569  0.23078260  1  0  -0.148751  0  3.680077  0  0  -0.168709  0  3.929948  0  0  -0.176197  0  3.950768  0  0  -0.077685  -0.163549  0  3.915673  0
N  N70  1  0.49781446  0.74844076  0.84120666  1  0  -0.342254  0  3.231628  0  0  -0.272326  0  3.493623  0  0  -0.289985  0  3.510831  0  0  -0.312883  -0.260503  0  3.482095  0
N  N71  1  0.50218687  0.25155759  0.15879007  1  0  -0.342256  0  3.231747  0  0  -0.272299  0  3.493751  0  0  -0.289954  0  3.510954  0  0  -0.312893  -0.260479  0  3.482223  0
N  N72  1  0.76213606  0.60810353  0.75453933  1  0  -0.360853  0  3.330039  0  0  -0.289193  0  3.58665  0  0  -0.306934  0  3.60019  0  0  -0.321988  -0.276983  0  3.577264  0
N  N73  1  0.23786535  0.39189384  0.24546210  1  0  -0.360917  0  3.330108  0  0  -0.289224  0  3.586725  0  0  -0.30697  0  3.60025  0  0  -0.32196  -0.27702  0  3.577349  0
N  N74  1  0.02707046  0.74680886  0.66146886  1  0  -0.33735  0  3.227306  0  0  -0.266193  0  3.485391  0  0  -0.283471  0  3.502249  0  0  -0.310426  -0.254743  0  3.474039  0
N  N75  1  0.97292719  0.25318851  0.33853508  1  0  -0.337407  0  3.227272  0  0  -0.266276  0  3.485349  0  0  -0.283555  0  3.502209  0  0  -0.310463  -0.254826  0  3.473997  0
N  N76  1  0.76249108  0.97969762  0.74558027  1  0  -0.314248  0  3.326324  0  0  -0.223522  0  3.588998  0  0  -0.24275  0  3.603902  0  0  -0.330272  -0.209949  0  3.578163  0
N  N77  1  0.23750880  0.02030353  0.25441865  1  0  -0.314238  0  3.326334  0  0  -0.22355  0  3.589006  0  0  -0.242777  0  3.603905  0  0  -0.330279  -0.209976  0  3.578171  0
N  N78  1  0.73655013  0.83008556  0.45935600  1  0  0.691298  0  4.145935  0  0  0.726622  0  4.441406  0  0  0.752811  0  4.447228  0  0  0.097625  0.72053  0  4.419086  0
N  N79  1  0.26344717  0.16991650  0.54064583  1  0  0.691309  0  4.145574  0  0  0.726581  0  4.441078  0  0  0.752775  0  4.446896  0  0  0.097524  0.720413  0  4.418882  0
N  N80  1  0.76234436  0.76795743  0.04441550  1  0  0.713537  0  4.107773  0  0  0.732773  0  4.42163  0  0  0.76144  0  4.42559  0  0  0.094412  0.713461  0  4.418545  0
N  N81  1  0.23765420  0.23204464  0.95558519  1  0  0.689774  0  4.141189  0  0  0.732931  0  4.421447  0  0  0.7616  0  4.425399  0  0  0.09445  0.713616  0  4.41837  0
O  O82  1  0.71093075  0.88037353  0.55402667  1  0  -0.517421  0  1.83094  0  0  -0.498393  0  2.089712  0  0  -0.516547  0  2.079783  0  0  -0.216376  -0.489316  0  2.091704  0
O  O83  1  0.28906893  0.11963042  0.44597240  1  0  -0.517443  0  1.830781  0  0  -0.498381  0  2.089514  0  0  -0.51654  0  2.079582  0  0  -0.216371  -0.489284  0  2.091542  0
O  O84  1  0.77230495  0.71388495  0.47619916  1  0  -0.465135  0  1.742588  0  0  -0.461295  0  1.954742  0  0  -0.473584  0  1.949828  0  0  -0.195217  -0.456429  0  1.952844  0
O  O85  1  0.22769104  0.28611806  0.52380267  1  0  -0.465139  0  1.742473  0  0  -0.461258  0  1.954636  0  0  -0.473552  0  1.949722  0  0  -0.195143  -0.456361  0  1.95277  0
O  O86  1  0.72338314  0.90038993  0.35290459  1  0  -0.446356  0  1.744875  0  0  -0.440992  0  1.960102  0  0  -0.45317  0  1.953652  0  0  -0.181738  -0.436227  0  1.959233  0
O  O87  1  0.27661416  0.09961215  0.64709547  1  0  -0.44637  0  1.744817  0  0  -0.441012  0  1.96004  0  0  -0.453186  0  1.953583  0  0  -0.181728  -0.436222  0  1.95921  0
O  O88  1  0.80985690  0.72288646  0.94555042  1  0  -0.531381  0  1.822459  0  0  -0.506059  0  2.079024  0  0  -0.524848  0  2.070054  0  0  -0.21595  -0.492866  0  2.084928  0
O  O89  1  0.19014166  0.27711562  0.05444849  1  0  -0.523623  0  1.831435  0  0  -0.506089  0  2.079052  0  0  -0.524875  0  2.070073  0  0  -0.215924  -0.492891  0  2.084949  0
O  O90  1  0.71122904  0.88051258  0.03299196  1  0  -0.451109  0  1.713276  0  0  -0.442148  0  1.918851  0  0  -0.455158  0  1.914727  0  0  -0.190249  -0.433114  0  1.921328  0
O  O91  1  0.28876958  0.11948856  0.96700809  1  0  -0.443103  0  1.722971  0  0  -0.442287  0  1.918778  0  0  -0.455296  0  1.914651  0  0  -0.190351  -0.433249  0  1.921256  0
O  O92  1  0.77001349  0.69356180  0.15166896  1  0  -0.489598  0  1.716314  0  0  -0.480808  0  1.941572  0  0  -0.494132  0  1.933522  0  0  -0.204685  -0.47148  0  1.946958  0
O  O93  1  0.22998382  0.30644027  0.84833109  1  0  -0.481644  0  1.725706  0  0  -0.4808  0  1.941447  0  0  -0.494131  0  1.933402  0  0  -0.204629  -0.471469  0  1.94683  0
