# generated using pymatgen
data_YbH14C21(SN3)2
_symmetry_space_group_name_H-M   'P 1'
_cell_length_a   9.82914251
_cell_length_b   10.16324978
_cell_length_c   10.59196194
_cell_angle_alpha   88.27019408
_cell_angle_beta   84.32623616
_cell_angle_gamma   67.43545229
_symmetry_Int_Tables_number   1
_chemical_formula_structural   YbH14C21(SN3)2
_chemical_formula_sum   'Yb2 H28 C42 S4 N12'
_cell_volume   972.27405747
_cell_formula_units_Z   2
loop_
 _symmetry_equiv_pos_site_id
 _symmetry_equiv_pos_as_xyz
  1  'x, y, z'
loop_
 _atom_site_type_symbol
 _atom_site_label
 _atom_site_symmetry_multiplicity
 _atom_site_fract_x
 _atom_site_fract_y
 _atom_site_fract_z
 _atom_site_occupancy
 _atom_site_pbe_bader_spin_density
 _atom_site_pbe_cm5_charge
 _atom_site_pbe_ddec_charge
 _atom_site_pbe_ddec_spin_density
 _atom_site_pbe_ddec_sum_bond_order
 _atom_site_pbe_magmom
Yb  Yb0  1  0.81601651  0.44537826  0.02934943  1  0  1.466133  1.614322  0  2.552265  0
Yb  Yb1  1  0.18398539  0.55462113  0.97064991  1  0  1.466145  1.614399  0  2.552164  0
H  H2  1  0.01461922  0.97005856  0.23980561  1  0  0.332303  0.30178  0  0.904149  0
H  H3  1  0.98538157  0.02994084  0.76019468  1  0  0.332354  0.301887  0  0.904061  0
H  H4  1  0.80477449  0.95102214  0.03715841  1  0  0.292219  0.278815  0  0.982283  0
H  H5  1  0.19522456  0.04897724  0.96283904  1  0  0.292209  0.278842  0  0.982218  0
H  H6  1  0.17438031  0.96470606  0.45947899  1  0  0.097073  0.107169  0  1.052998  0
H  H7  1  0.82561746  0.03529763  0.54052415  1  0  0.097067  0.10717  0  1.052984  0
H  H8  1  0.24982203  0.12908414  0.58136335  1  0  0.09383  0.093695  0  1.032804  0
H  H9  1  0.75018197  0.87091740  0.41863693  1  0  0.093808  0.093659  0  1.032813  0
H  H10  1  0.17867332  0.38207105  0.52062470  1  0  0.094413  0.088612  0  1.044318  0
H  H11  1  0.82132934  0.61793155  0.47937464  1  0  0.094405  0.088626  0  1.044345  0
H  H12  1  0.02660935  0.48184359  0.34171573  1  0  0.097202  0.117085  0  1.032888  0
H  H13  1  0.97339181  0.51815793  0.65828266  1  0  0.0972  0.117046  0  1.032906  0
H  H14  1  0.60547233  0.14165506  0.87020180  1  0  0.101789  0.125641  0  1.002798  0
H  H15  1  0.39452446  0.85834648  0.12979946  1  0  0.101777  0.12563  0  1.00283  0
H  H16  1  0.43673267  0.13808851  0.71112593  1  0  0.09176  0.088601  0  1.044228  0
H  H17  1  0.56326566  0.86191196  0.28887437  1  0  0.091771  0.08863  0  1.044177  0
H  H18  1  0.40323251  0.91579364  0.66317897  1  0  0.093442  0.090765  0  1.024957  0
H  H19  1  0.59676858  0.08420574  0.33681848  1  0  0.093434  0.090717  0  1.024915  0
H  H20  1  0.54098399  0.68795543  0.76943039  1  0  0.103306  0.115297  0  1.029026  0
H  H21  1  0.45901699  0.31204396  0.23056801  1  0  0.103305  0.115289  0  1.02904  0
H  H22  1  0.12810616  0.67705272  0.33790080  1  0  0.094572  0.105019  0  1.038509  0
H  H23  1  0.87189595  0.32294666  0.66209664  1  0  0.094587  0.105028  0  1.038448  0
H  H24  1  0.20915892  0.73171353  0.53796209  1  0  0.092738  0.090407  0  1.04587  0
H  H25  1  0.79084217  0.26828585  0.46203536  1  0  0.092722  0.090401  0  1.045863  0
H  H26  1  0.47022287  0.69704741  0.55503629  1  0  0.098524  0.098438  0  1.021901  0
H  H27  1  0.52977844  0.30295092  0.44496305  1  0  0.098519  0.098423  0  1.02189  0
H  H28  1  0.66243187  0.59858271  0.37317322  1  0  0.102317  0.108814  0  1.02365  0
H  H29  1  0.33757029  0.40141349  0.62682612  1  0  0.102315  0.108806  0  1.023648  0
C  C30  1  0.92343624  0.17879125  0.16687951  1  0  0.196592  0.356934  0  4.193556  0
C  C31  1  0.07656380  0.82121028  0.83311983  1  0  0.196639  0.356999  0  4.193313  0
C  C32  1  0.05595640  0.13426303  0.33463197  1  0  0.090245  0.142201  0  4.021064  0
C  C33  1  0.94404169  0.86573960  0.66537212  1  0  0.090331  0.142344  0  4.021018  0
C  C34  1  0.14020336  0.07700947  0.43566436  1  0  -0.101309  -0.17618  0  4.012303  0
C  C35  1  0.85979690  0.92299101  0.56433689  1  0  -0.101343  -0.176321  0  4.012303  0
C  C36  1  0.18251417  0.16953418  0.50227368  1  0  -0.103791  -0.095842  0  4.041913  0
C  C37  1  0.81748219  0.83046842  0.49772758  1  0  -0.103772  -0.095713  0  4.041902  0
C  C38  1  0.14204643  0.31319779  0.46814768  1  0  -0.102121  -0.094549  0  4.050192  0
C  C39  1  0.85795212  0.68680162  0.53185452  1  0  -0.10214  -0.094689  0  4.050152  0
C  C40  1  0.05690165  0.37040184  0.36732097  1  0  -0.095907  -0.162617  0  3.95522  0
C  C41  1  0.94309558  0.62959760  0.63268408  1  0  -0.095851  -0.162483  0  3.954961  0
C  C42  1  0.01324113  0.27959604  0.30002197  1  0  0.089613  0.186928  0  4.039665  0
C  C43  1  0.98675733  0.72040871  0.69998022  1  0  0.089533  0.186885  0  4.039544  0
C  C44  1  0.80886838  0.73981377  0.02359746  1  0  0.206962  0.355993  0  4.170286  0
C  C45  1  0.19113084  0.26018774  0.97640000  1  0  0.206959  0.356026  0  4.170281  0
C  C46  1  0.66834017  0.91514296  0.90691010  1  0  0.094891  0.150129  0  3.994318  0
C  C47  1  0.33165613  0.08485750  0.09309021  1  0  0.094944  0.150236  0  3.994217  0
C  C48  1  0.59222681  0.04348683  0.84806609  1  0  -0.098281  -0.16491  0  3.968027  0
C  C49  1  0.40777082  0.95651258  0.15193516  1  0  -0.098318  -0.164975  0  3.967964  0
C  C50  1  0.49728495  0.04012979  0.75982692  1  0  -0.102558  -0.084349  0  4.033634  0
C  C51  1  0.50271273  0.95987279  0.24017149  1  0  -0.102538  -0.084393  0  4.033745  0
C  C52  1  0.47873846  0.91371996  0.73273657  1  0  -0.105267  -0.104339  0  4.054203  0
C  C53  1  0.52125836  0.08627943  0.26726279  1  0  -0.105289  -0.104263  0  4.054168  0
C  C54  1  0.55532156  0.78544444  0.79138220  1  0  -0.092524  -0.153207  0  3.964675  0
C  C55  1  0.44467729  0.21455496  0.20861715  1  0  -0.09254  -0.153204  0  3.964602  0
C  C56  1  0.65198732  0.78648821  0.87937138  1  0  0.091824  0.186  0  4.013528  0
C  C57  1  0.34800988  0.21351227  0.12062988  1  0  0.091827  0.185968  0  4.013531  0
C  C58  1  0.48102573  0.52353053  0.06503997  1  0  0.201207  0.259943  0  4.140488  0
C  C59  1  0.51897752  0.47646781  0.93496032  1  0  0.201167  0.259905  0  4.140451  0
C  C60  1  0.35134076  0.60614942  0.24213214  1  0  0.086972  0.169184  0  4.037147  0
C  C61  1  0.64865964  0.39384890  0.75786626  1  0  0.086949  0.169136  0  4.037105  0
C  C62  1  0.24364707  0.66026246  0.34469118  1  0  -0.102453  -0.177265  0  3.984746  0
C  C63  1  0.75635300  0.33973692  0.65530627  1  0  -0.102434  -0.1772  0  3.984744  0
C  C64  1  0.29008920  0.69179945  0.45609780  1  0  -0.103517  -0.095592  0  4.04947  0
C  C65  1  0.70991067  0.30819994  0.54390154  1  0  -0.103495  -0.095615  0  4.04955  0
C  C66  1  0.43869467  0.67185152  0.46594722  1  0  -0.098614  -0.08939  0  4.034404  0
C  C67  1  0.56130507  0.32815003  0.53405497  1  0  -0.098583  -0.089345  0  4.034367  0
C  C68  1  0.54696597  0.61670820  0.36548341  1  0  -0.092975  -0.163391  0  3.997043  0
C  C69  1  0.45303395  0.38328801  0.63451784  1  0  -0.092993  -0.16338  0  3.997056  0
C  C70  1  0.50273949  0.58304505  0.25345622  1  0  0.091022  0.175755  0  4.031797  0
C  C71  1  0.49726073  0.41695114  0.74654218  1  0  0.091017  0.175746  0  4.03172  0
S  S72  1  0.83501870  0.16542201  0.04034432  1  0  -0.238636  -0.524912  0  2.378703  0
S  S73  1  0.16498829  0.83457739  0.95965500  1  0  -0.238637  -0.524895  0  2.378473  0
S  S74  1  0.92417223  0.64066373  0.13496348  1  0  -0.254493  -0.599424  0  2.40278  0
S  S75  1  0.07582935  0.35933672  0.86503491  1  0  -0.254453  -0.599359  0  2.402814  0
N  N76  1  0.93038245  0.30441539  0.19639753  1  0  -0.497942  -0.561342  0  3.474819  0
N  N77  1  0.06961984  0.69558509  0.80360371  1  0  -0.497969  -0.561403  0  3.474693  0
N  N78  1  0.99693371  0.07461560  0.24885506  1  0  -0.380969  -0.305696  0  3.558754  0
N  N79  1  0.00306469  0.92538700  0.75114619  1  0  -0.381047  -0.305864  0  3.558731  0
N  N80  1  0.74256038  0.67866015  0.95304238  1  0  -0.48348  -0.541537  0  3.48504  0
N  N81  1  0.25743772  0.32134137  0.04695603  1  0  -0.483489  -0.541638  0  3.485082  0
N  N82  1  0.76808877  0.88080322  0.99823426  1  0  -0.375792  -0.283814  0  3.58771  0
N  N83  1  0.23190976  0.11919723  0.00176414  1  0  -0.375802  -0.283874  0  3.587619  0
N  N84  1  0.58357330  0.52891745  0.13917088  1  0  -0.495876  -0.521105  0  3.448264  0
N  N85  1  0.41642886  0.47107875  0.86082846  1  0  -0.495942  -0.521234  0  3.448106  0
N  N86  1  0.34102208  0.56657147  0.12056373  1  0  -0.47442  -0.508069  0  3.456007  0
N  N87  1  0.65898084  0.43342793  0.87943561  1  0  -0.474377  -0.507942  0  3.455928  0
