# generated using pymatgen
data_Zn4H54(C15N4)5
_symmetry_space_group_name_H-M   'P 1'
_cell_length_a   20.46927976
_cell_length_b   18.61829557
_cell_length_c   21.47321536
_cell_angle_alpha   99.31834486
_cell_angle_beta   111.15399791
_cell_angle_gamma   115.39285031
_symmetry_Int_Tables_number   1
_chemical_formula_structural   Zn4H54(C15N4)5
_chemical_formula_sum   'Zn4 H54 C75 N20'
_cell_volume   6389.15215665
_cell_formula_units_Z   1
loop_
 _symmetry_equiv_pos_site_id
 _symmetry_equiv_pos_as_xyz
  1  'x, y, z'
loop_
 _atom_site_type_symbol
 _atom_site_label
 _atom_site_symmetry_multiplicity
 _atom_site_fract_x
 _atom_site_fract_y
 _atom_site_fract_z
 _atom_site_occupancy
 _atom_site_pbe_bader_charge
 _atom_site_pbe_bader_spin_density
 _atom_site_pbe_cm5_charge
 _atom_site_pbe_ddec_charge
 _atom_site_pbe_ddec_spin_density
 _atom_site_pbe_ddec_sum_bond_order
 _atom_site_pbe_magmom
Zn  Zn0  1  0.87804676  0.91475449  0.50710776  1  1.173684  0  0.743249  0.668764  0  2.228116  0
Zn  Zn1  1  0.12986048  0.13165634  0.49694442  1  1.197182  0  0.748247  0.659926  0  2.291331  0
Zn  Zn2  1  0.08708889  0.99953327  0.58779571  1  1.179591  0  0.743254  0.617737  0  2.437473  0
Zn  Zn3  1  0.92446931  0.03027308  0.39059701  1  1.16738  0  0.789034  0.69016  0  2.318199  0
H  H4  1  0.86804722  0.90032976  0.65919077  1  0.074372  0  0.113966  0.100768  0  1.005733  0
H  H5  1  0.24057897  0.08916812  0.45789179  1  0.070936  0  0.11022  0.091837  0  1.037478  0
H  H6  1  0.08651192  0.83730767  0.54155999  1  0.08811  0  0.115705  0.108155  0  1.002986  0
H  H7  1  0.91148112  0.94394554  0.24854178  1  0.077635  0  0.119866  0.108313  0  1.005444  0
H  H8  1  0.17754534  0.10723645  0.35714728  1  0.068376  0  0.12041  0.108343  0  0.994214  0
H  H9  1  0.84023018  0.72543708  0.51664519  1  0.078968  0  0.117805  0.103578  0  0.992879  0
H  H10  1  0.75459695  0.89152691  0.23705903  1  0.077774  0  0.117954  0.103702  0  0.998487  0
H  H11  1  0.26857240  0.00127626  0.63491171  1  0.072686  0  0.119284  0.106301  0  0.995785  0
H  H12  1  0.61755314  0.18216976  0.51633703  1  0.059704  0  0.097895  0.096087  0  1.007265  0
H  H13  1  0.71777678  0.15637588  0.49594740  1  0.033618  0  0.09554  0.093348  0  1.011826  0
H  H14  1  0.70225178  0.99891693  0.62298672  1  0.033994  0  0.097612  0.099026  0  1.001556  0
H  H15  1  0.14611989  0.30846608  0.57512697  1  0.081281  0  0.115949  0.097042  0  1.020987  0
H  H16  1  0.60209938  0.02461945  0.64330942  1  0.055515  0  0.097408  0.094595  0  1.010808  0
H  H17  1  0.55174488  0.10057418  0.68433062  1  0.069878  0  0.099943  0.098978  0  1.003649  0
H  H18  1  0.41884906  0.07658586  0.67121131  1  0.036295  0  0.097467  0.096441  0  1.005068  0
H  H19  1  0.34638874  0.07401636  0.45537171  1  0.038372  0  0.095762  0.09512  0  1.00792  0
H  H20  1  0.47909953  0.09863560  0.46886909  1  0.039134  0  0.098418  0.0966  0  1.010619  0
H  H21  1  0.12764105  0.55070144  0.63622631  1  0.041216  0  0.099122  0.097617  0  1.01095  0
H  H22  1  0.13906744  0.42493083  0.61198516  1  0.030245  0  0.096601  0.094863  0  1.013334  0
H  H23  1  0.88545565  0.26190369  0.55981294  1  0.061948  0  0.099874  0.101918  0  1.014555  0
H  H24  1  0.87474919  0.38882580  0.58516313  1  0.059499  0  0.1009  0.099814  0  1.002391  0
H  H25  1  0.86057580  0.46776830  0.51670257  1  0.055919  0  0.098307  0.096321  0  1.011931  0
H  H26  1  0.09949715  0.13682913  0.70598228  1  0.127092  0  0.121267  0.115945  0  1.00338  0
H  H27  1  0.84690710  0.58278674  0.48288790  1  0.055128  0  0.098262  0.097368  0  1.002663  0
H  H28  1  0.09694579  0.76898650  0.64842832  1  0.081078  0  0.09594  0.094091  0  1.008735  0
H  H29  1  0.11067909  0.65415328  0.68325719  1  0.049907  0  0.100155  0.099424  0  1.002419  0
H  H30  1  0.21744861  0.23776935  0.83919412  1  0.079717  0  0.100465  0.101961  0  0.996057  0
H  H31  1  0.30132629  0.35500515  0.96053958  1  0.069766  0  0.104972  0.10719  0  1.008711  0
H  H32  1  0.51755990  0.49476161  0.14631024  1  0.066436  0  0.104818  0.106944  0  0.997063  0
H  H33  1  0.65031048  0.61407010  0.25300192  1  0.069053  0  0.100007  0.102138  0  0.997807  0
H  H34  1  0.26753798  0.42606258  0.74149080  1  0.062718  0  0.096173  0.094562  0  1.007954  0
H  H35  1  0.47822279  0.67736543  0.06580216  1  0.096709  0  0.104432  0.105732  0  1.015898  0
H  H36  1  0.35034640  0.54291570  0.86364701  1  0.079665  0  0.105547  0.107744  0  0.996419  0
H  H37  1  0.71163436  0.03784543  0.41499887  1  0.060357  0  0.109714  0.096773  0  0.997415  0
H  H38  1  0.60784044  0.79704960  0.17367169  1  0.044221  0  0.098758  0.098284  0  1.002394  0
H  H39  1  0.93062455  0.96582461  0.14112766  1  0.024271  0  0.095041  0.094534  0  1.01854  0
H  H40  1  0.85001140  0.75005418  0.82555133  1  0.035287  0  0.108578  0.108867  0  0.990689  0
H  H41  1  0.85175586  0.78533480  0.71855574  1  0.055923  0  0.100237  0.101794  0  0.998741  0
H  H42  1  0.15326277  0.96822919  0.25696193  1  0.054377  0  0.098617  0.101603  0  0.999343  0
H  H43  1  0.11477938  0.90958578  0.94549208  1  0.107544  0  0.10597  0.107591  0  1.012293  0
H  H44  1  0.14415331  0.90786223  0.13965234  1  0.069651  0  0.10459  0.108743  0  0.992334  0
H  H45  1  0.11741539  0.94531791  0.83970427  1  0.074272  0  0.099268  0.098938  0  1.004169  0
H  H46  1  0.28187387  0.31602015  0.66258075  1  0.075473  0  0.118833  0.10669  0  0.98923  0
H  H47  1  0.83346924  0.00932513  0.61281465  1  0.090595  0  0.110257  0.10251  0  1.019805  0
H  H48  1  0.88077545  0.14570851  0.48220329  1  0.15271  0  0.115841  0.105739  0  1.049125  0
H  H49  1  0.11452615  0.94785268  0.72994252  1  0.056288  0  0.116912  0.10358  0  0.999115  0
H  H50  1  0.75019687  0.74351096  0.37338972  1  0.103361  0  0.115207  0.099999  0  1.002855  0
H  H51  1  0.83991890  0.89398699  0.86426702  1  0.031883  0  0.079391  0.103979  0  1.026543  0
H  H52  1  0.81268967  0.95514455  0.91029086  1  0.006145  0  0.080432  0.102463  0  1.008165  0
H  H53  1  0.88837998  0.00596852  0.88398607  1  0.024454  0  0.084592  0.109919  0  1.002747  0
H  H54  1  0.95841408  0.03572181  0.01657950  1  -0.001408  0  0.084513  0.071277  0  0.977039  0
H  H55  1  0.98312243  0.97392395  0.96940909  1  0.025877  0  0.087286  0.077996  0  0.998854  0
H  H56  1  0.86683490  0.83959358  0.96565324  1  0.057531  0  0.091042  0.085374  0  1.029185  0
H  H57  1  0.85496999  0.90876456  0.02142391  1  0.020791  0  0.087246  0.084138  0  0.984778  0
C  C58  1  0.92933036  0.91766988  0.66746488  1  0.415497  0  0.000891  -0.058037  0  4.000448  0
C  C59  1  0.01296403  0.25849901  0.54579356  1  -0.004772  0  -0.028487  -0.031527  0  4.043454  0
C  C60  1  0.20350279  0.25633065  0.71298976  1  0.032901  0  -0.034026  -0.044421  0  4.080948  0
C  C61  1  0.75850568  0.04159955  0.52889458  1  -0.028892  0  -0.045333  -0.052881  0  4.098345  0
C  C62  1  0.76354086  0.79184710  0.34972793  1  0.392426  0  0.01102  -0.036535  0  3.962736  0
C  C63  1  0.23475783  0.06544986  0.49973199  1  0.376594  0  -0.000855  -0.058009  0  3.992636  0
C  C64  1  0.02553034  0.82154795  0.53301801  1  0.354965  0  -0.002782  -0.063468  0  3.978236  0
C  C65  1  0.97650670  0.99118188  0.28516392  1  0.408895  0  0.01027  -0.042493  0  3.975211  0
C  C66  1  0.11227594  0.07309424  0.34141768  1  0.405375  0  0.013498  -0.03985  0  3.957854  0
C  C67  1  0.89945971  0.76389196  0.51921553  1  0.372259  0  0.010855  -0.045686  0  3.977226  0
C  C68  1  0.76482685  0.86727862  0.28010709  1  0.389807  0  0.009307  -0.052545  0  3.992042  0
C  C69  1  0.08139876  0.25800846  0.54514637  1  0.448624  0  0.015383  -0.021975  0  3.959843  0
C  C70  1  0.24975121  0.02186542  0.59064314  1  0.429938  0  0.011022  -0.045526  0  3.964943  0
C  C71  1  0.71792595  0.78563335  0.27965721  1  0.073942  0  -0.032677  -0.035749  0  4.081563  0
C  C72  1  0.29035922  0.05343538  0.55159910  1  0.001193  0  -0.036411  -0.036458  0  4.085937  0
C  C73  1  0.96607163  0.75162703  0.53806580  1  0.090759  0  -0.033061  -0.031122  0  4.083146  0
C  C74  1  0.04471976  0.00958666  0.27455452  1  0.053456  0  -0.028835  -0.025519  0  4.055805  0
C  C75  1  0.63546325  0.14131991  0.53954612  1  -0.103693  0  -0.097522  -0.133781  0  4.020886  0
C  C76  1  0.69226366  0.12696433  0.52822576  1  -0.005567  0  -0.099841  -0.139663  0  4.007744  0
C  C77  1  0.71508998  0.07244166  0.55524713  1  -0.017134  0  -0.010286  0.091729  0  4.040993  0
C  C78  1  0.68535056  0.04086654  0.60074636  1  0.01607  0  -0.097839  -0.136455  0  3.997802  0
C  C79  1  0.62868224  0.05550970  0.61223411  1  -0.092396  0  -0.094246  -0.126265  0  4.007655  0
C  C80  1  0.13886975  0.17034098  0.68458964  1  0.361045  0  0.012398  -0.032232  0  3.950286  0
C  C81  1  0.59910111  0.10225723  0.57880960  1  -0.004424  0  -0.017428  0.054082  0  4.01937  0
C  C82  1  0.50656108  0.09403837  0.63358631  1  -0.035568  0  -0.094946  -0.13241  0  4.011313  0
C  C83  1  0.43116419  0.08012015  0.62605682  1  -0.050932  0  -0.096458  -0.134292  0  4.008474  0
C  C84  1  0.37103564  0.07126908  0.56160650  1  -0.006081  0  -0.014968  0.078948  0  4.059472  0
C  C85  1  0.39151086  0.08094552  0.50635752  1  -0.044422  0  -0.098308  -0.134655  0  4.010408  0
C  C86  1  0.46691218  0.09537430  0.51408064  1  -0.028094  0  -0.096007  -0.130542  0  4.00787  0
C  C87  1  0.52564008  0.10020701  0.57719445  1  0.010817  0  -0.011866  0.065467  0  4.010988  0
C  C88  1  0.07448816  0.48763617  0.62064409  1  -0.064849  0  -0.093651  -0.128423  0  4.008361  0
C  C89  1  0.08065828  0.41599121  0.60629827  1  -0.031645  0  -0.095776  -0.132561  0  4.008259  0
C  C90  1  0.01130506  0.33262676  0.57846174  1  0.007347  0  -0.011828  0.082078  0  4.039644  0
C  C91  1  0.74786589  0.02517574  0.45795832  1  0.463925  0  -0.00446  -0.062017  0  4.056214  0
C  C92  1  0.93877444  0.32511337  0.57576336  1  -0.037047  0  -0.093755  -0.130377  0  3.979344  0
C  C93  1  0.93270982  0.39699223  0.59014397  1  -0.008492  0  -0.09331  -0.129392  0  4.001745  0
C  C94  1  0.99873945  0.47933717  0.60793273  1  -0.011567  0  -0.013725  0.058119  0  4.011148  0
C  C95  1  0.91224456  0.53406490  0.54703199  1  -0.014116  0  -0.093559  -0.126613  0  4.002072  0
C  C96  1  0.90465881  0.59887019  0.52750142  1  -0.117654  0  -0.097887  -0.137214  0  4.009784  0
C  C97  1  0.97208254  0.68400950  0.56116892  1  -0.010336  0  -0.010124  0.087493  0  4.047773  0
C  C98  1  0.04541360  0.70247088  0.61871136  1  -0.050292  0  -0.09823  -0.136673  0  4.005348  0
C  C99  1  0.05287763  0.63765715  0.63844847  1  -0.024592  0  -0.093689  -0.129694  0  4.00507  0
C  C100  1  0.98738560  0.55133885  0.60104585  1  -0.036444  0  -0.010585  0.064006  0  4.008018  0
C  C101  1  0.63956205  0.71416797  0.22008749  1  -0.010075  0  -0.00322  0.097685  0  4.032212  0
C  C102  1  0.23131817  0.26148064  0.66168773  1  0.423368  0  0.010052  -0.045776  0  3.999768  0
C  C103  1  0.58897669  0.73065990  0.16701422  1  -0.027266  0  -0.093818  -0.128862  0  3.991549  0
C  C104  1  0.51626474  0.66464858  0.10745315  1  -0.027354  0  -0.087005  -0.134924  0  3.975032  0
C  C105  1  0.49102836  0.57889283  0.09940448  1  0.341704  0  0.079005  0.161175  0  4.060124  0
C  C106  1  0.53841341  0.56164607  0.15362695  1  -0.018004  0  -0.084231  -0.136274  0  3.981658  0
C  C107  1  0.61208354  0.62837223  0.21292188  1  -0.099589  0  -0.09652  -0.136786  0  3.99255  0
C  C108  1  0.29286073  0.36951664  0.91208162  1  0.0122  0  -0.085453  -0.135432  0  3.966339  0
C  C109  1  0.24640747  0.30474239  0.84438810  1  -0.086677  0  -0.089922  -0.123724  0  3.979469  0
C  C110  1  0.33345560  0.45582371  0.91902761  1  0.342765  0  0.081281  0.16524  0  4.067137  0
C  C111  1  0.24012575  0.32381809  0.78216727  1  -0.001207  0  -0.004315  0.095293  0  4.026771  0
C  C112  1  0.27530356  0.41030596  0.78942577  1  -0.090343  0  -0.096352  -0.134421  0  4.00033  0
C  C113  1  0.80781402  0.00960366  0.55893168  1  0.355055  0  -0.010606  -0.075167  0  3.996845  0
C  C114  1  0.32061158  0.47550997  0.85689140  1  -0.010967  0  -0.084583  -0.136961  0  3.982432  0
C  C115  1  0.98447100  0.87160668  0.77280187  1  -0.032851  0  -0.001833  0.102528  0  4.029979  0
C  C116  1  0.05863035  0.90127465  0.83600798  1  -0.052746  0  -0.09097  -0.126211  0  3.985624  0
C  C117  1  0.05782536  0.88144805  0.89509313  1  -0.037073  0  -0.086959  -0.136706  0  3.98022  0
C  C118  1  0.98181939  0.83009281  0.89264810  1  0.345596  0  0.081032  0.151723  0  4.049661  0
C  C119  1  0.90817341  0.79202549  0.82730061  1  0.00938  0  -0.079734  -0.129887  0  3.977044  0
C  C120  1  0.90947397  0.81278911  0.76821891  1  -0.040065  0  -0.093941  -0.138008  0  3.992314  0
C  C121  1  0.96796967  0.91359446  0.07445369  1  0.056298  0  0.000731  0.076323  0  3.890305  0
C  C122  1  0.97634844  0.95022160  0.14109159  1  -0.041785  0  -0.096099  -0.19226  0  3.965091  0
C  C123  1  0.03032125  0.89760252  0.07486234  1  0.357237  0  0.087735  0.113959  0  4.017203  0
C  C124  1  0.94602909  0.17553336  0.49864777  1  0.364394  0  0.01515  -0.023619  0  3.924063  0
C  C125  1  0.04183590  0.97118216  0.20763694  1  -0.042127  0  -0.011337  0.090236  0  4.051991  0
C  C126  1  0.10221753  0.95425548  0.20655308  1  -0.059424  0  -0.099346  -0.142216  0  4.017428  0
C  C127  1  0.09674335  0.91941193  0.14127482  1  -0.012302  0  -0.08762  -0.138761  0  4.001681  0
C  C128  1  0.05540985  0.94277309  0.70458491  1  0.412772  0  0.005458  -0.05782  0  3.998814  0
C  C129  1  0.98790855  0.90621214  0.71724477  1  0.016621  0  -0.039061  -0.048519  0  4.102029  0
C  C130  1  0.89987137  0.90333479  0.00744675  1  -0.010206  0  -0.164996  -0.199522  0  3.966149  0
C  C131  1  0.93204494  0.97222437  0.97668244  1  0.000531  0  -0.164539  -0.081759  0  3.939229  0
C  C132  1  0.86450801  0.95610356  0.90493543  1  -0.068861  0  -0.247287  -0.348808  0  3.984421  0
N  N133  1  0.95952232  0.95770745  0.62842431  1  -0.764852  0  -0.265364  -0.226258  0  3.425991  0
N  N134  1  0.16709288  0.04408380  0.50777247  1  -0.776912  0  -0.283285  -0.215747  0  3.529085  0
N  N135  1  0.99709191  0.87278003  0.51375218  1  -0.771933  0  -0.285317  -0.224368  0  3.481607  0
N  N136  1  0.00154159  0.04020663  0.35242949  1  -0.819814  0  -0.289684  -0.205729  0  3.625039  0
N  N137  1  0.08611975  0.09185541  0.38761934  1  -0.775431  0  -0.272825  -0.18938  0  3.544979  0
N  N138  1  0.91913998  0.83613429  0.50569921  1  -0.785103  0  -0.282216  -0.165759  0  3.651767  0
N  N139  1  0.83137768  0.91675975  0.34564500  1  -0.808568  0  -0.29607  -0.179227  0  3.759905  0
N  N140  1  0.17685499  0.01697950  0.56409565  1  -0.801009  0  -0.27945  -0.163955  0  3.610611  0
N  N141  1  0.42384876  0.50720483  0.03708497  1  -0.479258  0  -0.161989  -0.152763  0  3.293857  0
N  N142  1  0.39309188  0.52638863  0.98428947  1  -0.47722  0  -0.161787  -0.153707  0  3.313033  0
N  N143  1  0.97212578  0.82727995  0.95411060  1  -0.464075  0  -0.149937  -0.128974  0  3.298602  0
N  N144  1  0.05740228  0.18163918  0.50060896  1  -0.817571  0  -0.278835  -0.202612  0  3.575743  0
N  N145  1  0.03861117  0.87501169  0.01372696  1  -0.521222  0  -0.160581  -0.14822  0  3.326322  0
N  N146  1  0.12944508  0.12812517  0.62157411  1  -0.805649  0  -0.285847  -0.210561  0  3.582891  0
N  N147  1  0.78607688  0.98620626  0.44558558  1  -0.714668  0  -0.268864  -0.234935  0  3.326866  0
N  N148  1  0.18762485  0.18460075  0.60789572  1  -0.79168  0  -0.282167  -0.199523  0  3.554801  0
N  N149  1  0.82352889  0.97702632  0.50834105  1  -0.827179  0  -0.296096  -0.200016  0  3.719374  0
N  N150  1  0.97352192  0.13046449  0.47191476  1  -0.807822  0  -0.301128  -0.204414  0  3.691297  0
N  N151  1  0.03749768  0.97235828  0.65174023  1  -0.809187  0  -0.283648  -0.16959  0  3.638528  0
N  N152  1  0.83101126  0.87125548  0.38927472  1  -0.756849  0  -0.261647  -0.202112  0  3.496779  0
