# generated using pymatgen
data_CuB2H18(C2N11)2
_symmetry_space_group_name_H-M   'P 1'
_cell_length_a   6.50245773
_cell_length_b   7.18114504
_cell_length_c   9.64141621
_cell_angle_alpha   74.58749119
_cell_angle_beta   82.20347532
_cell_angle_gamma   79.79433376
_symmetry_Int_Tables_number   1
_chemical_formula_structural   CuB2H18(C2N11)2
_chemical_formula_sum   'Cu1 B2 H18 C4 N22'
_cell_volume   425.28414874
_cell_formula_units_Z   1
loop_
 _symmetry_equiv_pos_site_id
 _symmetry_equiv_pos_as_xyz
  1  'x, y, z'
loop_
 _atom_site_type_symbol
 _atom_site_label
 _atom_site_symmetry_multiplicity
 _atom_site_fract_x
 _atom_site_fract_y
 _atom_site_fract_z
 _atom_site_occupancy
 _atom_site_hle17_ddec_charge
 _atom_site_hle17_ddec_spin_density
 _atom_site_hle17_ddec_sum_bond_order
 _atom_site_hle17_magmom
 _atom_site_hse06_10hf_ddec_charge
 _atom_site_hse06_10hf_ddec_spin_density
 _atom_site_hse06_10hf_ddec_sum_bond_order
 _atom_site_hse06_10hf_magmom
 _atom_site_hse06_ddec_charge
 _atom_site_hse06_ddec_spin_density
 _atom_site_hse06_ddec_sum_bond_order
 _atom_site_hse06_magmom
 _atom_site_pbe_cm5_charge
 _atom_site_pbe_ddec_charge
 _atom_site_pbe_ddec_spin_density
 _atom_site_pbe_ddec_sum_bond_order
 _atom_site_pbe_magmom
Cu  Cu0  1  0.49999785  0.00000001  0.50000261  1  0.806201  0.685981  1.891795  0.521  0.764547  0.769685  2.295413  0.624  0.840532  0.82504  2.23819  0.696  0.763611  0.718626  0.732062  2.334213  0.578
B  B1  1  0.15342803  0.69260984  0.11978684  1  0.364069  0.000569  3.300101  0.001  0.17794  0.000565  3.615837  0.001  0.195438  0.000429  3.617076  0.0  -0.228235  0.16628  0.000712  3.614639  0.001
B  B2  1  0.84657218  0.30739291  0.88021323  1  0.363944  0.000573  3.300155  0.001  0.177816  0.000565  3.615908  0.001  0.195316  0.000428  3.617145  0.0  -0.228268  0.166164  0.000712  3.614707  0.001
H  H3  1  0.67783976  0.34380066  0.27517540  1  0.325999  -0.000144  0.923995  0.0  0.298194  -0.000108  1.012925  0.0  0.304871  -0.000124  1.006887  0.0  0.30368  0.29324  -8.7e-05  1.017542  0.0
H  H4  1  0.32215832  0.65619624  0.72482394  1  0.325984  -0.000146  0.924017  0.0  0.298161  -0.000108  1.01298  0.0  0.304839  -0.000125  1.006938  0.0  0.303676  0.293203  -8.7e-05  1.017598  0.0
H  H5  1  0.57328784  0.55838331  0.16523053  1  0.328352  -4.1e-05  0.915852  0.0  0.308973  -5.3e-05  0.985266  0.0  0.315861  -5.2e-05  0.97999  0.0  0.299429  0.304153  -5.2e-05  0.988877  0.0
H  H6  1  0.42670868  0.44161358  0.83477102  1  0.328271  -5.3e-05  0.915961  0.0  0.308884  -5.3e-05  0.985382  0.0  0.315773  -5.1e-05  0.980107  0.0  0.299389  0.304063  -5.2e-05  0.988997  0.0
H  H7  1  0.36426180  0.86129810  0.32282834  1  0.334649  -0.00194  0.904851  -0.002  0.314703  -0.000318  0.98101  0.0  0.321628  -0.000566  0.976898  -0.001  0.288619  0.309845  -0.000107  0.98407  0.0
H  H8  1  0.63573817  0.13870611  0.67717146  1  0.334682  -0.00194  0.904786  -0.002  0.314743  -0.000319  0.980939  0.0  0.321667  -0.000566  0.97683  -0.001  0.288643  0.309884  -0.000107  0.984  0.0
H  H9  1  0.17632143  0.86017491  0.45789892  1  0.334372  -0.001214  0.925177  -0.001  0.306145  0.000254  1.019029  0.0  0.313419  -3e-05  1.013487  0.0  0.288081  0.300976  0.000477  1.023181  0.0
H  H10  1  0.82367878  0.13982784  0.54210011  1  0.334375  -0.001214  0.925173  -0.001  0.306149  0.000254  1.019032  0.0  0.313421  -3.1e-05  1.013493  0.0  0.288083  0.300979  0.000477  1.023188  0.0
H  H11  1  0.38032833  0.68327755  0.47187448  1  0.331364  -0.000861  0.882343  -0.001  0.325397  0.000613  0.933721  0.0  0.331659  0.000257  0.930594  0.0  0.292696  0.320937  0.000885  0.936228  0.001
H  H12  1  0.61967058  0.31672374  0.52812392  1  0.331372  -0.000864  0.882299  -0.001  0.325393  0.000613  0.933712  0.0  0.331666  0.000257  0.930557  0.0  0.292684  0.320935  0.000885  0.936216  0.001
H  H13  1  0.59985336  0.85438842  0.93392694  1  0.320443  -1.1e-05  0.938014  0.0  0.292666  -1.3e-05  1.021464  0.0  0.301123  -1.1e-05  1.013954  0.0  0.2907  0.286738  -1.5e-05  1.026727  0.0
H  H14  1  0.40014447  0.14560993  0.06607316  1  0.320457  -1.3e-05  0.937986  0.0  0.292672  -1.3e-05  1.021449  0.0  0.30113  -1e-05  1.013936  0.0  0.290718  0.286742  -1.5e-05  1.026712  0.0
H  H15  1  0.84706113  0.71526773  0.94314860  1  0.320828  -2e-05  0.90118  0.0  0.301633  -1.2e-05  0.971233  0.0  0.307235  -1.7e-05  0.967706  0.0  0.305794  0.297495  -7e-06  0.974026  0.0
H  H16  1  0.15294161  0.28472919  0.05685032  1  0.320782  -2e-05  0.901182  0.0  0.301575  -1.2e-05  0.971248  0.0  0.307177  -1.7e-05  0.967722  0.0  0.305764  0.297437  -7e-06  0.974039  0.0
H  H17  1  0.14504090  0.65866694  0.00377759  1  -0.193834  0.000165  0.951135  0.0  -0.150872  9.9e-05  1.048904  0.0  -0.155513  7.3e-05  1.049048  0.0  0.044482  -0.147736  0.000139  1.048775  0.0
H  H18  1  0.85496337  0.34132999  0.99622326  1  -0.193805  0.000164  0.951139  0.0  -0.150844  9.8e-05  1.048894  0.0  -0.15548  7.3e-05  1.04903  0.0  0.044492  -0.147708  0.000139  1.048764  0.0
H  H19  1  0.30237067  0.77323307  0.11762231  1  -0.18991  0.0001  0.982635  0.0  -0.1421  0.000154  1.076575  0.0  -0.146176  0.000112  1.076207  0.0  0.052829  -0.139293  0.000202  1.076725  0.0
H  H20  1  0.69763156  0.22676678  0.88237918  1  -0.189873  9.9e-05  0.982615  0.0  -0.142066  0.000154  1.076565  0.0  -0.146141  0.000112  1.076198  0.0  0.052849  -0.139261  0.000202  1.076714  0.0
C  C21  1  0.36081944  0.39558757  0.29282001  1  0.546923  -0.001052  3.803113  0.001  0.498991  0.001015  4.071063  0.002  0.523689  -0.000259  4.080157  0.001  0.349899  0.482524  0.001901  4.064692  0.003
C  C22  1  0.63918509  0.60440790  0.70717904  1  0.546916  -0.001054  3.803178  0.001  0.498938  0.001016  4.071179  0.002  0.523636  -0.000258  4.080278  0.001  0.349862  0.482475  0.001901  4.064812  0.003
C  C23  1  0.76245887  0.85779061  0.09861496  1  0.537764  0.000269  3.799397  0.0  0.486525  0.000121  4.076237  0.0  0.508068  0.000106  4.085538  0.0  0.348349  0.472078  0.000159  4.069474  0.0
C  C24  1  0.23754625  0.14221072  0.90138184  1  0.537649  0.000278  3.799424  0.0  0.486451  0.000123  4.076245  0.0  0.507994  0.000104  4.085549  0.0  0.34838  0.47201  0.000159  4.069486  0.0
N  N25  1  0.31212781  0.23324475  0.39161695  1  -0.387065  0.06797  3.163888  0.091  -0.349036  0.050228  3.479744  0.07  -0.380604  0.041063  3.495355  0.061  -0.26806  -0.329484  0.056106  3.470494  0.075
N  N26  1  0.68786797  0.76675651  0.60838691  1  -0.387028  0.067958  3.16379  0.09  -0.348997  0.050232  3.479665  0.07  -0.380562  0.041054  3.495273  0.061  -0.268001  -0.329447  0.056104  3.470417  0.075
N  N27  1  0.10151593  0.23815514  0.39537634  1  -0.046015  -0.001828  3.014523  0.0  -0.033714  -3.5e-05  3.320277  0.001  -0.028817  -0.000669  3.330381  0.0  -0.078525  -0.036692  0.000456  3.314019  0.001
N  N28  1  0.89848140  0.76184614  0.60462635  1  -0.046019  -0.001848  3.014463  0.0  -0.033721  -4.1e-05  3.320225  0.001  -0.028823  -0.000661  3.330326  0.0  -0.078536  -0.036696  0.000456  3.313965  0.001
N  N29  1  0.18096097  0.49762543  0.23948221  1  -0.22735  0.002944  3.386188  0.004  -0.127074  0.002037  3.621105  0.002  -0.144824  0.001758  3.638486  0.002  -0.122227  -0.115446  0.002272  3.609387  0.002
N  N30  1  0.81903614  0.50237731  0.76051813  1  -0.227406  0.002933  3.386335  0.004  -0.127122  0.002037  3.621255  0.002  -0.144871  0.001757  3.638637  0.002  -0.122282  -0.115496  0.002271  3.609544  0.002
N  N31  1  0.02223919  0.39382566  0.30550478  1  -0.086537  0.002631  2.901031  0.005  -0.090281  0.001993  3.186793  0.003  -0.08748  0.00048  3.194993  0.002  -0.080653  -0.091777  0.003415  3.181431  0.005
N  N32  1  0.97775865  0.60617269  0.69449532  1  -0.086525  0.002667  2.901041  0.005  -0.090257  0.00199  3.186796  0.003  -0.087456  0.000485  3.194993  0.002  -0.08065  -0.091751  0.003415  3.181433  0.005
N  N33  1  0.55231766  0.45199557  0.25853666  1  -0.69502  -0.002484  3.112948  -0.002  -0.665981  -0.001319  3.362567  -0.001  -0.684513  -0.001531  3.356959  -0.001  -0.581102  -0.652781  -0.00101  3.36627  -0.001
N  N34  1  0.44767885  0.54800131  0.74146696  1  -0.694897  -0.002449  3.112915  -0.001  -0.665813  -0.00132  3.362535  -0.001  -0.684346  -0.00153  3.35693  -0.001  -0.581033  -0.652613  -0.00101  3.36624  -0.001
N  N35  1  0.33583482  0.82976048  0.43323288  1  -0.83217  0.093713  2.966257  0.12  -0.832864  0.062294  3.228849  0.082  -0.865931  0.049326  3.218084  0.07  -0.783348  -0.811806  0.07031  3.236936  0.087
N  N36  1  0.66416408  0.17024081  0.56676759  1  -0.832222  0.093716  2.966185  0.12  -0.83291  0.062295  3.228733  0.082  -0.865968  0.049326  3.217956  0.07  -0.783374  -0.811848  0.070309  3.236823  0.087
N  N37  1  0.94888909  0.82205014  0.15617715  1  -0.227919  0.000234  3.413045  0.0  -0.1303  -0.000111  3.65495  0.0  -0.147314  -0.000181  3.672792  0.0  -0.120427  -0.119184  -4.9e-05  3.642719  0.0
N  N38  1  0.05111400  0.17795409  0.84381822  1  -0.227771  0.00022  3.412982  0.0  -0.130227  -0.00011  3.654947  0.0  -0.147243  -0.000187  3.672793  0.0  -0.120425  -0.119114  -4.9e-05  3.642723  0.0
N  N39  1  0.92784058  0.92681126  0.25766351  1  -0.069589  -0.000207  2.912568  0.0  -0.074478  -0.000147  3.209749  0.0  -0.069315  -0.000383  3.218428  0.0  -0.076521  -0.07738  8.2e-05  3.204035  0.0
N  N40  1  0.07216011  0.07318858  0.74233709  1  -0.069642  -0.000203  2.912737  0.0  -0.074507  -0.000149  3.209928  0.0  -0.069343  -0.000379  3.218607  0.0  -0.076508  -0.077411  8.2e-05  3.204216  0.0
N  N41  1  0.62765365  0.98057365  0.16293300  1  -0.399497  -0.000559  2.966187  0.0  -0.354681  -0.00047  3.24264  0.0  -0.369707  -0.000469  3.253808  0.0  -0.233656  -0.344433  -0.000415  3.23518  0.0
N  N42  1  0.37235100  0.01943059  0.83706222  1  -0.399519  -0.000567  2.966193  0.0  -0.354729  -0.000467  3.242668  0.0  -0.369757  -0.000473  3.253838  0.0  -0.233688  -0.344462  -0.000415  3.23516  0.0
N  N43  1  0.71719847  0.77354401  0.99780435  1  -0.681719  0.000104  3.073389  0.0  -0.643191  -2.4e-05  3.316829  0.0  -0.661856  -2.4e-05  3.311895  0.0  -0.574252  -0.629973  -3e-06  3.320197  0.0
N  N44  1  0.28280355  0.22645730  0.00219169  1  -0.681661  0.000103  3.073359  0.0  -0.643113  -2.5e-05  3.31677  0.0  -0.661778  -2.4e-05  3.31184  0.0  -0.574266  -0.629895  -4e-06  3.320135  0.0
N  N45  1  0.73781894  0.01949194  0.26020693  1  -0.111248  -0.001335  3.116803  0.001  -0.098863  -0.001603  3.44186  0.0  -0.101214  -0.001812  3.450743  0.0  -0.099355  -0.097605  -0.001399  3.436551  0.0
N  N46  1  0.26217866  0.98050788  0.73979187  1  -0.111155  -0.001322  3.116751  0.001  -0.098755  -0.001608  3.441809  0.0  -0.101107  -0.001803  3.450692  0.0  -0.099317  -0.097493  -0.001399  3.436501  0.0
