# generated using pymatgen
data_Cu2H6C4IN3
_symmetry_space_group_name_H-M   'P 1'
_cell_length_a   15.20918625
_cell_length_b   15.41910000
_cell_length_c   15.19411499
_cell_angle_alpha   106.24951996
_cell_angle_beta   111.05829980
_cell_angle_gamma   111.53879210
_symmetry_Int_Tables_number   1
_chemical_formula_structural   Cu2H6C4IN3
_chemical_formula_sum   'Cu16 H48 C32 I8 N24'
_cell_volume   2722.94753826
_cell_formula_units_Z   8
loop_
 _symmetry_equiv_pos_site_id
 _symmetry_equiv_pos_as_xyz
  1  'x, y, z'
loop_
 _atom_site_type_symbol
 _atom_site_label
 _atom_site_symmetry_multiplicity
 _atom_site_fract_x
 _atom_site_fract_y
 _atom_site_fract_z
 _atom_site_occupancy
 _atom_site_hle17_bader_spin_density
 _atom_site_hle17_ddec_charge
 _atom_site_hle17_ddec_spin_density
 _atom_site_hle17_ddec_sum_bond_order
 _atom_site_hle17_magmom
 _atom_site_hse06_10hf_bader_spin_density
 _atom_site_hse06_10hf_ddec_charge
 _atom_site_hse06_10hf_ddec_spin_density
 _atom_site_hse06_10hf_ddec_sum_bond_order
 _atom_site_hse06_10hf_magmom
 _atom_site_hse06_bader_spin_density
 _atom_site_hse06_ddec_charge
 _atom_site_hse06_ddec_spin_density
 _atom_site_hse06_ddec_sum_bond_order
 _atom_site_hse06_magmom
 _atom_site_pbe_bader_charge
 _atom_site_pbe_bader_spin_density
 _atom_site_pbe_cm5_charge
 _atom_site_pbe_ddec_charge
 _atom_site_pbe_ddec_spin_density
 _atom_site_pbe_ddec_sum_bond_order
 _atom_site_pbe_magmom
Cu  Cu0  1  0.33319474  0.89918647  0.08231310  1  0  0.206398  0  2.272827  0  0  0.141015  0  2.726446  0  0  0.154762  0  2.66522  0  0.384539  0  0.250617  0.133025  0  2.767651  0
Cu  Cu1  1  0.16530723  0.75080512  0.06323982  1  0  0.208102  0  2.272038  0  0  0.144566  0  2.724332  0  0  0.157987  0  2.663423  0  0.39031  0  0.250938  0.136733  0  2.765362  0
Cu  Cu2  1  0.81441820  0.06161977  0.89732874  1  0  0.210906  0  2.252476  0  0  0.146323  0  2.703452  0  0  0.159445  0  2.64333  0  0.39346  0  0.250215  0.138716  0  2.743922  0
Cu  Cu3  1  0.68573415  0.08352824  0.75076392  1  0  0.20452  0  2.285214  0  0  0.141446  0  2.737567  0  0  0.154644  0  2.676596  0  0.382828  0  0.250644  0.133894  0  2.77846  0
Cu  Cu4  1  0.66680321  0.10081633  0.91768165  1  0  0.206381  0  2.27277  0  0  0.140996  0  2.726394  0  0  0.154745  0  2.665176  0  0.384569  0  0.250606  0.133007  0  2.7676  0
Cu  Cu5  1  0.83468618  0.24919418  0.93675759  1  0  0.208071  0  2.272065  0  0  0.144575  0  2.724359  0  0  0.157987  0  2.663447  0  0.390311  0  0.250918  0.136746  0  2.765382  0
Cu  Cu6  1  0.18558442  0.93838216  0.10267788  1  0  0.2109  0  2.25245  0  0  0.146315  0  2.703407  0  0  0.159426  0  2.6433  0  0.39341  0  0.250201  0.138717  0  2.743852  0
Cu  Cu7  1  0.31426847  0.91646740  0.24923870  1  0  0.204525  0  2.285199  0  0  0.14149  0  2.737498  0  0  0.154679  0  2.676551  0  0.38274  0  0.250691  0.133939  0  2.778388  0
Cu  Cu8  1  0.67393367  0.90693524  0.96724925  1  0  0.395028  0  1.792191  0  0  0.270498  0  2.243203  0  0  0.286417  0  2.194333  0  0.540634  0  0.438012  0.260972  0  2.276233  0
Cu  Cu9  1  0.82364379  0.29583423  0.73475648  1  0  0.398816  0  1.775198  0  0  0.273754  0  2.224267  0  0  0.290055  0  2.175282  0  0.54481  0  0.438658  0.263938  0  2.257278  0
Cu  Cu10  1  0.93918655  0.73364680  0.90635464  1  0  0.394702  0  1.784295  0  0  0.270316  0  2.235761  0  0  0.286511  0  2.186167  0  0.542253  0  0.42974  0.260641  0  2.26923  0
Cu  Cu11  1  0.55937404  0.96828725  0.29400821  1  0  0.394379  0  1.800092  0  0  0.27027  0  2.252369  0  0  0.286186  0  2.203136  0  0.537078  0  0.437804  0.260743  0  2.285622  0
Cu  Cu12  1  0.32606938  0.09306973  0.03274900  1  0  0.395018  0  1.792203  0  0  0.270496  0  2.243196  0  0  0.28641  0  2.194322  0  0.540608  0  0.438051  0.260971  0  2.276225  0
Cu  Cu13  1  0.17635911  0.70416221  0.26523923  1  0  0.398822  0  1.775196  0  0  0.273753  0  2.224261  0  0  0.29008  0  2.175262  0  0.544735  0  0.43866  0.263944  0  2.257268  0
Cu  Cu14  1  0.06081083  0.26635351  0.09364594  1  0  0.394707  0  1.784304  0  0  0.270322  0  2.235751  0  0  0.2865  0  2.186138  0  0.542133  0  0.429733  0.260652  0  2.269225  0
Cu  Cu15  1  0.44062150  0.03171211  0.70599133  1  0  0.394345  0  1.800058  0  0  0.27021  0  2.252328  0  0  0.286124  0  2.203084  0  0.537134  0  0.437772  0.260686  0  2.285581  0
H  H16  1  0.75334495  0.99035728  0.29523176  1  0  0.123127  0  0.943672  0  0  0.140885  0  1.007851  0  0  0.144258  0  1.004471  0  0.065529  0  0.094937  0.138372  0  1.010344  0
H  H17  1  0.74354139  0.53957387  0.73550652  1  0  0.122282  0  0.943968  0  0  0.140209  0  1.007899  0  0  0.143547  0  1.004503  0  0.047862  0  0.095132  0.137738  0  1.010386  0
H  H18  1  0.69411598  0.73672941  0.98817675  1  0  0.120892  0  0.94429  0  0  0.138726  0  1.008634  0  0  0.142037  0  1.005314  0  0.039389  0  0.094034  0.136283  0  1.011063  0
H  H19  1  0.80539524  0.29390584  0.54264239  1  0  0.121532  0  0.945476  0  0  0.13925  0  1.009779  0  0  0.142624  0  1.006388  0  0.044241  0  0.093992  0.136768  0  1.01225  0
H  H20  1  0.24665583  0.00964259  0.70476982  1  0  0.123109  0  0.943731  0  0  0.140867  0  1.007905  0  0  0.144239  0  1.004524  0  0.065538  0  0.094896  0.138356  0  1.010397  0
H  H21  1  0.25646166  0.46041618  0.26449173  1  0  0.122267  0  0.943826  0  0  0.140184  0  1.007791  0  0  0.143525  0  1.004392  0  0.047933  0  0.095098  0.137713  0  1.010276  0
H  H22  1  0.30588367  0.26327301  0.01182849  1  0  0.120875  0  0.944304  0  0  0.138735  0  1.008624  0  0  0.142047  0  1.005302  0  0.039328  0  0.094044  0.13629  0  1.011056  0
H  H23  1  0.19460384  0.70609098  0.45735269  1  0  0.121462  0  0.94548  0  0  0.139188  0  1.009768  0  0  0.14256  0  1.006382  0  0.044252  0  0.093975  0.136707  0  1.012239  0
H  H24  1  0.80381828  0.04800668  0.22340537  1  0  0.125729  0  0.95628  0  0  0.14578  0  1.016906  0  0  0.147731  0  1.016282  0  0.051128  0  0.087986  0.144303  0  1.017454  0
H  H25  1  0.69399323  0.41919682  0.74430773  1  0  0.126139  0  0.953605  0  0  0.145539  0  1.014335  0  0  0.147475  0  1.013716  0  0.06196  0  0.088223  0.144068  0  1.014892  0
H  H26  1  0.82502530  0.74653782  0.04734507  1  0  0.125061  0  0.958306  0  0  0.14485  0  1.019196  0  0  0.146794  0  1.018586  0  0.070707  0  0.086605  0.14336  0  1.019763  0
H  H27  1  0.67429499  0.22151596  0.42080356  1  0  0.125073  0  0.957904  0  0  0.144451  0  1.019289  0  0  0.146389  0  1.018678  0  0.077852  0  0.086368  0.142985  0  1.019839  0
H  H28  1  0.19617783  0.95198979  0.77659233  1  0  0.125736  0  0.956212  0  0  0.14579  0  1.016836  0  0  0.14774  0  1.016214  0  0.051045  0  0.087995  0.144314  0  1.017385  0
H  H29  1  0.30601109  0.58080571  0.25568940  1  0  0.126116  0  0.953623  0  0  0.145522  0  1.014352  0  0  0.14746  0  1.013733  0  0.061806  0  0.088225  0.144054  0  1.014905  0
H  H30  1  0.17497463  0.25346390  0.95265726  1  0  0.125121  0  0.958268  0  0  0.144896  0  1.01916  0  0  0.146838  0  1.018552  0  0.070731  0  0.086623  0.143415  0  1.01972  0
H  H31  1  0.32569885  0.77847711  0.57918948  1  0  0.125063  0  0.957929  0  0  0.144426  0  1.019317  0  0  0.146363  0  1.018708  0  0.077938  0  0.086354  0.142956  0  1.019872  0
H  H32  1  0.76534163  0.91514417  0.19149158  1  0  0.127079  0  0.927628  0  0  0.151053  0  0.98004  0  0  0.152912  0  0.979205  0  0.035389  0  0.099738  0.149633  0  0.98074  0
H  H33  1  0.73119226  0.42509320  0.64727587  1  0  0.127053  0  0.92519  0  0  0.150908  0  0.977491  0  0  0.152718  0  0.976727  0  0.068666  0  0.100219  0.149535  0  0.97813  0
H  H34  1  0.72227168  0.64989815  0.91286341  1  0  0.126206  0  0.927085  0  0  0.149877  0  0.98023  0  0  0.151703  0  0.979411  0  0.049597  0  0.09935  0.148485  0  0.980918  0
H  H35  1  0.77700545  0.19118654  0.42623363  1  0  0.127064  0  0.927354  0  0  0.151189  0  0.979338  0  0  0.153072  0  0.978479  0  0.05401  0  0.099725  0.149745  0  0.980065  0
H  H36  1  0.23465335  0.08485698  0.80850579  1  0  0.127046  0  0.927603  0  0  0.150997  0  0.980053  0  0  0.152856  0  0.979216  0  0.035276  0  0.099721  0.149581  0  0.98075  0
H  H37  1  0.26880653  0.57490626  0.35272212  1  0  0.127072  0  0.925155  0  0  0.150918  0  0.977466  0  0  0.152727  0  0.976703  0  0.06858  0  0.100232  0.149541  0  0.978108  0
H  H38  1  0.27772895  0.35010337  0.08713963  1  0  0.126205  0  0.927065  0  0  0.149899  0  0.980194  0  0  0.151726  0  0.979375  0  0.049689  0  0.09934  0.148507  0  0.980884  0
H  H39  1  0.22299207  0.80880648  0.57376149  1  0  0.127042  0  0.927382  0  0  0.151124  0  0.979409  0  0  0.153021  0  0.978537  0  0.054125  0  0.099675  0.149678  0  0.980137  0
H  H40  1  0.31450776  0.79072651  0.85966606  1  0  0.127999  0  0.959064  0  0  0.148267  0  1.018804  0  0  0.149956  0  1.018209  0  0.080287  0  0.086546  0.146992  0  1.019276  0
H  H41  1  0.18326368  0.54716369  0.97444943  1  0  0.128543  0  0.960905  0  0  0.148679  0  1.020799  0  0  0.150276  0  1.020353  0  0.074352  0  0.086741  0.147466  0  1.021174  0
H  H42  1  0.92952771  0.97344878  0.78986135  1  0  0.126943  0  0.96043  0  0  0.147503  0  1.019908  0  0  0.14917  0  1.019338  0  0.065395  0  0.087218  0.14624  0  1.020372  0
H  H43  1  0.57294858  0.86416073  0.54648203  1  0  0.12772  0  0.96181  0  0  0.147881  0  1.021833  0  0  0.149494  0  1.021321  0  0.060161  0  0.086273  0.14666  0  1.022246  0
H  H44  1  0.68549940  0.20928281  0.14033790  1  0  0.128001  0  0.958947  0  0  0.148268  0  1.018685  0  0  0.149961  0  1.018087  0  0.080289  0  0.086561  0.146993  0  1.019155  0
H  H45  1  0.81673242  0.45282739  0.02555227  1  0  0.128533  0  0.960917  0  0  0.148691  0  1.020782  0  0  0.150286  0  1.02034  0  0.074265  0  0.086759  0.147478  0  1.021159  0
H  H46  1  0.07047095  0.02655084  0.21014210  1  0  0.126958  0  0.960381  0  0  0.14751  0  1.019868  0  0  0.149178  0  1.019298  0  0.065305  0  0.087212  0.146245  0  1.020334  0
H  H47  1  0.42705702  0.13583656  0.45351797  1  0  0.127766  0  0.961796  0  0  0.147922  0  1.021818  0  0  0.149538  0  1.021304  0  0.06019  0  0.086294  0.146701  0  1.02223  0
H  H48  1  0.41258977  0.77844691  0.82594788  1  0  0.120674  0  0.941458  0  0  0.143347  0  0.997131  0  0  0.145308  0  0.995651  0  0.032122  0  0.091461  0.141808  0  0.998379  0
H  H49  1  0.08426723  0.41637056  0.86336749  1  0  0.121129  0  0.9389  0  0  0.143329  0  0.995338  0  0  0.14544  0  0.993642  0  0.037485  0  0.091756  0.141693  0  0.996719  0
H  H50  1  0.94996079  0.86399673  0.77576663  1  0  0.121399  0  0.941806  0  0  0.144076  0  0.997132  0  0  0.145953  0  0.995762  0  0.059982  0  0.091958  0.142602  0  0.998297  0
H  H51  1  0.55181361  0.83069394  0.41460912  1  0  0.121255  0  0.939075  0  0  0.143586  0  0.995237  0  0  0.145601  0  0.993686  0  0.061106  0  0.09146  0.141995  0  0.996547  0
H  H52  1  0.58740916  0.22155674  0.17404866  1  0  0.120664  0  0.941454  0  0  0.143339  0  0.99713  0  0  0.1453  0  0.99565  0  0.032101  0  0.091431  0.1418  0  0.998378  0
H  H53  1  0.91573851  0.58363358  0.13664304  1  0  0.121169  0  0.938809  0  0  0.143362  0  0.995249  0  0  0.145474  0  0.993553  0  0.03746  0  0.091778  0.141725  0  0.99663  0
H  H54  1  0.05003744  0.13600608  0.22423719  1  0  0.121336  0  0.94178  0  0  0.143994  0  0.997137  0  0  0.14587  0  0.99577  0  0.059882  0  0.09192  0.14252  0  0.998301  0
H  H55  1  0.44819539  0.16930551  0.58539188  1  0  0.121261  0  0.939164  0  0  0.143587  0  0.995336  0  0  0.145605  0  0.993781  0  0.062579  0  0.091454  0.141997  0  0.996645  0
H  H56  1  0.40685032  0.89448419  0.85023225  1  0  0.131499  0  0.969531  0  0  0.148097  0  1.03444  0  0  0.149067  0  1.036288  0  0.074183  0  0.092668  0.147329  0  1.033264  0
H  H57  1  0.09104813  0.44705315  0.98739164  1  0  0.131805  0  0.970157  0  0  0.148419  0  1.034926  0  0  0.149344  0  1.036909  0  0.084108  0  0.093452  0.147705  0  1.033636  0
H  H58  1  0.04414154  0.98638969  0.89405086  1  0  0.131885  0  0.971698  0  0  0.148221  0  1.036922  0  0  0.149231  0  1.038739  0  0.032044  0  0.092575  0.147441  0  1.035765  0
H  H59  1  0.45745620  0.85243903  0.44459273  1  0  0.128397  0  0.970365  0  0  0.145477  0  1.035083  0  0  0.146453  0  1.036957  0  0.108079  0  0.091482  0.144716  0  1.033895  0
H  H60  1  0.59314565  0.10552255  0.14976292  1  0  0.13151  0  0.969472  0  0  0.148126  0  1.034362  0  0  0.14909  0  1.036231  0  0.074336  0  0.092649  0.147372  0  1.033172  0
H  H61  1  0.90895590  0.55294534  0.01261240  1  0  0.13174  0  0.970107  0  0  0.148327  0  1.03493  0  0  0.149252  0  1.036914  0  0.084196  0  0.093413  0.147614  0  1.033639  0
H  H62  1  0.95585782  0.01360929  0.10594931  1  0  0.131869  0  0.97172  0  0  0.1482  0  1.036949  0  0  0.14921  0  1.03877  0  0.032058  0  0.092558  0.14742  0  1.035792  0
H  H63  1  0.54254657  0.14756016  0.55540844  1  0  0.128411  0  0.97034  0  0  0.145509  0  1.035036  0  0  0.146484  0  1.036915  0  0.108395  0  0.091494  0.144747  0  1.033849  0
C  C64  1  0.48006667  0.87899176  0.99004392  1  0  0.417036  0  3.697722  0  0  0.40492  0  3.955506  0  0  0.41971  0  3.972477  0  0.96635  0  0.214182  0.394973  0  3.944033  0
C  C65  1  0.01796144  0.51216599  0.89759794  1  0  0.416584  0  3.700196  0  0  0.403586  0  3.959238  0  0  0.418295  0  3.976266  0  0.987549  0  0.213562  0.393704  0  3.947673  0
C  C66  1  0.88769640  0.89702398  0.87741234  1  0  0.417238  0  3.694157  0  0  0.40466  0  3.953239  0  0  0.419369  0  3.970336  0  0.981475  0  0.214326  0.394773  0  3.941678  0
C  C67  1  0.61332787  0.99244583  0.51147954  1  0  0.419006  0  3.695061  0  0  0.40651  0  3.953272  0  0  0.42124  0  3.970294  0  0.992935  0  0.215508  0.3966  0  3.941783  0
C  C68  1  0.51992533  0.12101357  0.00995607  1  0  0.416949  0  3.697755  0  0  0.404828  0  3.95559  0  0  0.419616  0  3.972571  0  0.966024  0  0.214044  0.39488  0  3.944115  0
C  C69  1  0.98203452  0.48783297  0.10239722  1  0  0.416455  0  3.700462  0  0  0.403532  0  3.959389  0  0  0.418241  0  3.97642  0  0.987816  0  0.213548  0.39365  0  3.94782  0
C  C70  1  0.11230580  0.10297745  0.12259066  1  0  0.417162  0  3.694203  0  0  0.404568  0  3.9533  0  0  0.419279  0  3.970396  0  0.98101  0  0.214348  0.394683  0  3.941739  0
C  C71  1  0.38667574  0.00755345  0.48852087  1  0  0.418851  0  3.695228  0  0  0.40645  0  3.953261  0  0  0.421188  0  3.97028  0  0.992964  0  0.215476  0.396541  0  3.941771  0
C  C72  1  0.62966286  0.93896340  0.13751920  1  0  0.393241  0  3.751047  0  0  0.382981  0  4.00284  0  0  0.397203  0  4.020993  0  0.964038  0  0.205962  0.373385  0  3.990587  0
C  C73  1  0.86785073  0.50806172  0.80798618  1  0  0.398184  0  3.744999  0  0  0.38167  0  4.00555  0  0  0.395833  0  4.023836  0  1.002788  0  0.204831  0.371362  0  3.994306  0
C  C74  1  0.80042987  0.80859302  0.93720819  1  0  0.39356  0  3.754077  0  0  0.384656  0  4.003654  0  0  0.398825  0  4.021974  0  1.000098  0  0.206456  0.375105  0  3.991295  0
C  C75  1  0.69947211  0.13801219  0.50896594  1  0  0.399267  0  3.745372  0  0  0.382671  0  4.006082  0  0  0.396931  0  4.024242  0  0.99343  0  0.205781  0.373042  0  3.993851  0
C  C76  1  0.37033296  0.06103870  0.86247342  1  0  0.393204  0  3.751181  0  0  0.382994  0  4.002904  0  0  0.397215  0  4.021059  0  0.964471  0  0.20601  0.373398  0  3.990654  0
C  C77  1  0.13215275  0.49193857  0.19201569  1  0  0.39828  0  3.744733  0  0  0.381777  0  4.005277  0  0  0.395941  0  4.02356  0  1.002731  0  0.20488  0.371434  0  3.994091  0
C  C78  1  0.19956991  0.19140840  0.06279560  1  0  0.393638  0  3.754062  0  0  0.384718  0  4.003671  0  0  0.398888  0  4.021988  0  0.999891  0  0.206441  0.375169  0  3.991315  0
C  C79  1  0.30053278  0.86198660  0.49103335  1  0  0.399225  0  3.745458  0  0  0.382604  0  4.006165  0  0  0.396866  0  4.024333  0  0.993612  0  0.205796  0.372976  0  3.993933  0
C  C80  1  0.74443669  0.97515349  0.21658027  1  0  -0.385258  0  3.733371  0  0  -0.462623  0  3.962972  0  0  -0.466006  0  3.967195  0  -0.013886  0  -0.236174  -0.460035  0  3.960213  0
C  C81  1  0.75265400  0.47109299  0.72939213  1  0  -0.385928  0  3.732633  0  0  -0.460405  0  3.964149  0  0  -0.46369  0  3.968416  0  -0.060214  0  -0.235032  -0.457693  0  3.961569  0
C  C82  1  0.75785947  0.73117177  0.97338656  1  0  -0.382324  0  3.736093  0  0  -0.459418  0  3.965648  0  0  -0.462738  0  3.970004  0  -0.053839  0  -0.235202  -0.456869  0  3.962752  0
C  C83  1  0.74168799  0.21571170  0.47292399  1  0  -0.385141  0  3.734007  0  0  -0.459918  0  3.965627  0  0  -0.463344  0  3.969867  0  -0.056677  0  -0.234329  -0.457298  0  3.962802  0
C  C84  1  0.25555559  0.02484531  0.78341680  1  0  -0.385214  0  3.733303  0  0  -0.462574  0  3.962907  0  0  -0.465957  0  3.96713  0  -0.013749  0  -0.236155  -0.459996  0  3.960145  0
C  C85  1  0.24735571  0.52890431  0.27060958  1  0  -0.385864  0  3.732314  0  0  -0.460334  0  3.963825  0  0  -0.463621  0  3.968094  0  -0.060093  0  -0.23499  -0.45761  0  3.961263  0
C  C86  1  0.24213847  0.26882805  0.02661619  1  0  -0.382422  0  3.73609  0  0  -0.459537  0  3.965647  0  0  -0.462857  0  3.97  0  -0.053743  0  -0.235228  -0.456992  0  3.962747  0
C  C87  1  0.25831081  0.78428667  0.52707001  1  0  -0.385052  0  3.73415  0  0  -0.459779  0  3.965771  0  0  -0.463219  0  3.969994  0  -0.056901  0  -0.234287  -0.457157  0  3.96295  0
C  C88  1  0.39854886  0.83292980  0.87507213  1  0  -0.386672  0  3.709654  0  0  -0.462207  0  3.933719  0  0  -0.466504  0  3.94139  0  -0.035693  0  -0.242282  -0.458967  0  3.928437  0
C  C89  1  0.09898420  0.47931924  0.93290454  1  0  -0.38751  0  3.708181  0  0  -0.462093  0  3.932749  0  0  -0.466395  0  3.94042  0  -0.039147  0  -0.242185  -0.458898  0  3.927491  0
C  C90  1  0.95651863  0.93238734  0.83159793  1  0  -0.387442  0  3.713371  0  0  -0.462619  0  3.937261  0  0  -0.466945  0  3.945039  0  -0.015271  0  -0.243683  -0.459392  0  3.93189  0
C  C91  1  0.54522730  0.87863073  0.47778923  1  0  -0.3844  0  3.705052  0  0  -0.459711  0  3.929358  0  0  -0.464026  0  3.937082  0  -0.08556  0  -0.241362  -0.456469  0  3.924035  0
C  C92  1  0.60145235  0.16707810  0.12492507  1  0  -0.386669  0  3.709476  0  0  -0.462196  0  3.933542  0  0  -0.4665  0  3.941203  0  -0.035946  0  -0.242224  -0.458985  0  3.928279  0
C  C93  1  0.90101062  0.52068077  0.06709829  1  0  -0.387363  0  3.708069  0  0  -0.461948  0  3.93254  0  0  -0.466251  0  3.940215  0  -0.039264  0  -0.242121  -0.458752  0  3.927277  0
C  C94  1  0.04348116  0.06761343  0.16840585  1  0  -0.387328  0  3.713222  0  0  -0.462469  0  3.937122  0  0  -0.466788  0  3.944883  0  -0.015156  0  -0.243603  -0.459241  0  3.931748  0
C  C95  1  0.45477561  0.12136680  0.52221048  1  0  -0.384431  0  3.705238  0  0  -0.459781  0  3.929498  0  0  -0.464104  0  3.937221  0  -0.087354  0  -0.241373  -0.456542  0  3.924184  0
I  I96  1  0.34049382  0.75260937  0.17919512  1  0  -0.324005  0  1.666105  0  0  -0.277904  0  2.086189  0  0  -0.287658  0  2.036877  0  -0.376565  0  -0.144945  -0.271845  0  2.120251  0
I  I97  1  0.15724263  0.83910849  0.90926069  1  0  -0.324461  0  1.671592  0  0  -0.278571  0  2.092831  0  0  -0.288188  0  2.043256  0  -0.38177  0  -0.14659  -0.272589  0  2.127092  0
I  I98  1  0.57186052  0.91061340  0.75102320  1  0  -0.320954  0  1.676589  0  0  -0.275148  0  2.096509  0  0  -0.284561  0  2.047115  0  -0.377346  0  -0.143775  -0.269333  0  2.130636  0
I  I99  1  0.92966061  0.17910996  0.84048385  1  0  -0.326535  0  1.651315  0  0  -0.281758  0  2.066093  0  0  -0.291741  0  2.017811  0  -0.379613  0  -0.150244  -0.275485  0  2.099404  0
I  I100  1  0.65950937  0.24739051  0.82080567  1  0  -0.323987  0  1.666206  0  0  -0.277889  0  2.086303  0  0  -0.287628  0  2.036979  0  -0.376657  0  -0.14495  -0.271829  0  2.120363  0
I  I101  1  0.84275617  0.16089162  0.09073731  1  0  -0.324437  0  1.671605  0  0  -0.278556  0  2.092856  0  0  -0.288179  0  2.043281  0  -0.381818  0  -0.146585  -0.272574  0  2.12712  0
I  I102  1  0.42813091  0.08938335  0.24897463  1  0  -0.320961  0  1.676601  0  0  -0.275185  0  2.096538  0  0  -0.284594  0  2.047146  0  -0.377234  0  -0.143781  -0.269369  0  2.130664  0
I  I103  1  0.07033748  0.82088821  0.15951743  1  0  -0.32649  0  1.651311  0  0  -0.281699  0  2.066073  0  0  -0.29169  0  2.017804  0  -0.379684  0  -0.150213  -0.275427  0  2.099381  0
N  N104  1  0.45761030  0.89790582  0.06819529  1  0  -0.261817  0  3.247046  0  0  -0.207062  0  3.535323  0  0  -0.223223  0  3.549565  0  -0.763796  0  -0.299212  -0.196752  0  3.526032  0
N  N105  1  0.04086830  0.61185143  0.93773152  1  0  -0.262854  0  3.241203  0  0  -0.208319  0  3.529636  0  0  -0.224297  0  3.543695  0  -0.776855  0  -0.298475  -0.198112  0  3.520425  0
N  N106  1  0.82851985  0.93767112  0.89633452  1  0  -0.262747  0  3.239239  0  0  -0.208383  0  3.527299  0  0  -0.224394  0  3.541561  0  -0.77258  0  -0.29677  -0.198155  0  3.517985  0
N  N107  1  0.67254223  0.07027591  0.61223632  1  0  -0.263014  0  3.245264  0  0  -0.208393  0  3.533036  0  0  -0.2244  0  3.547256  0  -0.789111  0  -0.301049  -0.198208  0  3.523782  0
N  N108  1  0.54239119  0.10210080  0.93181099  1  0  -0.261817  0  3.247184  0  0  -0.207071  0  3.53544  0  0  -0.223241  0  3.549693  0  -0.763557  0  -0.299167  -0.196759  0  3.526148  0
N  N109  1  0.95913517  0.38814950  0.06227035  1  0  -0.262766  0  3.241194  0  0  -0.208255  0  3.529613  0  0  -0.224224  0  3.543659  0  -0.777089  0  -0.298442  -0.198045  0  3.520392  0
N  N110  1  0.17147979  0.06232761  0.10366673  1  0  -0.262757  0  3.2392  0  0  -0.208385  0  3.527288  0  0  -0.224397  0  3.54155  0  -0.772559  0  -0.296846  -0.198157  0  3.517972  0
N  N111  1  0.32746054  0.92971873  0.38776485  1  0  -0.262989  0  3.245325  0  0  -0.208369  0  3.533054  0  0  -0.224372  0  3.547266  0  -0.788993  0  -0.301079  -0.198183  0  3.523799  0
N  N112  1  0.58749311  0.90484366  0.03048039  1  0  -0.496903  0  3.334722  0  0  -0.421714  0  3.639383  0  0  -0.443112  0  3.643686  0  -1.21202  0  -0.412785  -0.407737  0  3.63631  0
N  N113  1  0.90995008  0.44463453  0.81691380  1  0  -0.499565  0  3.332892  0  0  -0.421692  0  3.639657  0  0  -0.4432  0  3.644  0  -1.242844  0  -0.412642  -0.407385  0  3.636744  0
N  N114  1  0.87319255  0.81657433  0.90308364  1  0  -0.497315  0  3.321463  0  0  -0.422422  0  3.62513  0  0  -0.443903  0  3.629547  0  -1.218833  0  -0.410649  -0.408397  0  3.621975  0
N  N115  1  0.62699458  0.03192000  0.44417467  1  0  -0.500696  0  3.334495  0  0  -0.423618  0  3.641765  0  0  -0.444977  0  3.646003  0  -1.218505  0  -0.415219  -0.409669  0  3.638735  0
N  N116  1  0.41249747  0.09515792  0.96951019  1  0  -0.496713  0  3.334716  0  0  -0.421546  0  3.639359  0  0  -0.442941  0  3.64366  0  -1.212158  0  -0.412678  -0.407567  0  3.636285  0
N  N117  1  0.09004914  0.55536434  0.18308382  1  0  -0.499652  0  3.333035  0  0  -0.421789  0  3.639767  0  0  -0.443306  0  3.644127  0  -1.242946  0  -0.412678  -0.407472  0  3.636865  0
N  N118  1  0.12680837  0.18342694  0.09692048  1  0  -0.497313  0  3.321515  0  0  -0.422413  0  3.625187  0  0  -0.443889  0  3.62959  0  -1.218405  0  -0.410659  -0.408396  0  3.622042  0
N  N119  1  0.37300974  0.96808039  0.55582645  1  0  -0.500574  0  3.334531  0  0  -0.423504  0  3.641741  0  0  -0.444877  0  3.645983  0  -1.218712  0  -0.41515  -0.409556  0  3.638711  0
N  N120  1  0.55273298  0.93534455  0.16189314  1  0  -0.311654  0  3.386486  0  0  -0.244779  0  3.690293  0  0  -0.260006  0  3.701256  0  -0.790995  0  -0.324628  -0.235077  0  3.683196  0
N  N121  1  0.94529576  0.60916528  0.88003172  1  0  -0.316335  0  3.371008  0  0  -0.247303  0  3.676083  0  0  -0.262581  0  3.686979  0  -0.799645  0  -0.321689  -0.237337  0  3.669257  0
N  N122  1  0.77239151  0.88072072  0.93374218  1  0  -0.314939  0  3.392722  0  0  -0.248087  0  3.69651  0  0  -0.263388  0  3.70741  0  -0.789205  0  -0.325328  -0.238338  0  3.689461  0
N  N123  1  0.72789666  0.16290057  0.61060465  1  0  -0.315003  0  3.383163  0  0  -0.245361  0  3.687718  0  0  -0.26074  0  3.698645  0  -0.790233  0  -0.322923  -0.235554  0  3.680658  0
N  N124  1  0.44727149  0.06466372  0.83811052  1  0  -0.311644  0  3.386596  0  0  -0.244752  0  3.690358  0  0  -0.259977  0  3.701315  0  -0.791011  0  -0.324635  -0.235053  0  3.683262  0
N  N125  1  0.05470842  0.39083675  0.11997086  1  0  -0.316467  0  3.371104  0  0  -0.247463  0  3.676209  0  0  -0.262736  0  3.687085  0  -0.799267  0  -0.321788  -0.237485  0  3.669392  0
N  N126  1  0.22761168  0.11928091  0.06626261  1  0  -0.31494  0  3.392488  0  0  -0.248106  0  3.696297  0  0  -0.263405  0  3.707186  0  -0.788932  0  -0.325275  -0.238358  0  3.68925  0
N  N127  1  0.27210738  0.83709552  0.38939539  1  0  -0.314988  0  3.383132  0  0  -0.245346  0  3.687657  0  0  -0.260729  0  3.698593  0  -0.790233  0  -0.322932  -0.235543  0  3.6806  0
