# generated using pymatgen
data_Na2H16C16O7
_symmetry_space_group_name_H-M   'P 1'
_cell_length_a   6.16898968
_cell_length_b   7.49224420
_cell_length_c   17.46697345
_cell_angle_alpha   102.35483325
_cell_angle_beta   97.84473593
_cell_angle_gamma   89.97132058
_symmetry_Int_Tables_number   1
_chemical_formula_structural   Na2H16C16O7
_chemical_formula_sum   'Na4 H32 C32 O14'
_cell_volume   780.89571343
_cell_formula_units_Z   2
loop_
 _symmetry_equiv_pos_site_id
 _symmetry_equiv_pos_as_xyz
  1  'x, y, z'
loop_
 _atom_site_type_symbol
 _atom_site_label
 _atom_site_symmetry_multiplicity
 _atom_site_fract_x
 _atom_site_fract_y
 _atom_site_fract_z
 _atom_site_occupancy
 _atom_site_hle17_bader_spin_density
 _atom_site_hle17_ddec_charge
 _atom_site_hle17_ddec_spin_density
 _atom_site_hle17_ddec_sum_bond_order
 _atom_site_hle17_magmom
 _atom_site_hse06_10hf_bader_spin_density
 _atom_site_hse06_10hf_ddec_charge
 _atom_site_hse06_10hf_ddec_spin_density
 _atom_site_hse06_10hf_ddec_sum_bond_order
 _atom_site_hse06_10hf_magmom
 _atom_site_hse06_bader_spin_density
 _atom_site_hse06_ddec_charge
 _atom_site_hse06_ddec_spin_density
 _atom_site_hse06_ddec_sum_bond_order
 _atom_site_hse06_magmom
 _atom_site_pbe_bader_spin_density
 _atom_site_pbe_cm5_charge
 _atom_site_pbe_ddec_charge
 _atom_site_pbe_ddec_spin_density
 _atom_site_pbe_ddec_sum_bond_order
 _atom_site_pbe_magmom
Na  Na0  1  0.96246537  0.35452984  0.06357044  1  0  0.909253  0  0.375917  0  0  0.864163  0  0.531451  0  0  0.874922  0  0.508939  0  0  0.683172  0.856262  0  0.547624  0
Na  Na1  1  0.46253671  0.70874425  0.06357490  1  0  0.90918  0  0.375965  0  0  0.864076  0  0.531596  0  0  0.874817  0  0.509091  0  0  0.683135  0.856158  0  0.547788  0
Na  Na2  1  0.03753795  0.64546871  0.93642864  1  0  0.909274  0  0.375883  0  0  0.864163  0  0.531435  0  0  0.874925  0  0.508928  0  0  0.683159  0.856259  0  0.547608  0
Na  Na3  1  0.53746680  0.29125978  0.93642413  1  0  0.909201  0  0.375941  0  0  0.864073  0  0.531589  0  0  0.874818  0  0.509087  0  0  0.683124  0.856154  0  0.547781  0
H  H4  1  0.74364138  0.96421301  0.95511226  1  0  0.416681  0  0.891285  0  0  0.391929  0  0.947019  0  0  0.4013  0  0.93314  0  0  0.294571  0.385336  0  0.956792  0
H  H5  1  0.24381377  0.99109969  0.95528591  1  0  0.414069  0  0.894124  0  0  0.389492  0  0.949683  0  0  0.398823  0  0.935878  0  0  0.293268  0.382919  0  0.959419  0
H  H6  1  0.25636531  0.03578828  0.04488667  1  0  0.416831  0  0.891079  0  0  0.392024  0  0.946925  0  0  0.401403  0  0.933028  0  0  0.294603  0.385428  0  0.956705  0
H  H7  1  0.75618801  0.00890159  0.04471393  1  0  0.414075  0  0.894121  0  0  0.389496  0  0.94968  0  0  0.398828  0  0.935875  0  0  0.293276  0.38292  0  0.959422  0
H  H8  1  0.56004228  0.32736404  0.24381378  1  0  0.0862  0  0.950407  0  0  0.0977  0  1.017581  0  0  0.097953  0  1.018484  0  0  0.10933  0.097435  0  1.017299  0
H  H9  1  0.05984763  0.91548972  0.24373759  1  0  0.086562  0  0.950275  0  0  0.097408  0  1.017779  0  0  0.097734  0  1.018607  0  0  0.109348  0.097112  0  1.017496  0
H  H10  1  0.43996119  0.67263863  0.75618455  1  0  0.086182  0  0.950342  0  0  0.097664  0  1.017526  0  0  0.09792  0  1.018424  0  0  0.109315  0.0974  0  1.01725  0
H  H11  1  0.94015406  0.08450885  0.75626084  1  0  0.086633  0  0.950155  0  0  0.097432  0  1.017692  0  0  0.097756  0  1.018522  0  0  0.109366  0.097137  0  1.017419  0
H  H12  1  0.64867088  0.12446238  0.18307494  1  0  0.101431  0  0.94437  0  0  0.108899  0  1.012166  0  0  0.111729  0  1.009527  0  0  0.113006  0.106882  0  1.014179  0
H  H13  1  0.14845692  0.05784125  0.18306259  1  0  0.101612  0  0.944311  0  0  0.108609  0  1.01203  0  0  0.111531  0  1.009321  0  0  0.112981  0.106516  0  1.0141  0
H  H14  1  0.35132763  0.87553891  0.81692417  1  0  0.101335  0  0.944461  0  0  0.108769  0  1.012272  0  0  0.111599  0  1.009631  0  0  0.112974  0.106755  0  1.014288  0
H  H15  1  0.85154466  0.94215457  0.81693672  1  0  0.101575  0  0.944377  0  0  0.108581  0  1.01206  0  0  0.111502  0  1.009351  0  0  0.112957  0.106493  0  1.014135  0
H  H16  1  0.21714452  0.53899960  0.23496235  1  0  0.116061  0  0.952681  0  0  0.124509  0  1.015235  0  0  0.12863  0  1.013166  0  0  0.110288  0.121524  0  1.016866  0
H  H17  1  0.71759404  0.69540002  0.23513385  1  0  0.117576  0  0.953241  0  0  0.125885  0  1.015704  0  0  0.130036  0  1.013592  0  0  0.111808  0.122921  0  1.017273  0
H  H18  1  0.78286033  0.46099618  0.76504055  1  0  0.116051  0  0.952695  0  0  0.12457  0  1.015177  0  0  0.128653  0  1.013157  0  0  0.110308  0.121589  0  1.016806  0
H  H19  1  0.28241275  0.30460402  0.76486419  1  0  0.117529  0  0.953279  0  0  0.125855  0  1.015716  0  0  0.13001  0  1.013606  0  0  0.111795  0.122891  0  1.01728  0
H  H20  1  0.44513682  0.61452351  0.36742860  1  0  0.083382  0  0.98573  0  0  0.093631  0  1.048336  0  0  0.094915  0  1.049892  0  0  0.094145  0.092624  0  1.047504  0
H  H21  1  0.94576733  0.75296818  0.36757797  1  0  0.083064  0  0.98578  0  0  0.092783  0  1.049052  0  0  0.094128  0  1.050526  0  0  0.093386  0.091731  0  1.04828  0
H  H22  1  0.55485996  0.38547499  0.63257589  1  0  0.083417  0  0.985787  0  0  0.093667  0  1.048382  0  0  0.094952  0  1.049939  0  0  0.094134  0.092658  0  1.047549  0
H  H23  1  0.05423446  0.24703309  0.63242244  1  0  0.083061  0  0.985781  0  0  0.092766  0  1.049067  0  0  0.094111  0  1.050541  0  0  0.093384  0.091718  0  1.04829  0
H  H24  1  0.32599619  0.50438153  0.48119059  1  0  0.084003  0  0.970565  0  0  0.096141  0  1.031512  0  0  0.098739  0  1.030635  0  0  0.09557  0.094275  0  1.032251  0
H  H25  1  0.82620164  0.97710395  0.48117955  1  0  0.082958  0  0.971219  0  0  0.09545  0  1.031756  0  0  0.098037  0  1.030873  0  0  0.09571  0.093596  0  1.032496  0
H  H26  1  0.67399251  0.49561970  0.51881377  1  0  0.083991  0  0.970546  0  0  0.096177  0  1.031429  0  0  0.098775  0  1.03055  0  0  0.095589  0.094299  0  1.032179  0
H  H27  1  0.17379508  0.02289322  0.51882195  1  0  0.082944  0  0.971264  0  0  0.095459  0  1.031776  0  0  0.098046  0  1.030892  0  0  0.09572  0.093606  0  1.032514  0
H  H28  1  0.98977473  0.30611066  0.45871018  1  0  0.082593  0  0.963057  0  0  0.093643  0  1.024609  0  0  0.095503  0  1.024783  0  0  0.097427  0.092341  0  1.024459  0
H  H29  1  0.48927706  0.15229432  0.45848710  1  0  0.081167  0  0.963651  0  0  0.093002  0  1.024572  0  0  0.094807  0  1.024786  0  0  0.09673  0.091721  0  1.024385  0
H  H30  1  0.01021560  0.69389061  0.54129140  1  0  0.082563  0  0.963059  0  0  0.093628  0  1.0246  0  0  0.095485  0  1.024785  0  0  0.097422  0.092324  0  1.02446  0
H  H31  1  0.51072125  0.84770149  0.54151263  1  0  0.081166  0  0.963656  0  0  0.093005  0  1.024573  0  0  0.09481  0  1.024789  0  0  0.096738  0.091733  0  1.02439  0
H  H32  1  0.76795055  0.22633542  0.32782888  1  0  0.099894  0  1.008802  0  0  0.108304  0  1.075728  0  0  0.110302  0  1.077127  0  0  0.09718  0.106853  0  1.074896  0
H  H33  1  0.26739855  0.10053915  0.32763930  1  0  0.099876  0  1.00909  0  0  0.108246  0  1.075965  0  0  0.110153  0  1.077511  0  0  0.097151  0.106822  0  1.075131  0
H  H34  1  0.23204146  0.77366722  0.67217176  1  0  0.099925  0  1.008751  0  0  0.108328  0  1.075699  0  0  0.110322  0  1.077107  0  0  0.097184  0.106874  0  1.074875  0
H  H35  1  0.73260139  0.89945666  0.67236051  1  0  0.099879  0  1.009056  0  0  0.10822  0  1.075972  0  0  0.110127  0  1.077516  0  0  0.097137  0.106799  0  1.075135  0
C  C36  1  0.49272927  0.31893828  0.12020749  1  0  0.71208  0  3.894853  0  0  0.666019  0  4.198791  0  0  0.698446  0  4.18828  0  0  0.214446  0.644027  0  4.205365  0
C  C37  1  0.99274903  0.80065571  0.12014301  1  0  0.708789  0  3.899347  0  0  0.662797  0  4.203124  0  0  0.695233  0  4.192646  0  0  0.212423  0.640769  0  4.209702  0
C  C38  1  0.50727603  0.68106988  0.87978972  1  0  0.71204  0  3.894628  0  0  0.665932  0  4.198633  0  0  0.698358  0  4.188123  0  0  0.21448  0.643944  0  4.20521  0
C  C39  1  0.00725741  0.19933875  0.87985469  1  0  0.708831  0  3.899337  0  0  0.662725  0  4.203271  0  0  0.695155  0  4.192802  0  0  0.212429  0.640708  0  4.20984  0
C  C40  1  0.63841883  0.27396255  0.19092992  1  0  -0.084268  0  3.602226  0  0  -0.138715  0  3.857876  0  0  -0.135759  0  3.858329  0  0  -0.071742  -0.141  0  3.857782  0
C  C41  1  0.13832026  0.91616231  0.19088716  1  0  -0.083731  0  3.602705  0  0  -0.136671  0  3.856041  0  0  -0.13386  0  3.85661  0  0  -0.070982  -0.138798  0  3.855807  0
C  C42  1  0.36158791  0.72604011  0.80906914  1  0  -0.08406  0  3.602183  0  0  -0.13839  0  3.857733  0  0  -0.13543  0  3.858187  0  0  -0.071696  -0.140684  0  3.857644  0
C  C43  1  0.86168306  0.08383626  0.80911135  1  0  -0.083857  0  3.602681  0  0  -0.136669  0  3.855979  0  0  -0.133852  0  3.856547  0  0  -0.070994  -0.138823  0  3.855797  0
C  C44  1  0.97607872  0.38244270  0.27326272  1  0  0.266028  0  3.805732  0  0  0.261323  0  4.061884  0  0  0.27213  0  4.077256  0  0  0.081963  0.253862  0  4.051395  0
C  C45  1  0.47604209  0.89008752  0.27324543  1  0  0.268043  0  3.804427  0  0  0.2631  0  4.060134  0  0  0.273925  0  4.075518  0  0  0.08364  0.25563  0  4.049647  0
C  C46  1  0.02392296  0.61755584  0.72673743  1  0  0.266138  0  3.80576  0  0  0.261404  0  4.061985  0  0  0.272215  0  4.077348  0  0  0.081986  0.253942  0  4.051493  0
C  C47  1  0.52396122  0.10991104  0.72675365  1  0  0.26803  0  3.804487  0  0  0.263111  0  4.060194  0  0  0.273938  0  4.075575  0  0  0.083646  0.255644  0  4.049706  0
C  C48  1  0.17005311  0.48826019  0.28450075  1  0  -0.183544  0  3.725254  0  0  -0.206246  0  3.980739  0  0  -0.210914  0  3.997906  0  0  -0.101814  -0.203161  0  3.969388  0
C  C49  1  0.67027007  0.79571079  0.28458408  1  0  -0.185365  0  3.725796  0  0  -0.208126  0  3.981492  0  0  -0.212802  0  3.998623  0  0  -0.103389  -0.205038  0  3.970135  0
C  C50  1  0.82994516  0.51173420  0.71550399  1  0  -0.183606  0  3.724966  0  0  -0.206374  0  3.980467  0  0  -0.211009  0  3.997649  0  0  -0.101868  -0.203294  0  3.969114  0
C  C51  1  0.32973334  0.20429049  0.71541584  1  0  -0.185282  0  3.725744  0  0  -0.20804  0  3.98141  0  0  -0.212722  0  3.998546  0  0  -0.103371  -0.204949  0  3.970045  0
C  C52  1  0.29612718  0.53037361  0.35895318  1  0  -0.058168  0  3.798028  0  0  -0.068726  0  4.045156  0  0  -0.067947  0  4.065685  0  0  -0.095927  -0.069132  0  4.031395  0
C  C53  1  0.79643988  0.82838365  0.35904159  1  0  -0.058487  0  3.79656  0  0  -0.068578  0  4.04399  0  0  -0.06784  0  4.064515  0  0  -0.09604  -0.068961  0  4.030264  0
C  C54  1  0.70386468  0.46962494  0.64104650  1  0  -0.058265  0  3.798121  0  0  -0.068809  0  4.045279  0  0  -0.068031  0  4.0658  0  0  -0.095939  -0.06921  0  4.031513  0
C  C55  1  0.20356190  0.17161765  0.64095710  1  0  -0.058529  0  3.796553  0  0  -0.068613  0  4.044007  0  0  -0.067876  0  4.064533  0  0  -0.096051  -0.068993  0  4.030277  0
C  C56  1  0.23059758  0.46788984  0.42249111  1  0  -0.118071  0  3.808335  0  0  -0.132853  0  4.057405  0  0  -0.136832  0  4.078557  0  0  -0.109597  -0.130102  0  4.042846  0
C  C57  1  0.73071224  0.95453833  0.42247990  1  0  -0.115837  0  3.806829  0  0  -0.13105  0  4.056114  0  0  -0.135018  0  4.077263  0  0  -0.109478  -0.128317  0  4.041569  0
C  C58  1  0.76939255  0.53210592  0.57751394  1  0  -0.118017  0  3.8085  0  0  -0.132835  0  4.05756  0  0  -0.136812  0  4.078714  0  0  -0.109561  -0.13008  0  4.043006  0
C  C59  1  0.26928785  0.04546158  0.57752030  1  0  -0.11582  0  3.806959  0  0  -0.131049  0  4.056239  0  0  -0.135016  0  4.077386  0  0  -0.109495  -0.128322  0  4.041704  0
C  C60  1  0.04110657  0.35838701  0.41015177  1  0  -0.046858  0  3.804394  0  0  -0.055706  0  4.047151  0  0  -0.055449  0  4.068561  0  0  -0.093071  -0.055671  0  4.032393  0
C  C61  1  0.54085489  0.05139410  0.41003489  1  0  -0.045133  0  3.802481  0  0  -0.054522  0  4.045026  0  0  -0.054213  0  4.06647  0  0  -0.091212  -0.054493  0  4.030233  0
C  C62  1  0.95888028  0.64160883  0.58984627  1  0  -0.046723  0  3.804161  0  0  -0.055572  0  4.046901  0  0  -0.055317  0  4.068309  0  0  -0.093041  -0.055537  0  4.03215  0
C  C63  1  0.45914367  0.94860857  0.58996377  1  0  -0.045161  0  3.802538  0  0  -0.054552  0  4.045089  0  0  -0.054242  0  4.06653  0  0  -0.09123  -0.054536  0  4.030312  0
C  C64  1  0.91357838  0.31369779  0.33580290  1  0  -0.212067  0  3.760931  0  0  -0.22838  0  4.002356  0  0  -0.23451  0  4.023821  0  0  -0.111594  -0.224255  0  3.988123  0
C  C65  1  0.41329637  0.02137366  0.33568998  1  0  -0.213957  0  3.76119  0  0  -0.230419  0  4.003306  0  0  -0.236496  0  4.024794  0  0  -0.113388  -0.226327  0  3.989039  0
C  C66  1  0.08641671  0.68629937  0.66419909  1  0  -0.212226  0  3.76104  0  0  -0.228531  0  4.002483  0  0  -0.23466  0  4.023947  0  0  -0.11162  -0.2244  0  3.98825  0
C  C67  1  0.58670541  0.97862763  0.66430929  1  0  -0.213922  0  3.761227  0  0  -0.230364  0  4.003351  0  0  -0.236439  0  4.024836  0  0  -0.11336  -0.226273  0  3.989091  0
O  O68  1  0.85428828  0.35465529  0.19942628  1  0  -0.305448  0  2.359387  0  0  -0.236879  0  2.599299  0  0  -0.252919  0  2.599905  0  0  -0.210192  -0.225409  0  2.598538  0
O  O69  1  0.35422945  0.84388551  0.19943145  1  0  -0.30659  0  2.360314  0  0  -0.237529  0  2.599454  0  0  -0.253629  0  2.600148  0  0  -0.211214  -0.22605  0  2.598624  0
O  O70  1  0.14571668  0.64534324  0.80057574  1  0  -0.305475  0  2.359266  0  0  -0.236936  0  2.599182  0  0  -0.252983  0  2.599793  0  0  -0.210167  -0.225462  0  2.598427  0
O  O71  1  0.64577050  0.15611031  0.80056779  1  0  -0.306525  0  2.360242  0  0  -0.237544  0  2.599386  0  0  -0.253649  0  2.600079  0  0  -0.211195  -0.226064  0  2.598568  0
O  O72  1  0.56900764  0.41757662  0.07899694  1  0  -0.777506  0  1.95133  0  0  -0.738068  0  2.21027  0  0  -0.757399  0  2.192089  0  0  -0.467112  -0.724582  0  2.222548  0
O  O73  1  0.06916182  0.66086309  0.07898268  1  0  -0.775978  0  1.95475  0  0  -0.736817  0  2.214024  0  0  -0.756148  0  2.19584  0  0  -0.465121  -0.723336  0  2.226327  0
O  O74  1  0.43100093  0.58243150  0.92100329  1  0  -0.777573  0  1.951022  0  0  -0.738129  0  2.209986  0  0  -0.757457  0  2.191803  0  0  -0.467145  -0.724644  0  2.222265  0
O  O75  1  0.93084155  0.33913683  0.92101653  1  0  -0.776072  0  1.954651  0  0  -0.736873  0  2.213971  0  0  -0.756203  0  2.195788  0  0  -0.465206  -0.723395  0  2.226269  0
O  O76  1  0.29945221  0.25094445  0.10941528  1  0  -0.712544  0  1.958225  0  0  -0.663238  0  2.200172  0  0  -0.686654  0  2.186298  0  0  -0.390062  -0.646808  0  2.209329  0
O  O77  1  0.79941850  0.85794211  0.10930798  1  0  -0.71188  0  1.958644  0  0  -0.66283  0  2.20046  0  0  -0.686201  0  2.18659  0  0  -0.390207  -0.646408  0  2.209632  0
O  O78  1  0.70054814  0.74906233  0.89058214  1  0  -0.712525  0  1.958307  0  0  -0.663235  0  2.200278  0  0  -0.686649  0  2.186407  0  0  -0.390096  -0.646806  0  2.209436  0
O  O79  1  0.20058486  0.14205782  0.89069066  1  0  -0.711787  0  1.958667  0  0  -0.662689  0  2.200519  0  0  -0.686058  0  2.186655  0  0  -0.390122  -0.64627  0  2.209681  0
O  O80  1  0.74993088  0.07137244  0.99991761  1  0  -0.915086  0  1.800972  0  0  -0.871738  0  1.966507  0  0  -0.889189  0  1.937497  0  0  -0.678536  -0.859433  0  1.986842  0
O  O81  1  0.25007091  0.92862884  0.00008280  1  0  -0.915227  0  1.800799  0  0  -0.871862  0  1.966341  0  0  -0.889315  0  1.937329  0  0  -0.678567  -0.859568  0  1.986666  0
