# generated using pymatgen
data_CuBH12C13(N4O)2
_symmetry_space_group_name_H-M   'P 1'
_cell_length_a   8.45561260
_cell_length_b   10.32962483
_cell_length_c   10.29555523
_cell_angle_alpha   99.53037460
_cell_angle_beta   104.47533826
_cell_angle_gamma   98.12021660
_symmetry_Int_Tables_number   1
_chemical_formula_structural   CuBH12C13(N4O)2
_chemical_formula_sum   'Cu2 B2 H24 C26 N16 O4'
_cell_volume   842.83143329
_cell_formula_units_Z   2
loop_
 _symmetry_equiv_pos_site_id
 _symmetry_equiv_pos_as_xyz
  1  'x, y, z'
loop_
 _atom_site_type_symbol
 _atom_site_label
 _atom_site_symmetry_multiplicity
 _atom_site_fract_x
 _atom_site_fract_y
 _atom_site_fract_z
 _atom_site_occupancy
 _atom_site_hle17_ddec_charge
 _atom_site_hle17_ddec_spin_density
 _atom_site_hle17_ddec_sum_bond_order
 _atom_site_hle17_magmom
 _atom_site_hse06_10hf_ddec_charge
 _atom_site_hse06_10hf_ddec_spin_density
 _atom_site_hse06_10hf_ddec_sum_bond_order
 _atom_site_hse06_10hf_magmom
 _atom_site_hse06_ddec_charge
 _atom_site_hse06_ddec_spin_density
 _atom_site_hse06_ddec_sum_bond_order
 _atom_site_hse06_magmom
 _atom_site_pbe_cm5_charge
 _atom_site_pbe_ddec_charge
 _atom_site_pbe_ddec_spin_density
 _atom_site_pbe_ddec_sum_bond_order
 _atom_site_pbe_magmom
Cu  Cu0  1  0.26234174  0.83629674  0.27311035  1  0.805411  -0.738171  1.933783  -0.531  0.774337  -0.819958  2.32302  -0.644  0.85914  -0.890682  2.262711  -0.726  0.756356  0.720296  -0.759108  2.364898  -0.582
Cu  Cu1  1  0.73765825  0.16370576  0.72690331  1  0.805417  0.738162  1.933734  0.531  0.774402  0.819959  2.322931  0.644  0.859188  0.890685  2.262614  0.726  0.756362  0.720413  0.759108  2.364718  0.582
B  B2  1  0.65442883  0.68271911  0.88365916  1  0.71234  0.000526  3.014199  0.001  0.543942  0.00042  3.328232  0.001  0.567253  0.000321  3.326078  0.0  0.108751  0.527434  0.000458  3.331084  0.001
B  B3  1  0.34557477  0.31727951  0.11633623  1  0.712389  -0.000525  3.014057  -0.001  0.544095  -0.000418  3.3279  -0.001  0.567402  -0.00032  3.325702  0.0  0.108815  0.527538  -0.000459  3.330834  -0.001
H  H4  1  0.40451593  0.53855986  0.62993761  1  0.100424  0.000508  0.966586  0.001  0.111481  0.000437  1.02621  0.0  0.113959  0.000327  1.025075  0.0  0.118832  0.109487  0.000501  1.02746  0.001
H  H5  1  0.59547498  0.46142880  0.37006088  1  0.100529  -0.000519  0.96635  -0.001  0.111549  -0.000437  1.026052  0.0  0.114029  -0.000327  1.024913  0.0  0.118834  0.109556  -0.000501  1.027303  -0.001
H  H6  1  0.84753980  0.67474041  0.68236652  1  0.110031  0.000527  0.94383  0.001  0.122802  0.000431  0.996363  0.001  0.125197  0.000315  0.995772  0.0  0.124313  0.120821  0.0005  0.997169  0.001
H  H7  1  0.15246558  0.32527021  0.31763227  1  0.109956  -0.000528  0.943845  -0.001  0.122737  -0.000431  0.996383  -0.001  0.125131  -0.000316  0.995792  0.0  0.124274  0.12077  -0.0005  0.99717  -0.001
H  H8  1  0.97971451  0.84643264  0.01736008  1  0.093183  -0.000119  0.944517  0.0  0.100905  -0.000164  1.010065  0.0  0.102767  -0.000122  1.007671  0.0  0.137629  0.099358  -0.000209  1.011893  0.0
H  H9  1  0.02028757  0.15358000  0.98264118  1  0.093206  0.000119  0.944551  0.0  0.100916  0.000164  1.010115  0.0  0.102781  0.000122  1.00771  0.0  0.13767  0.099369  0.000209  1.011949  0.0
H  H10  1  0.92217950  0.92199993  0.61406124  1  0.123417  0.000135  0.923276  0.0  0.135935  0.00029  0.973018  0.001  0.138862  0.000206  0.971085  0.0  0.128967  0.133642  0.000354  0.974632  0.001
H  H11  1  0.07781078  0.07801483  0.38594049  1  0.123325  -0.000133  0.923385  0.0  0.135848  -0.000291  0.973135  -0.001  0.138774  -0.000206  0.971203  0.0  0.12893  0.133556  -0.000354  0.974747  -0.001
H  H12  1  0.96625904  0.60861072  0.31030582  1  0.104914  -4.4e-05  0.936455  0.0  0.117556  -0.000256  0.98796  0.0  0.119944  -0.000177  0.986879  0.0  0.120447  0.115457  -0.000363  0.989231  -0.001
H  H13  1  0.03375312  0.39137684  0.68968198  1  0.104861  4.3e-05  0.93645  0.0  0.117494  0.000257  0.987977  0.0  0.119884  0.000177  0.986893  0.0  0.120425  0.115394  0.000363  0.989247  0.001
H  H14  1  0.63640221  0.95970827  0.89458218  1  0.104287  9.1e-05  0.9443  0.0  0.111919  0.000171  1.007074  0.0  0.114075  0.000125  1.004553  0.0  0.140467  0.110279  0.000204  1.008782  0.0
H  H15  1  0.36358459  0.04028344  0.10541585  1  0.104318  -8.9e-05  0.944357  0.0  0.111943  -0.00017  1.007126  0.0  0.114098  -0.000125  1.004604  0.0  0.140475  0.110301  -0.000204  1.008842  0.0
H  H16  1  0.82896383  0.46107371  0.90174556  1  0.088802  6.5e-05  0.954185  0.0  0.095831  0.000116  1.020731  0.0  0.097527  9e-05  1.019137  0.0  0.133124  0.094578  0.00016  1.021904  0.0
H  H17  1  0.17104992  0.53892892  0.09824125  1  0.08892  -6.2e-05  0.954065  0.0  0.095918  -0.000116  1.020625  0.0  0.097616  -9e-05  1.019032  0.0  0.133167  0.094664  -0.00016  1.021798  0.0
H  H18  1  0.67038217  0.53040325  0.10174276  1  0.111935  -0.000562  0.965721  -0.001  0.116278  -0.000484  1.034608  -0.001  0.118915  -0.000361  1.033979  0.0  0.11987  0.114252  -0.00058  1.035306  -0.001
H  H19  1  0.32962595  0.46959643  0.89824222  1  0.11197  0.000565  0.965728  0.001  0.116241  0.000485  1.034708  0.001  0.118878  0.000361  1.03408  0.0  0.119858  0.114218  0.00058  1.035408  0.001
H  H20  1  0.55104569  0.75392194  0.13229025  1  0.089924  1.4e-05  0.953206  0.0  0.098276  -7e-06  1.018596  0.0  0.101665  1.2e-05  1.014894  0.0  0.127892  0.095914  -1.7e-05  1.02106  0.0
H  H21  1  0.44896637  0.24607252  0.86771131  1  0.089993  -2.2e-05  0.953581  0.0  0.098273  8e-06  1.019017  0.0  0.101663  -1.2e-05  1.015313  0.0  0.127905  0.095933  1.7e-05  1.021456  0.0
H  H22  1  0.45498954  0.28569682  0.53455397  1  0.102029  3.7e-05  0.967223  0.0  0.108485  0.00021  1.031659  0.001  0.110345  0.000142  1.031608  0.0  0.113846  0.106874  0.000225  1.032055  0.001
H  H23  1  0.54499964  0.71429272  0.46545884  1  0.101959  -3.5e-05  0.967264  0.0  0.108439  -0.000209  1.031675  -0.001  0.110294  -0.000142  1.031626  0.0  0.113816  0.106832  -0.000225  1.032069  -0.001
H  H24  1  0.13500452  0.81676250  0.84452977  1  0.077049  1.3e-05  1.000301  0.0  0.083131  3e-06  1.069403  0.0  0.085292  6e-06  1.069152  0.0  0.098115  0.08165  -2e-06  1.069495  0.0
H  H25  1  0.86499385  0.18323420  0.15546115  1  0.076967  -1.6e-05  1.000302  0.0  0.083089  -2e-06  1.069369  0.0  0.085251  -6e-06  1.069116  0.0  0.098094  0.08161  2e-06  1.069463  0.0
H  H26  1  0.35340670  0.73313314  0.70656403  1  0.106644  -1e-05  0.957612  0.0  0.11947  2e-05  1.013316  0.0  0.123037  1.6e-05  1.010759  0.0  0.118233  0.116844  2.3e-05  1.015424  0.0
H  H27  1  0.64659735  0.26686342  0.29343598  1  0.106598  1e-05  0.957584  0.0  0.119473  -2.1e-05  1.013241  0.0  0.123042  -1.6e-05  1.010684  0.0  0.118229  0.116848  -2.3e-05  1.015348  0.0
C  C28  1  0.49976393  0.48534357  0.67220244  1  -0.032846  0.004064  3.712268  0.004  -0.073321  0.002275  3.97162  0.002  -0.072535  0.00196  3.990778  0.002  -0.00133  -0.073794  0.002262  3.959007  0.002
C  C29  1  0.50023586  0.51465102  0.32779818  1  -0.0329  -0.003992  3.712051  -0.004  -0.073367  -0.002276  3.971451  -0.002  -0.072582  -0.00196  3.990607  -0.002  -0.001348  -0.073838  -0.002262  3.958835  -0.002
C  C30  1  0.81590041  0.77032570  0.71604780  1  -0.035771  0.004216  3.714831  0.004  -0.072002  0.002068  3.971863  0.002  -0.070749  0.001742  3.990488  0.002  0.001499  -0.072534  0.002464  3.958983  0.003
C  C31  1  0.18410050  0.22967695  0.28394860  1  -0.035723  -0.004188  3.714746  -0.004  -0.071965  -0.002069  3.971807  -0.002  -0.070713  -0.001741  3.99044  -0.002  0.00154  -0.072503  -0.002465  3.958914  -0.003
C  C32  1  0.44222090  0.99494553  0.54898956  1  0.508461  -0.006054  3.922932  -0.01  0.474999  -0.000483  4.230976  -0.003  0.506869  -0.000443  4.228565  -0.003  0.182267  0.452802  -0.000423  4.231604  -0.004
C  C33  1  0.55776271  0.00506014  0.45102268  1  0.508306  0.006054  3.922898  0.01  0.474775  0.000485  4.23103  0.003  0.506633  0.000443  4.228632  0.003  0.182251  0.452609  0.000424  4.231624  0.004
C  C34  1  0.93585640  0.77228672  0.06958790  1  0.21595  0.005818  3.650783  0.006  0.158345  0.001453  3.922279  0.002  0.17546  0.002172  3.933903  0.002  0.149515  0.147196  0.000932  3.914489  0.001
C  C35  1  0.06415247  0.22771382  0.93041101  1  0.215919  -0.005812  3.650755  -0.006  0.158309  -0.001454  3.922273  -0.002  0.175425  -0.002173  3.933894  -0.002  0.149469  0.147155  -0.000933  3.914484  -0.001
C  C36  1  0.85303844  0.89296065  0.68362284  1  -0.005431  -0.000219  3.72405  0.0  -0.031595  0.000988  3.984297  0.001  -0.027792  0.000283  4.003952  0.0  0.000789  -0.034103  0.001713  3.97144  0.002
C  C37  1  0.14696232  0.10704293  0.31638146  1  -0.005271  0.000187  3.72417  0.0  -0.031452  -0.000988  3.984445  -0.001  -0.027643  -0.000283  4.004097  0.0  0.000817  -0.033961  -0.001712  3.971589  -0.002
C  C38  1  0.92447968  0.64686220  0.21829286  1  -0.008722  -0.000787  3.753551  -0.001  -0.035473  -0.001511  4.017771  -0.001  -0.031961  -0.000743  4.037413  -0.001  -0.003589  -0.037689  -0.002027  4.00496  -0.002
C  C39  1  0.07553092  0.35313533  0.78170498  1  -0.008579  0.000796  3.753571  0.001  -0.035319  0.001512  4.017776  0.001  -0.031807  0.000743  4.03742  0.001  -0.003543  -0.037532  0.002028  4.004965  0.002
C  C40  1  0.70609292  0.91631503  0.82935206  1  0.214732  -0.003283  3.640574  -0.003  0.154859  -0.000116  3.911963  0.0  0.171913  -0.001065  3.923236  -0.001  0.149681  0.143474  8.3e-05  3.904739  0.0
C  C41  1  0.29390616  0.08368253  0.17065375  1  0.214526  0.003261  3.640574  0.003  0.154671  0.000115  3.911957  0.0  0.171726  0.001064  3.923232  0.001  0.149582  0.143287  -8.3e-05  3.904721  0.0
C  C42  1  0.72256232  0.44819360  0.81350826  1  0.194463  -0.005236  3.687509  -0.005  0.135403  -0.00107  3.964604  -0.001  0.151093  -0.001799  3.978016  -0.002  0.141301  0.125175  2.3e-05  3.955859  0.0
C  C43  1  0.27744032  0.55180603  0.18648708  1  0.194527  0.005211  3.687223  0.005  0.135493  0.001072  3.964272  0.001  0.151179  0.001798  3.977687  0.002  0.141354  0.125266  -2.3e-05  3.955518  0.0
C  C44  1  0.77745637  0.60783875  0.11549985  1  -0.028541  -0.003486  3.697321  -0.003  -0.065271  -0.002035  3.958326  -0.002  -0.063558  -0.001783  3.976897  -0.002  0.002664  -0.066569  -0.00219  3.946145  -0.002
C  C45  1  0.22256026  0.39215679  0.88449035  1  -0.028616  0.003477  3.697403  0.003  -0.065281  0.002035  3.958391  0.002  -0.06357  0.001783  3.976965  0.002  0.002651  -0.066583  0.00219  3.946214  0.002
C  C46  1  0.46366837  0.75518383  0.03556619  1  0.192647  2.6e-05  3.685339  0.0  0.139072  5.4e-05  3.959936  0.0  0.153089  4.2e-05  3.970033  0.0  0.12905  0.130212  0.000112  3.952437  0.0
C  C47  1  0.53631968  0.24482407  0.96441928  1  0.192528  2.9e-05  3.685095  0.0  0.139021  -5.4e-05  3.959708  0.0  0.153024  -4.3e-05  3.969814  0.0  0.128959  0.130144  -0.000112  3.9522  0.0
C  C48  1  0.52703031  0.36073602  0.62426790  1  -0.000953  8e-06  3.750583  0.0  -0.025127  0.001098  4.013179  0.001  -0.020662  0.000413  4.032942  0.0  -0.005017  -0.028351  0.001425  4.000934  0.001
C  C49  1  0.47297013  0.63926154  0.37573532  1  -0.000895  -5.5e-05  3.750468  0.0  -0.025094  -0.001096  4.013087  -0.001  -0.020622  -0.000413  4.032845  0.0  -0.004997  -0.028321  -0.001424  4.000842  -0.001
C  C50  1  0.25268711  0.78733870  0.88525786  1  -0.020429  -5.8e-05  3.813654  0.0  -0.041167  -9e-06  4.079069  0.0  -0.039977  -1.5e-05  4.099275  0.0  -0.020272  -0.041571  3.7e-05  4.064731  0.0
C  C51  1  0.74731020  0.21265996  0.11473993  1  -0.020158  9.1e-05  3.813751  0.0  -0.040934  9e-06  4.07916  0.0  -0.039741  1.5e-05  4.099371  0.0  -0.020178  -0.04134  -3.8e-05  4.064821  0.0
C  C52  1  0.35880583  0.74233504  0.81411415  1  -0.043757  0.000199  3.719194  0.0  -0.079389  9.9e-05  3.970157  0.0  -0.077408  7.4e-05  3.987721  0.0  -0.009161  -0.080689  0.000147  3.958133  0.0
C  C53  1  0.64119761  0.25765855  0.18588231  1  -0.043861  -0.000225  3.719551  0.0  -0.07954  -9.8e-05  3.970542  0.0  -0.077572  -7.5e-05  3.988115  0.0  -0.009192  -0.080839  -0.000147  3.95851  0.0
N  N54  1  0.02266428  0.74975628  0.18787690  1  -0.350602  -0.068269  3.334064  -0.085  -0.309494  -0.05095  3.649577  -0.068  -0.338883  -0.042713  3.667185  -0.06  -0.373397  -0.291703  -0.055302  3.639232  -0.071
N  N55  1  0.97733841  0.25024932  0.81212430  1  -0.350592  0.068265  3.33398  0.085  -0.309511  0.05095  3.64952  0.068  -0.338894  0.042714  3.667117  0.06  -0.373349  -0.29173  0.055304  3.639167  0.071
N  N56  1  0.78558362  0.68826123  0.02082348  1  -0.324509  -0.001788  3.495013  -0.002  -0.222085  -0.001389  3.724285  -0.002  -0.240248  -0.001001  3.74424  -0.001  -0.230259  -0.210063  -0.001658  3.710887  -0.002
N  N57  1  0.21442013  0.31174337  0.97917586  1  -0.32461  0.001784  3.495077  0.002  -0.222182  0.001388  3.724326  0.002  -0.240343  0.001  3.744275  0.001  -0.230312  -0.210153  0.001657  3.710932  0.002
N  N58  1  0.49427872  0.72034503  0.91089968  1  -0.349683  0.000286  3.510355  0.0  -0.245556  0.000201  3.741358  0.0  -0.263991  0.000137  3.762253  0.0  -0.240026  -0.23287  0.000277  3.726778  0.0
N  N59  1  0.50571989  0.27965053  0.08910472  1  -0.349572  -0.000296  3.510255  0.0  -0.245464  -0.000202  3.741237  0.0  -0.263883  -0.000136  3.76215  0.0  -0.24  -0.232773  -0.000277  3.726662  0.0
N  N60  1  0.62400518  0.54049452  0.79349043  1  -0.323468  0.002733  3.492347  0.003  -0.223059  0.001742  3.727303  0.002  -0.240873  0.001238  3.747524  0.002  -0.232409  -0.211059  0.001932  3.713641  0.002
N  N61  1  0.37599821  0.45950407  0.20650879  1  -0.323577  -0.002734  3.492333  -0.003  -0.223182  -0.001743  3.727296  -0.002  -0.240996  -0.001238  3.747516  -0.002  -0.232457  -0.211176  -0.001931  3.713633  -0.002
N  N62  1  0.72218914  0.78613461  0.80856745  1  -0.329468  0.00184  3.517843  0.002  -0.229708  0.001563  3.753245  0.002  -0.248248  0.001125  3.774089  0.001  -0.234323  -0.216852  0.002082  3.738735  0.003
N  N63  1  0.27780944  0.21386403  0.19142967  1  -0.329426  -0.001836  3.517882  -0.002  -0.229691  -0.001564  3.753298  -0.002  -0.248235  -0.001126  3.774155  -0.001  -0.234353  -0.216828  -0.002082  3.738792  -0.003
N  N64  1  0.66719021  0.33887527  0.71390688  1  -0.351379  0.066827  3.341281  0.084  -0.30701  0.047613  3.648183  0.063  -0.336927  0.039784  3.667731  0.055  -0.377247  -0.288501  0.05234  3.636943  0.066
N  N65  1  0.33281511  0.66112533  0.28608926  1  -0.35149  -0.066814  3.341205  -0.084  -0.307105  -0.047612  3.648119  -0.063  -0.337027  -0.039782  3.667673  -0.055  -0.377276  -0.288587  -0.052337  3.636883  -0.066
N  N66  1  0.78328244  0.98310051  0.75569783  1  -0.355939  0.069962  3.339734  0.087  -0.308298  0.049986  3.644236  0.066  -0.339563  0.041301  3.666839  0.057  -0.374128  -0.289128  0.054627  3.630786  0.069
N  N67  1  0.21671401  0.01690204  0.24431304  1  -0.355889  -0.069951  3.339727  -0.087  -0.308234  -0.049989  3.644179  -0.066  -0.339503  -0.041302  3.666791  -0.057  -0.37405  -0.289055  -0.05463  3.630733  -0.069
N  N68  1  0.31909393  0.79484907  0.02381108  1  -0.396508  0.001405  3.131899  0.001  -0.362089  0.001176  3.425152  0.001  -0.37883  0.0012  3.440663  0.001  -0.353892  -0.350761  0.001429  3.414271  0.001
N  N69  1  0.68091332  0.20515452  0.97618698  1  -0.396546  -0.001436  3.131536  -0.001  -0.362131  -0.001175  3.424793  -0.001  -0.378868  -0.001201  3.440303  -0.001  -0.353864  -0.35081  -0.001429  3.413916  -0.001
O  O70  1  0.30838285  0.91081917  0.50793112  1  -0.569017  0.017162  1.967937  0.022  -0.550858  0.008319  2.203859  0.011  -0.577779  0.00462  2.192787  0.006  -0.333337  -0.530554  0.013445  2.210444  0.018
O  O71  1  0.69160248  0.08918039  0.49208829  1  -0.568853  -0.017164  1.968066  -0.022  -0.550691  -0.008319  2.204047  -0.011  -0.577607  -0.00462  2.192978  -0.006  -0.333286  -0.530403  -0.013444  2.210613  -0.018
O  O72  1  0.49345291  0.07525076  0.66625735  1  -0.529642  0.107265  2.086815  0.142  -0.521563  0.062747  2.363114  0.09  -0.566447  0.045807  2.36252  0.069  -0.315239  -0.48902  0.074378  2.361651  0.103
O  O73  1  0.50653243  0.92475689  0.33375563  1  -0.529629  -0.107258  2.086672  -0.142  -0.521506  -0.062753  2.363022  -0.09  -0.566383  -0.045811  2.362418  -0.069  -0.315252  -0.488965  -0.07438  2.361555  -0.103
