# generated using pymatgen
data_CaVH8C2NO9
_symmetry_space_group_name_H-M   'P 1'
_cell_length_a   8.57348019
_cell_length_b   8.95193244
_cell_length_c   12.56936325
_cell_angle_alpha   106.91838878
_cell_angle_beta   90.00001702
_cell_angle_gamma   89.99980046
_symmetry_Int_Tables_number   1
_chemical_formula_structural   CaVH8C2NO9
_chemical_formula_sum   'Ca4 V4 H32 C8 N4 O36'
_cell_volume   922.93726405
_cell_formula_units_Z   4
loop_
 _symmetry_equiv_pos_site_id
 _symmetry_equiv_pos_as_xyz
  1  'x, y, z'
loop_
 _atom_site_type_symbol
 _atom_site_label
 _atom_site_symmetry_multiplicity
 _atom_site_fract_x
 _atom_site_fract_y
 _atom_site_fract_z
 _atom_site_occupancy
 _atom_site_hle17_bader_spin_density
 _atom_site_hle17_ddec_charge
 _atom_site_hle17_ddec_spin_density
 _atom_site_hle17_ddec_sum_bond_order
 _atom_site_hle17_magmom
 _atom_site_hse06_10hf_bader_spin_density
 _atom_site_hse06_10hf_ddec_charge
 _atom_site_hse06_10hf_ddec_spin_density
 _atom_site_hse06_10hf_ddec_sum_bond_order
 _atom_site_hse06_10hf_magmom
 _atom_site_hse06_bader_spin_density
 _atom_site_hse06_ddec_charge
 _atom_site_hse06_ddec_spin_density
 _atom_site_hse06_ddec_sum_bond_order
 _atom_site_hse06_magmom
 _atom_site_pbe_bader_spin_density
 _atom_site_pbe_cm5_charge
 _atom_site_pbe_ddec_charge
 _atom_site_pbe_ddec_spin_density
 _atom_site_pbe_ddec_sum_bond_order
 _atom_site_pbe_magmom
Ca  Ca0  1  0.71177017  0.41189742  0.71476932  1  0  1.533237  0  1.155141  0  0  1.404588  0  1.50928  0  0  1.454072  0  1.458873  0  0  0.862067  1.367222  0  1.545959  0
Ca  Ca1  1  0.21176873  0.58810452  0.78523039  1  0  1.533247  0  1.155078  0  0  1.404631  0  1.509135  0  0  1.454107  0  1.458746  0  0  0.862093  1.367267  0  1.54581  0
Ca  Ca2  1  0.28823327  0.58810684  0.28523106  1  0  1.533195  0  1.155167  0  0  1.404618  0  1.509172  0  0  1.454086  0  1.458799  0  0  0.862073  1.367258  0  1.545841  0
Ca  Ca3  1  0.78823354  0.41189274  0.21476865  1  0  1.533188  0  1.155148  0  0  1.404613  0  1.509163  0  0  1.45408  0  1.458788  0  0  0.862072  1.367248  0  1.545836  0
V  V4  1  0.52888013  0.73879338  0.90580515  1  0  1.693396  0  3.018979  0  0  1.713278  0  3.406284  0  0  1.795082  0  3.401967  0  0  1.517998  1.655862  0  3.413868  0
V  V5  1  0.02888432  0.26120693  0.59419508  1  0  1.693371  0  3.019003  0  0  1.713219  0  3.406305  0  0  1.795079  0  3.4019  0  0  1.51803  1.655816  0  3.413862  0
V  V6  1  0.47112448  0.26120858  0.09419558  1  0  1.693386  0  3.018904  0  0  1.713246  0  3.406224  0  0  1.795153  0  3.401747  0  0  1.517972  1.655855  0  3.413764  0
V  V7  1  0.97112379  0.73878919  0.40580453  1  0  1.693406  0  3.019068  0  0  1.713288  0  3.406368  0  0  1.795202  0  3.401877  0  0  1.518021  1.655977  0  3.413769  0
H  H8  1  0.81309864  0.01522608  0.95407625  1  0  0.132554  0  0.913246  0  0  0.149407  0  0.967438  0  0  0.152757  0  0.964821  0  0  0.128773  0.147089  0  0.969596  0
H  H9  1  0.31310242  0.98478367  0.54592495  1  0  0.132579  0  0.913491  0  0  0.149429  0  0.967645  0  0  0.152775  0  0.965025  0  0  0.128805  0.14711  0  0.969797  0
H  H10  1  0.18690247  0.98477247  0.04592701  1  0  0.132577  0  0.913403  0  0  0.14945  0  0.967555  0  0  0.152795  0  0.964934  0  0  0.128797  0.147132  0  0.969712  0
H  H11  1  0.68690102  0.01522658  0.45408137  1  0  0.132612  0  0.913305  0  0  0.149407  0  0.967565  0  0  0.152754  0  0.964948  0  0  0.128763  0.147099  0  0.969693  0
H  H12  1  0.84619064  0.99500305  0.81142977  1  0  0.103808  0  0.909427  0  0  0.120878  0  0.963194  0  0  0.123489  0  0.960758  0  0  0.117971  0.118755  0  0.965641  0
H  H13  1  0.34619824  0.00499803  0.68855701  1  0  0.103915  0  0.909588  0  0  0.120979  0  0.963298  0  0  0.123583  0  0.960866  0  0  0.118023  0.11885  0  0.965752  0
H  H14  1  0.15380813  0.00500341  0.18856627  1  0  0.103836  0  0.909488  0  0  0.120896  0  0.963238  0  0  0.1235  0  0.960798  0  0  0.117995  0.11877  0  0.965689  0
H  H15  1  0.65380287  0.99500260  0.31143790  1  0  0.10383  0  0.909531  0  0  0.120916  0  0.963249  0  0  0.123521  0  0.960818  0  0  0.117992  0.11879  0  0.965701  0
H  H16  1  0.56176890  0.02453438  0.89317428  1  0  0.310366  0  0.920624  0  0  0.292415  0  0.995331  0  0  0.302493  0  0.986489  0  0  0.298973  0.285415  0  1.001425  0
H  H17  1  0.06177513  0.97546102  0.60682102  1  0  0.310294  0  0.920599  0  0  0.292355  0  0.995322  0  0  0.302435  0  0.98648  0  0  0.298908  0.285354  0  1.001417  0
H  H18  1  0.43823454  0.97546053  0.10682350  1  0  0.310366  0  0.920574  0  0  0.29242  0  0.995286  0  0  0.302497  0  0.986449  0  0  0.298941  0.285421  0  1.001386  0
H  H19  1  0.93823181  0.02453737  0.39317664  1  0  0.310319  0  0.920619  0  0  0.292367  0  0.995333  0  0  0.302444  0  0.9865  0  0  0.298948  0.285367  0  1.00143  0
H  H20  1  0.59550146  0.90252707  0.76902888  1  0  0.310928  0  0.855569  0  0  0.314256  0  0.892187  0  0  0.320955  0  0.888523  0  0  0.323019  0.309541  0  0.894864  0
H  H21  1  0.09550760  0.09746603  0.73097154  1  0  0.310946  0  0.855566  0  0  0.314292  0  0.89217  0  0  0.320992  0  0.888505  0  0  0.323011  0.309575  0  0.894849  0
H  H22  1  0.40449498  0.09747264  0.23097461  1  0  0.310959  0  0.85553  0  0  0.314332  0  0.892092  0  0  0.321032  0  0.888426  0  0  0.323026  0.309615  0  0.894771  0
H  H23  1  0.90449351  0.90253245  0.26902932  1  0  0.310822  0  0.855694  0  0  0.31419  0  0.892267  0  0  0.32089  0  0.888603  0  0  0.322987  0.309473  0  0.894944  0
H  H24  1  0.58743636  0.57303039  0.56121392  1  0  0.435551  0  0.813309  0  0  0.417587  0  0.86621  0  0  0.426128  0  0.856563  0  0  0.33379  0.411437  0  0.87329  0
H  H25  1  0.08743572  0.42696965  0.93878465  1  0  0.435575  0  0.813277  0  0  0.417613  0  0.866173  0  0  0.426156  0  0.856522  0  0  0.333794  0.411461  0  0.873258  0
H  H26  1  0.41256008  0.42697042  0.43878739  1  0  0.435603  0  0.813282  0  0  0.417611  0  0.866218  0  0  0.426152  0  0.856575  0  0  0.333794  0.411461  0  0.873295  0
H  H27  1  0.91256539  0.57302768  0.06121678  1  0  0.435563  0  0.813298  0  0  0.417616  0  0.866185  0  0  0.426153  0  0.856545  0  0  0.333808  0.411465  0  0.873266  0
H  H28  1  0.76933330  0.58000660  0.54105488  1  0  0.430939  0  0.871299  0  0  0.393227  0  0.945164  0  0  0.406293  0  0.926107  0  0  0.304293  0.383938  0  0.958726  0
H  H29  1  0.26932921  0.41999859  0.95894385  1  0  0.430926  0  0.871331  0  0  0.393244  0  0.945168  0  0  0.406321  0  0.926096  0  0  0.304259  0.383939  0  0.958741  0
H  H30  1  0.23066081  0.41999770  0.45894631  1  0  0.430933  0  0.8713  0  0  0.393209  0  0.945197  0  0  0.406278  0  0.926134  0  0  0.304269  0.383917  0  0.958762  0
H  H31  1  0.73066956  0.58000332  0.04105529  1  0  0.431016  0  0.871196  0  0  0.393287  0  0.945091  0  0  0.406352  0  0.926033  0  0  0.304311  0.383998  0  0.958652  0
H  H32  1  0.77218229  0.35073615  0.92269590  1  0  0.420883  0  0.875529  0  0  0.395595  0  0.930355  0  0  0.405802  0  0.915284  0  0  0.304733  0.388258  0  0.941301  0
H  H33  1  0.27218269  0.64926324  0.57730330  1  0  0.420916  0  0.87548  0  0  0.395625  0  0.930311  0  0  0.405833  0  0.915239  0  0  0.304739  0.388287  0  0.941259  0
H  H34  1  0.22781765  0.64926345  0.07730358  1  0  0.420911  0  0.875492  0  0  0.395624  0  0.930315  0  0  0.405833  0  0.915242  0  0  0.304738  0.388286  0  0.941264  0
H  H35  1  0.72781492  0.35073874  0.42269824  1  0  0.420859  0  0.875552  0  0  0.395576  0  0.930365  0  0  0.405784  0  0.915293  0  0  0.30474  0.38824  0  0.94131  0
H  H36  1  0.60409311  0.29330567  0.88859698  1  0  0.414066  0  0.893261  0  0  0.379726  0  0.963093  0  0  0.39167  0  0.94573  0  0  0.298865  0.371499  0  0.974999  0
H  H37  1  0.10409101  0.70669793  0.61140626  1  0  0.414083  0  0.893234  0  0  0.379752  0  0.963055  0  0  0.391697  0  0.945689  0  0  0.298888  0.371525  0  0.97496  0
H  H38  1  0.39590917  0.70669167  0.11140445  1  0  0.414057  0  0.893269  0  0  0.379729  0  0.963083  0  0  0.391672  0  0.94572  0  0  0.298869  0.371502  0  0.974988  0
H  H39  1  0.89590077  0.29330405  0.38859528  1  0  0.414086  0  0.893213  0  0  0.379734  0  0.963069  0  0  0.39168  0  0.945703  0  0  0.298889  0.371508  0  0.974973  0
C  C40  1  0.86587619  0.78117968  0.85704774  1  0  0.720099  0  3.820841  0  0  0.675907  0  4.126175  0  0  0.712155  0  4.113045  0  0  0.232938  0.651171  0  4.134  0
C  C41  1  0.36586311  0.21881691  0.64294692  1  0  0.719946  0  3.820639  0  0  0.675775  0  4.125936  0  0  0.712041  0  4.112771  0  0  0.232875  0.650999  0  4.133813  0
C  C42  1  0.13410975  0.21881282  0.14294719  1  0  0.720009  0  3.821386  0  0  0.675953  0  4.126476  0  0  0.712194  0  4.113339  0  0  0.232919  0.65121  0  4.134315  0
C  C43  1  0.63411117  0.78118168  0.35705794  1  0  0.72008  0  3.821436  0  0  0.676103  0  4.126403  0  0  0.712348  0  4.113271  0  0  0.232989  0.651342  0  4.134271  0
C  C44  1  0.79142656  0.93982132  0.86935560  1  0  -0.087238  0  3.61756  0  0  -0.146466  0  3.886067  0  0  -0.145431  0  3.889244  0  0  -0.069698  -0.147409  0  3.884701  0
C  C45  1  0.29143621  0.06017317  0.63063708  1  0  -0.087461  0  3.618062  0  0  -0.146632  0  3.886495  0  0  -0.145574  0  3.889619  0  0  -0.069817  -0.147555  0  3.885126  0
C  C46  1  0.20857105  0.06017471  0.13064081  1  0  -0.087332  0  3.617611  0  0  -0.146557  0  3.88603  0  0  -0.145489  0  3.889164  0  0  -0.069759  -0.147498  0  3.884665  0
C  C47  1  0.70856840  0.93982645  0.36936321  1  0  -0.087408  0  3.617688  0  0  -0.146659  0  3.886133  0  0  -0.145609  0  3.889292  0  0  -0.069747  -0.147591  0  3.884781  0
N  N48  1  0.62131479  0.92429530  0.85155496  1  0  -0.61799  0  3.154525  0  0  -0.605456  0  3.415016  0  0  -0.627046  0  3.417562  0  0  -0.661762  -0.59064  0  3.413514  0
N  N49  1  0.12131741  0.07570919  0.64844129  1  0  -0.617806  0  3.154455  0  0  -0.605368  0  3.414975  0  0  -0.626977  0  3.417513  0  0  -0.661647  -0.590553  0  3.413466  0
N  N50  1  0.37868981  0.07570546  0.14844475  1  0  -0.617938  0  3.154213  0  0  -0.605495  0  3.414727  0  0  -0.627114  0  3.417264  0  0  -0.661698  -0.59069  0  3.413238  0
N  N51  1  0.87868370  0.92429739  0.35155875  1  0  -0.617796  0  3.154592  0  0  -0.605293  0  3.41504  0  0  -0.626905  0  3.417586  0  0  -0.661701  -0.590498  0  3.413541  0
O  O52  1  0.35075282  0.80659341  0.92352737  1  0  -0.736738  0  1.421522  0  0  -0.743717  0  1.690147  0  0  -0.774812  0  1.688807  0  0  -0.596642  -0.723176  0  1.691699  0
O  O53  1  0.85074555  0.19340340  0.57647291  1  0  -0.736753  0  1.421518  0  0  -0.743706  0  1.690148  0  0  -0.774821  0  1.688799  0  0  -0.59663  -0.72317  0  1.691693  0
O  O54  1  0.64925412  0.19340497  0.07647029  1  0  -0.736776  0  1.421521  0  0  -0.743752  0  1.690153  0  0  -0.774875  0  1.688795  0  0  -0.596691  -0.723216  0  1.691696  0
O  O55  1  0.14925322  0.80659506  0.42352715  1  0  -0.736809  0  1.4216  0  0  -0.74377  0  1.690203  0  0  -0.774897  0  1.688844  0  0  -0.596677  -0.723255  0  1.691728  0
O  O56  1  0.49440067  0.61862007  0.74844810  1  0  -0.557363  0  1.71963  0  0  -0.529536  0  1.975988  0  0  -0.552136  0  1.977873  0  0  -0.389887  -0.512909  0  1.974016  0
O  O57  1  0.99440227  0.38138214  0.75155636  1  0  -0.557383  0  1.719565  0  0  -0.529546  0  1.975923  0  0  -0.552153  0  1.977805  0  0  -0.389916  -0.512922  0  1.973951  0
O  O58  1  0.50559694  0.38138662  0.25155594  1  0  -0.557401  0  1.719682  0  0  -0.529576  0  1.976049  0  0  -0.552184  0  1.977932  0  0  -0.389912  -0.512952  0  1.974074  0
O  O59  1  0.00559884  0.61861869  0.24844575  1  0  -0.557324  0  1.719605  0  0  -0.529509  0  1.975971  0  0  -0.552119  0  1.977851  0  0  -0.389897  -0.512896  0  1.973996  0
O  O60  1  0.48277667  0.52681185  0.82813755  1  0  -0.536243  0  1.842741  0  0  -0.507869  0  2.113116  0  0  -0.532535  0  2.118507  0  0  -0.404187  -0.490011  0  2.10873  0
O  O61  1  0.98277666  0.47319034  0.67186453  1  0  -0.536221  0  1.842686  0  0  -0.507862  0  2.11308  0  0  -0.532541  0  2.118472  0  0  -0.404169  -0.490006  0  2.108691  0
O  O62  1  0.51722327  0.47319253  0.17186685  1  0  -0.53617  0  1.842777  0  0  -0.507793  0  2.11313  0  0  -0.532474  0  2.118523  0  0  -0.404123  -0.489939  0  2.108739  0
O  O63  1  0.01722328  0.52681047  0.32813678  1  0  -0.536252  0  1.842728  0  0  -0.507879  0  2.113091  0  0  -0.532561  0  2.11848  0  0  -0.40419  -0.490037  0  2.108701  0
O  O64  1  0.57274750  0.68386765  0.03836834  1  0  -0.454835  0  1.803283  0  0  -0.414638  0  2.04537  0  0  -0.435693  0  2.043449  0  0  -0.320656  -0.399655  0  2.045979  0
O  O65  1  0.07274613  0.31612922  0.46163090  1  0  -0.454787  0  1.803388  0  0  -0.414532  0  2.045408  0  0  -0.435598  0  2.043482  0  0  -0.320627  -0.399548  0  2.046012  0
O  O66  1  0.42724894  0.31613076  0.96163012  1  0  -0.454724  0  1.803261  0  0  -0.414507  0  2.045305  0  0  -0.435582  0  2.043381  0  0  -0.320593  -0.399523  0  2.045908  0
O  O67  1  0.92725147  0.68387042  0.53837018  1  0  -0.45477  0  1.803301  0  0  -0.414555  0  2.045367  0  0  -0.435624  0  2.043441  0  0  -0.320617  -0.399588  0  2.045978  0
O  O68  1  0.62372885  0.84156353  0.04460367  1  0  -0.411876  0  1.614779  0  0  -0.399709  0  1.85439  0  0  -0.418053  0  1.853945  0  0  -0.338825  -0.38603  0  1.85402  0
O  O69  1  0.12373389  0.15843416  0.45539014  1  0  -0.411886  0  1.614735  0  0  -0.399694  0  1.854283  0  0  -0.418053  0  1.853856  0  0  -0.338825  -0.386017  0  1.853912  0
O  O70  1  0.37626760  0.15843481  0.95539239  1  0  -0.41199  0  1.614783  0  0  -0.399801  0  1.854347  0  0  -0.418164  0  1.853909  0  0  -0.338862  -0.386127  0  1.853977  0
O  O71  1  0.87626722  0.84156655  0.54460797  1  0  -0.411906  0  1.614704  0  0  -0.399754  0  1.854313  0  0  -0.418117  0  1.853871  0  0  -0.338842  -0.386093  0  1.85394  0
O  O72  1  0.77060937  0.66709363  0.85032068  1  0  -0.74365  0  2.093605  0  0  -0.705905  0  2.360546  0  0  -0.735897  0  2.351274  0  0  -0.378277  -0.684457  0  2.367217  0
O  O73  1  0.27061337  0.33289411  0.64967707  1  0  -0.743422  0  2.094161  0  0  -0.705685  0  2.361051  0  0  -0.735687  0  2.351772  0  0  -0.378222  -0.684231  0  2.367741  0
O  O74  1  0.22939174  0.33289884  0.14967345  1  0  -0.743664  0  2.093487  0  0  -0.705986  0  2.360354  0  0  -0.735993  0  2.351085  0  0  -0.378291  -0.684538  0  2.367029  0
O  O75  1  0.72939241  0.66709872  0.35032906  1  0  -0.743645  0  2.093568  0  0  -0.706001  0  2.360441  0  0  -0.736009  0  2.351172  0  0  -0.378299  -0.684557  0  2.367122  0
O  O76  1  0.01144255  0.77121799  0.85561056  1  0  -0.645154  0  1.925781  0  0  -0.590892  0  2.155966  0  0  -0.615947  0  2.142353  0  0  -0.353731  -0.572652  0  2.164547  0
O  O77  1  0.51146324  0.22878924  0.64438625  1  0  -0.645283  0  1.92493  0  0  -0.591006  0  2.155061  0  0  -0.616079  0  2.141439  0  0  -0.35379  -0.572749  0  2.163661  0
O  O78  1  0.98856205  0.22878152  0.14438573  1  0  -0.645039  0  1.926427  0  0  -0.590856  0  2.156544  0  0  -0.615905  0  2.142927  0  0  -0.353711  -0.572615  0  2.16513  0
O  O79  1  0.48856353  0.77121622  0.35561517  1  0  -0.645056  0  1.926493  0  0  -0.590902  0  2.156581  0  0  -0.615951  0  2.142964  0  0  -0.353718  -0.572656  0  2.165176  0
O  O80  1  0.68130734  0.50914840  0.54938568  1  0  -0.858243  0  1.843147  0  0  -0.805306  0  2.033642  0  0  -0.82526  0  2.00147  0  0  -0.580685  -0.790954  0  2.056392  0
O  O81  1  0.18130881  0.49085135  0.95061441  1  0  -0.858251  0  1.843203  0  0  -0.805371  0  2.033633  0  0  -0.825333  0  2.001437  0  0  -0.580657  -0.790999  0  2.056433  0
O  O82  1  0.31868910  0.49085351  0.45061346  1  0  -0.858273  0  1.843094  0  0  -0.805334  0  2.033632  0  0  -0.825287  0  2.00146  0  0  -0.580657  -0.790978  0  2.056386  0
O  O83  1  0.81869346  0.50914594  0.04938543  1  0  -0.858304  0  1.843056  0  0  -0.80539  0  2.033556  0  0  -0.825338  0  2.001395  0  0  -0.580709  -0.791038  0  2.056304  0
O  O84  1  0.71168418  0.28859442  0.85820680  1  0  -0.856509  0  1.820546  0  0  -0.807412  0  1.99932  0  0  -0.828113  0  1.966376  0  0  -0.629096  -0.792332  0  2.023184  0
O  O85  1  0.21168443  0.71140865  0.64179154  1  0  -0.856562  0  1.820497  0  0  -0.807456  0  1.999238  0  0  -0.828157  0  1.966292  0  0  -0.629112  -0.792376  0  2.023099  0
O  O86  1  0.28831577  0.71140864  0.14179176  1  0  -0.856524  0  1.820556  0  0  -0.807423  0  1.999285  0  0  -0.828122  0  1.966343  0  0  -0.629088  -0.792343  0  2.023148  0
O  O87  1  0.78830851  0.28859564  0.35820965  1  0  -0.856483  0  1.820522  0  0  -0.807404  0  1.999323  0  0  -0.828103  0  1.966379  0  0  -0.62912  -0.792326  0  2.023185  0
