# generated using pymatgen
data_CuH11C17N3
_symmetry_space_group_name_H-M   'P 1'
_cell_length_a   7.84621750
_cell_length_b   9.07628107
_cell_length_c   9.79383224
_cell_angle_alpha   91.64144672
_cell_angle_beta   95.99169938
_cell_angle_gamma   108.58348719
_symmetry_Int_Tables_number   1
_chemical_formula_structural   CuH11C17N3
_chemical_formula_sum   'Cu2 H22 C34 N6'
_cell_volume   656.06611002
_cell_formula_units_Z   2
loop_
 _symmetry_equiv_pos_site_id
 _symmetry_equiv_pos_as_xyz
  1  'x, y, z'
loop_
 _atom_site_type_symbol
 _atom_site_label
 _atom_site_symmetry_multiplicity
 _atom_site_fract_x
 _atom_site_fract_y
 _atom_site_fract_z
 _atom_site_occupancy
 _atom_site_hle17_bader_spin_density
 _atom_site_hle17_ddec_charge
 _atom_site_hle17_ddec_spin_density
 _atom_site_hle17_ddec_sum_bond_order
 _atom_site_hle17_magmom
 _atom_site_hse06_10hf_bader_spin_density
 _atom_site_hse06_10hf_ddec_charge
 _atom_site_hse06_10hf_ddec_spin_density
 _atom_site_hse06_10hf_ddec_sum_bond_order
 _atom_site_hse06_10hf_magmom
 _atom_site_hse06_bader_spin_density
 _atom_site_hse06_ddec_charge
 _atom_site_hse06_ddec_spin_density
 _atom_site_hse06_ddec_sum_bond_order
 _atom_site_hse06_magmom
 _atom_site_pbe_bader_spin_density
 _atom_site_pbe_cm5_charge
 _atom_site_pbe_ddec_charge
 _atom_site_pbe_ddec_spin_density
 _atom_site_pbe_ddec_sum_bond_order
 _atom_site_pbe_magmom
Cu  Cu0  1  0.13819677  0.67204529  0.48961915  1  0  0.57437  0  2.061227  0  0  0.470965  0  2.571562  0  0  0.463551  0  2.528598  0  0  0.616342  0.482229  0  2.595083  0
Cu  Cu1  1  0.86178677  0.32794475  0.51037706  1  0  0.574374  0  2.060939  0  0  0.470979  0  2.571246  0  0  0.463549  0  2.528273  0  0  0.616314  0.482229  0  2.594764  0
H  H2  1  0.28682414  0.59946371  0.11479120  1  0  0.090053  0  0.954046  0  0  0.105402  0  1.009092  0  0  0.107911  0  1.008573  0  0  0.09732  0.103449  0  1.009793  0
H  H3  1  0.71315516  0.40054061  0.88520834  1  0  0.090045  0  0.954072  0  0  0.105498  0  1.009006  0  0  0.107951  0  1.00855  0  0  0.097336  0.103542  0  1.009719  0
H  H4  1  0.78787355  0.49597968  0.12832399  1  0  0.083887  0  0.979526  0  0  0.09638  0  1.04078  0  0  0.098579  0  1.040745  0  0  0.093692  0.094948  0  1.040552  0
H  H5  1  0.21210255  0.50401995  0.87168022  1  0  0.083916  0  0.979504  0  0  0.096457  0  1.040708  0  0  0.098655  0  1.040674  0  0  0.093709  0.095027  0  1.04049  0
H  H6  1  0.24527583  0.16839630  0.45826429  1  0  0.07956  0  0.977067  0  0  0.091433  0  1.038057  0  0  0.092849  0  1.038638  0  0  0.093859  0.090435  0  1.037783  0
H  H7  1  0.75475432  0.83160379  0.54174306  1  0  0.079448  0  0.977176  0  0  0.091272  0  1.038233  0  0  0.092688  0  1.038814  0  0  0.093812  0.090277  0  1.037963  0
H  H8  1  0.94360512  0.59606017  0.72936296  1  0  0.071329  0  0.950532  0  0  0.077175  0  1.023297  0  0  0.080355  0  1.019762  0  0  0.11021  0.074752  0  1.025972  0
H  H9  1  0.05638245  0.40393316  0.27064084  1  0  0.071381  0  0.950529  0  0  0.077227  0  1.023298  0  0  0.080404  0  1.019773  0  0  0.110232  0.07481  0  1.025965  0
H  H10  1  0.95497499  0.70739863  0.96246776  1  0  0.095882  0  0.982632  0  0  0.106074  0  1.046009  0  0  0.108322  0  1.046564  0  0  0.101497  0.104611  0  1.045848  0
H  H11  1  0.04503007  0.29259052  0.03753823  1  0  0.095911  0  0.982571  0  0  0.106088  0  1.045962  0  0  0.108337  0  1.046517  0  0  0.101505  0.104611  0  1.045824  0
H  H12  1  0.00098878  0.78548274  0.15844339  1  0  0.083172  0  0.974206  0  0  0.095061  0  1.037142  0  0  0.0973  0  1.036488  0  0  0.096298  0.093375  0  1.037768  0
H  H13  1  0.99902262  0.21452155  0.84156371  1  0  0.083143  0  0.974241  0  0  0.095053  0  1.037157  0  0  0.097293  0  1.036505  0  0  0.096288  0.09337  0  1.037789  0
H  H14  1  0.38796761  0.96211615  0.64770916  1  0  0.077699  0  0.930062  0  0  0.089101  0  0.989305  0  0  0.091388  0  0.987585  0  0  0.116087  0.087349  0  0.990462  0
H  H15  1  0.61202662  0.03786880  0.35228766  1  0  0.077656  0  0.93016  0  0  0.089044  0  0.989421  0  0  0.091334  0  0.987697  0  0  0.116052  0.087298  0  0.990579  0
H  H16  1  0.41917896  0.09055985  0.87683621  1  0  0.104028  0  0.962561  0  0  0.11521  0  1.023019  0  0  0.117621  0  1.023375  0  0  0.105778  0.113474  0  1.022888  0
H  H17  1  0.58082333  0.90942602  0.12315922  1  0  0.103954  0  0.962585  0  0  0.115174  0  1.022997  0  0  0.117587  0  1.023349  0  0  0.105768  0.113437  0  1.022863  0
H  H18  1  0.41034722  0.20019588  0.05362551  1  0  0.081845  0  0.99697  0  0  0.090993  0  1.063994  0  0  0.092748  0  1.064807  0  0  0.094283  0.089644  0  1.064064  0
H  H19  1  0.58966677  0.79980251  0.94637542  1  0  0.081888  0  0.996938  0  0  0.091055  0  1.063936  0  0  0.092809  0  1.064747  0  0  0.094287  0.08971  0  1.063986  0
H  H20  1  0.43927898  0.31310818  0.28823118  1  0  0.083172  0  0.98654  0  0  0.090257  0  1.053365  0  0  0.09193  0  1.054764  0  0  0.093807  0.089055  0  1.052408  0
H  H21  1  0.56074433  0.68689109  0.71176846  1  0  0.083162  0  0.986657  0  0  0.090269  0  1.053471  0  0  0.091926  0  1.054883  0  0  0.093758  0.089069  0  1.052513  0
H  H22  1  0.02383293  0.90511526  0.38924582  1  0  0.081556  0  0.982527  0  0  0.090726  0  1.049197  0  0  0.093883  0  1.046767  0  0  0.093298  0.088502  0  1.050791  0
H  H23  1  0.97618984  0.09488864  0.61076112  1  0  0.081558  0  0.98265  0  0  0.090695  0  1.049353  0  0  0.093851  0  1.046923  0  0  0.093278  0.088476  0  1.050938  0
C  C24  1  0.75296330  0.61508969  0.35757553  1  0  0.318177  0  3.86411  0  0  0.297839  0  4.130258  0  0  0.312645  0  4.145099  0  0  0.176306  0.287799  0  4.122631  0
C  C25  1  0.24702782  0.38493093  0.64241436  1  0  0.318306  0  3.864666  0  0  0.297988  0  4.130854  0  0  0.312801  0  4.145687  0  0  0.176424  0.287947  0  4.123228  0
C  C26  1  0.45948365  0.64428003  0.35787131  1  0  0.314139  0  3.870033  0  0  0.296896  0  4.132828  0  0  0.310891  0  4.150526  0  0  0.174611  0.288845  0  4.119847  0
C  C27  1  0.54049186  0.35572441  0.64212896  1  0  0.314325  0  3.869827  0  0  0.297127  0  4.132667  0  0  0.311127  0  4.150357  0  0  0.174614  0.28907  0  4.119675  0
C  C28  1  0.54437914  0.55653845  0.14081782  1  0  0.079115  0  3.855472  0  0  0.087756  0  4.093913  0  0  0.090827  0  4.117188  0  0  -0.01643  0.087093  0  4.077091  0
C  C29  1  0.45560574  0.44347650  0.85917034  1  0  0.078983  0  3.855667  0  0  0.087674  0  4.094138  0  0  0.090748  0  4.117399  0  0  -0.016514  0.087  0  4.077321  0
C  C30  1  0.58816381  0.60948008  0.28742243  1  0  -0.247155  0  4.017418  0  0  -0.22876  0  4.266507  0  0  -0.243045  0  4.287261  0  0  -0.059934  -0.221431  0  4.253697  0
C  C31  1  0.41182610  0.39053477  0.71256100  1  0  -0.24722  0  4.017929  0  0  -0.22897  0  4.267188  0  0  -0.243268  0  4.287943  0  0  -0.059954  -0.221617  0  4.25435  0
C  C32  1  0.38094832  0.55533912  0.06528449  1  0  -0.130687  0  3.765381  0  0  -0.146939  0  4.014275  0  0  -0.148913  0  4.033057  0  0  -0.102694  -0.145816  0  4.001009  0
C  C33  1  0.61903485  0.44467459  0.93471063  1  0  -0.130585  0  3.765574  0  0  -0.146924  0  4.014428  0  0  -0.148848  0  4.033228  0  0  -0.102666  -0.145798  0  4.001171  0
C  C34  1  0.66213897  0.50006896  0.07196334  1  0  -0.130206  0  3.76772  0  0  -0.146472  0  4.016656  0  0  -0.148411  0  4.03586  0  0  -0.103768  -0.144904  0  4.002419  0
C  C35  1  0.33784475  0.49994008  0.92802754  1  0  -0.130324  0  3.767768  0  0  -0.146623  0  4.01663  0  0  -0.148563  0  4.035856  0  0  -0.103835  -0.145054  0  4.002406  0
C  C36  1  0.20484453  0.98213738  0.08609730  1  0  0.024517  0  3.769509  0  0  0.042431  0  3.997733  0  0  0.040355  0  4.021064  0  0  -0.013238  0.044176  0  3.981406  0
C  C37  1  0.79516917  0.01786337  0.91390371  1  0  0.024625  0  3.769446  0  0  0.042517  0  3.997721  0  0  0.040446  0  4.021048  0  0  -0.013173  0.044256  0  3.981399  0
C  C38  1  0.19143751  0.91090376  0.94594902  1  0  0.106123  0  3.741793  0  0  0.116413  0  3.971401  0  0  0.122755  0  3.992934  0  0  0.013595  0.112554  0  3.956288  0
C  C39  1  0.80856471  0.08908792  0.05405277  1  0  0.106076  0  3.741726  0  0  0.11633  0  3.971423  0  0  0.122673  0  3.992952  0  0  0.013574  0.112471  0  3.956309  0
C  C40  1  0.23434314  0.11650241  0.35474309  1  0  -0.060174  0  3.758849  0  0  -0.072216  0  3.999833  0  0  -0.073559  0  4.022231  0  0  -0.090382  -0.071632  0  3.984769  0
C  C41  1  0.76567562  0.88349814  0.64526033  1  0  -0.059847  0  3.758828  0  0  -0.071866  0  3.999787  0  0  -0.073207  0  4.022179  0  0  -0.090318  -0.071289  0  3.984739  0
C  C42  1  0.04882685  0.70499651  0.76717121  1  0  0.121825  0  3.7263  0  0  0.095823  0  3.973395  0  0  0.101652  0  3.991686  0  0  0.037038  0.092367  0  3.962026  0
C  C43  1  0.95116781  0.29499541  0.23283206  1  0  0.12173  0  3.726208  0  0  0.095716  0  3.97332  0  0  0.101545  0  3.99161  0  0  0.036989  0.092257  0  3.961934  0
C  C44  1  0.05759653  0.76862909  0.89894041  1  0  -0.157741  0  3.7147  0  0  -0.172336  0  3.95457  0  0  -0.181291  0  3.978699  0  0  -0.084142  -0.167966  0  3.939631  0
C  C45  1  0.94240698  0.23136248  0.10106556  1  0  -0.157658  0  3.714503  0  0  -0.172221  0  3.95438  0  0  -0.181176  0  3.978509  0  0  -0.084098  -0.167845  0  3.939454  0
C  C46  1  0.09718943  0.90189055  0.18412246  1  0  -0.097727  0  3.727931  0  0  -0.118319  0  3.972979  0  0  -0.120116  0  3.994237  0  0  -0.088421  -0.115392  0  3.956603  0
C  C47  1  0.90282321  0.09811376  0.81588065  1  0  -0.097783  0  3.728065  0  0  -0.118391  0  3.973128  0  0  -0.120189  0  3.994384  0  0  -0.088467  -0.115468  0  3.95677  0
C  C48  1  0.29404666  0.90931873  0.72072063  1  0  0.126804  0  3.718508  0  0  0.098772  0  3.969218  0  0  0.105552  0  3.986126  0  0  0.042033  0.095139  0  3.956741  0
C  C49  1  0.70594730  0.09066852  0.27928035  1  0  0.126767  0  3.718659  0  0  0.098753  0  3.969365  0  0  0.105535  0  3.986276  0  0  0.042013  0.095113  0  3.956895  0
C  C50  1  0.31051318  0.98072337  0.85084623  1  0  -0.156983  0  3.703753  0  0  -0.175638  0  3.95168  0  0  -0.184198  0  3.974437  0  0  -0.083537  -0.16872  0  3.934668  0
C  C51  1  0.68948884  0.01926479  0.14915438  1  0  -0.156973  0  3.703719  0  0  -0.175646  0  3.951691  0  0  -0.184205  0  3.974448  0  0  -0.083551  -0.168726  0  3.934676  0
C  C52  1  0.32640097  0.13223097  0.12626738  1  0  -0.099993  0  3.727169  0  0  -0.119675  0  3.971071  0  0  -0.121269  0  3.993173  0  0  -0.089138  -0.120295  0  3.958017  0
C  C53  1  0.67361272  0.86776981  0.87373261  1  0  -0.100168  0  3.727263  0  0  -0.119856  0  3.971149  0  0  -0.121451  0  3.993247  0  0  -0.089242  -0.120466  0  3.958072  0
C  C54  1  0.34242300  0.19775510  0.25920338  1  0  -0.069391  0  3.773918  0  0  -0.079899  0  4.019933  0  0  -0.083409  0  4.043498  0  0  -0.093869  -0.077326  0  4.004668  0
C  C55  1  0.65759596  0.80224896  0.74080123  1  0  -0.069473  0  3.77418  0  0  -0.079986  0  4.020129  0  0  -0.083483  0  4.043707  0  0  -0.093811  -0.077416  0  4.004858  0
C  C56  1  0.11047952  0.96900970  0.31614129  1  0  -0.081057  0  3.800612  0  0  -0.09351  0  4.052592  0  0  -0.094944  0  4.072487  0  0  -0.098206  -0.092043  0  4.037705  0
C  C57  1  0.88953945  0.03099435  0.68386435  1  0  -0.081103  0  3.800641  0  0  -0.093521  0  4.052611  0  0  -0.094954  0  4.072505  0  0  -0.098121  -0.092055  0  4.03773  0
N  N58  1  0.89581351  0.61499487  0.40975319  1  0  -0.533957  0  3.185395  0  0  -0.485899  0  3.543519  0  0  -0.489547  0  3.532155  0  0  -0.432512  -0.487461  0  3.552376  0
N  N59  1  0.10419124  0.38502757  0.59024190  1  0  -0.533939  0  3.185618  0  0  -0.48587  0  3.543705  0  0  -0.489515  0  3.532326  0  0  -0.432503  -0.487434  0  3.55257  0
N  N60  1  0.34037898  0.66943372  0.40790758  1  0  -0.511252  0  3.153138  0  0  -0.465262  0  3.501383  0  0  -0.47193  0  3.497286  0  0  -0.43077  -0.462371  0  3.502265  0
N  N61  1  0.65959125  0.33055204  0.59208947  1  0  -0.511483  0  3.15256  0  0  -0.465506  0  3.50084  0  0  -0.47217  0  3.496719  0  0  -0.430842  -0.462613  0  3.501723  0
N  N62  1  0.16577538  0.77225873  0.67754416  1  0  -0.32088  0  3.377405  0  0  -0.249719  0  3.676386  0  0  -0.260417  0  3.6846  0  0  -0.368963  -0.244378  0  3.670404  0
N  N63  1  0.83421828  0.22773091  0.32245587  1  0  -0.320744  0  3.37739  0  0  -0.249597  0  3.676389  0  0  -0.260299  0  3.684599  0  0  -0.368909  -0.24425  0  3.670398  0
