# generated using pymatgen
data_Zn3H14C14(N2O3)3
_symmetry_space_group_name_H-M   'P 1'
_cell_length_a   11.81517158
_cell_length_b   14.33862221
_cell_length_c   17.84887442
_cell_angle_alpha   89.99934986
_cell_angle_beta   89.99994605
_cell_angle_gamma   111.11798527
_symmetry_Int_Tables_number   1
_chemical_formula_structural   Zn3H14C14(N2O3)3
_chemical_formula_sum   'Zn12 H56 C56 N24 O36'
_cell_volume   2820.75700422
_cell_formula_units_Z   4
loop_
 _symmetry_equiv_pos_site_id
 _symmetry_equiv_pos_as_xyz
  1  'x, y, z'
loop_
 _atom_site_type_symbol
 _atom_site_label
 _atom_site_symmetry_multiplicity
 _atom_site_fract_x
 _atom_site_fract_y
 _atom_site_fract_z
 _atom_site_occupancy
 _atom_site_pbe_bader_charge
 _atom_site_pbe_bader_spin_density
 _atom_site_pbe_cm5_charge
 _atom_site_pbe_ddec_charge
 _atom_site_pbe_ddec_spin_density
 _atom_site_pbe_ddec_sum_bond_order
 _atom_site_pbe_magmom
Zn  Zn0  1  0.93175294  0.11357534  0.16619007  1  1.253249  0  0.68501  0.800955  0  2.4459  0
Zn  Zn1  1  0.85212493  0.86503148  0.14482511  1  1.298974  0  0.66586  0.878945  0  2.408231  0
Zn  Zn2  1  0.88110897  0.39683745  0.40733622  1  1.292908  0  0.700085  0.822015  0  2.369336  0
Zn  Zn3  1  0.56825493  0.38642453  0.66618966  1  1.253431  0  0.685007  0.800953  0  2.445808  0
Zn  Zn4  1  0.64787025  0.63497135  0.64482470  1  1.299043  0  0.665926  0.879001  0  2.408191  0
Zn  Zn5  1  0.61888683  0.10315686  0.90734115  1  1.293073  0  0.700155  0.822145  0  2.369275  0
Zn  Zn6  1  0.06824777  0.88642207  0.83381045  1  1.253399  0  0.685004  0.801023  0  2.445739  0
Zn  Zn7  1  0.14787493  0.13496593  0.85517596  1  1.299021  0  0.665849  0.878965  0  2.408208  0
Zn  Zn8  1  0.11888041  0.60315920  0.59266205  1  1.292964  0  0.700128  0.822138  0  2.369161  0
Zn  Zn9  1  0.43174486  0.61357662  0.33381029  1  1.253448  0  0.685002  0.800949  0  2.445789  0
Zn  Zn10  1  0.35212296  0.36502830  0.35517806  1  1.299071  0  0.665885  0.878963  0  2.408224  0
Zn  Zn11  1  0.38111668  0.89684504  0.09265936  1  1.293128  0  0.70015  0.822155  0  2.369227  0
H  H12  1  0.95920715  0.98387143  0.23723373  1  0.586629  0  0.28219  0.373091  0  0.945583  0
H  H13  1  0.80152077  0.25514983  0.24620852  1  0.131816  0  0.126314  0.083634  0  1.025206  0
H  H14  1  0.01772299  0.58057384  0.41813858  1  0.4682  0  0.298379  0.262683  0  0.959951  0
H  H15  1  0.82784862  0.59258213  0.44922482  1  0.139868  0  0.113249  0.106867  0  1.034033  0
H  H16  1  0.77946012  0.56390776  0.35429181  1  0.083905  0  0.107764  0.095027  0  0.997545  0
H  H17  1  0.15099326  0.12764474  0.03818666  1  0.117177  0  0.131989  0.096353  0  1.008568  0
H  H18  1  0.91638213  0.51604861  0.26737334  1  0.062443  0  0.111885  0.095168  0  0.962733  0
H  H19  1  0.06378740  0.52885975  0.30009550  1  0.107812  0  0.119759  0.113138  0  0.967179  0
H  H20  1  0.84494026  0.74643589  0.37489955  1  0.091508  0  0.12466  0.112335  0  0.951368  0
H  H21  1  0.99103032  0.75073936  0.40642808  1  0.092319  0  0.121856  0.105495  0  0.942705  0
H  H22  1  0.12478451  0.70895781  0.31195816  1  0.088905  0  0.118659  0.10087  0  0.975048  0
H  H23  1  0.06856330  0.67580014  0.21927181  1  0.08371  0  0.124285  0.11383  0  0.9473  0
H  H24  1  0.99989128  0.79406913  0.27137847  1  0.521666  0  0.315437  0.289439  0  0.946003  0
H  H25  1  0.87935070  0.69579850  0.25617071  1  0.505599  0  0.315268  0.282728  0  0.919364  0
H  H26  1  0.54079803  0.51612164  0.73723446  1  0.586659  0  0.282236  0.373154  0  0.945502  0
H  H27  1  0.69848080  0.24483972  0.74621211  1  0.131826  0  0.126321  0.083699  0  1.025102  0
H  H28  1  0.48226916  0.91941820  0.91813481  1  0.4682  0  0.298335  0.262579  0  0.960058  0
H  H29  1  0.67215106  0.90742232  0.94922472  1  0.139619  0  0.113226  0.106882  0  1.033923  0
H  H30  1  0.72053890  0.93609679  0.85428974  1  0.083884  0  0.107775  0.095048  0  0.997439  0
H  H31  1  0.34900617  0.37234809  0.53818508  1  0.117277  0  0.132064  0.096423  0  1.008537  0
H  H32  1  0.58362553  0.98395217  0.76737204  1  0.062322  0  0.11185  0.095087  0  0.962726  0
H  H33  1  0.43621718  0.97114101  0.80009017  1  0.10798  0  0.119747  0.113136  0  0.967269  0
H  H34  1  0.65506164  0.75356757  0.87489861  1  0.091477  0  0.124687  0.112374  0  0.951412  0
H  H35  1  0.50897085  0.74926058  0.90642839  1  0.092338  0  0.121874  0.105557  0  0.942663  0
H  H36  1  0.37521743  0.79104275  0.81195506  1  0.089014  0  0.118657  0.10086  0  0.974986  0
H  H37  1  0.43144186  0.82419974  0.71926726  1  0.083637  0  0.124269  0.113785  0  0.947265  0
H  H38  1  0.50011106  0.70593308  0.77137862  1  0.521694  0  0.315472  0.289503  0  0.94594  0
H  H39  1  0.62065185  0.80420022  0.75617102  1  0.505581  0  0.31529  0.282724  0  0.91939  0
H  H40  1  0.04079629  0.01612449  0.76276510  1  0.586617  0  0.282221  0.373165  0  0.945484  0
H  H41  1  0.19846743  0.74483636  0.75379536  1  0.131898  0  0.126304  0.083686  0  1.025028  0
H  H42  1  0.98226592  0.41941983  0.58186305  1  0.468163  0  0.29835  0.2626  0  0.959982  0
H  H43  1  0.17214440  0.40741901  0.55077121  1  0.139759  0  0.113298  0.106907  0  1.033931  0
H  H44  1  0.22053760  0.43609638  0.64570478  1  0.084984  0  0.107778  0.095066  0  0.99745  0
H  H45  1  0.84900744  0.87235267  0.96181441  1  0.117234  0  0.132029  0.096381  0  1.008514  0
H  H46  1  0.08362613  0.48395255  0.73262717  1  0.06236  0  0.111873  0.09507  0  0.962667  0
H  H47  1  0.93621565  0.47113916  0.69991117  1  0.108006  0  0.119717  0.113048  0  0.967195  0
H  H48  1  0.15506305  0.25356751  0.62509872  1  0.0915  0  0.124642  0.112295  0  0.951399  0
H  H49  1  0.00896935  0.24925955  0.59357355  1  0.092322  0  0.121823  0.105433  0  0.942744  0
H  H50  1  0.87521672  0.29103885  0.68804796  1  0.088762  0  0.118654  0.100872  0  0.974961  0
H  H51  1  0.93144633  0.32420027  0.78073262  1  0.083592  0  0.124254  0.113771  0  0.947326  0
H  H52  1  0.00011463  0.20593053  0.72862092  1  0.521668  0  0.315466  0.289499  0  0.945923  0
H  H53  1  0.12065744  0.30420041  0.74382812  1  0.505369  0  0.315314  0.282901  0  0.919223  0
H  H54  1  0.45920671  0.48387727  0.26276886  1  0.586694  0  0.282225  0.373164  0  0.945486  0
H  H55  1  0.30151952  0.75516068  0.25378560  1  0.131861  0  0.126305  0.083623  0  1.025202  0
H  H56  1  0.51773246  0.08058519  0.08186122  1  0.468122  0  0.298342  0.262679  0  0.959956  0
H  H57  1  0.32784906  0.09257958  0.05077523  1  0.139903  0  0.113227  0.106845  0  1.034004  0
H  H58  1  0.27946526  0.06390661  0.14570909  1  0.083891  0  0.107765  0.095054  0  0.99742  0
H  H59  1  0.65098972  0.62765380  0.46181431  1  0.11702  0  0.132055  0.096426  0  1.008496  0
H  H60  1  0.41638436  0.01605272  0.23262679  1  0.062504  0  0.111884  0.095127  0  0.962633  0
H  H61  1  0.56379199  0.02886613  0.19990474  1  0.107927  0  0.119676  0.113056  0  0.967168  0
H  H62  1  0.34493425  0.24643433  0.12509966  1  0.091437  0  0.124622  0.112298  0  0.951415  0
H  H63  1  0.49102908  0.25074282  0.09356764  1  0.092261  0  0.12183  0.105528  0  0.942657  0
H  H64  1  0.62478328  0.20896438  0.18803705  1  0.089105  0  0.118652  0.100824  0  0.975208  0
H  H65  1  0.56856660  0.17580964  0.28072541  1  0.083743  0  0.124323  0.113868  0  0.947286  0
H  H66  1  0.49988750  0.29407106  0.22861797  1  0.521121  0  0.315462  0.289494  0  0.946057  0
H  H67  1  0.37935049  0.19580093  0.24382501  1  0.505564  0  0.315222  0.282648  0  0.919581  0
C  C68  1  0.06709895  0.25097721  0.28471371  1  0.392399  0  0.0693  -0.011689  0  3.955078  0
C  C69  1  0.88944000  0.26390506  0.26942952  1  1.009722  0  0.137099  0.183088  0  3.985943  0
C  C70  1  0.11333626  0.36487229  0.40915969  1  1.580236  0  0.209484  0.570483  0  4.238514  0
C  C71  1  0.04875438  0.31203932  0.34146660  1  0.394119  0  0.06761  -0.021879  0  3.996953  0
C  C72  1  0.88233044  0.13410062  0.85933061  1  1.574606  0  0.206633  0.573575  0  4.252038  0
C  C73  1  0.92671640  0.13187749  0.93690637  1  0.405558  0  0.068726  -0.016992  0  3.977446  0
C  C74  1  0.85793772  0.60053498  0.39077179  1  0.221455  0  -0.077685  -0.082642  0  3.887199  0
C  C75  1  0.16236113  0.21046246  0.26297636  1  1.586845  0  0.207249  0.572003  0  4.226297  0
C  C76  1  0.06604931  0.12881592  0.01631023  1  1.055012  0  0.141892  0.19198  0  3.969782  0
C  C77  1  0.99192293  0.56018491  0.30373283  1  0.255513  0  -0.068553  -0.066074  0  3.903458  0
C  C78  1  0.91290582  0.71100069  0.37054143  1  0.214155  0  -0.051263  -0.04171  0  3.786294  0
C  C79  1  0.04356004  0.66848597  0.27874563  1  0.22554  0  -0.053906  -0.05107  0  3.798513  0
C  C80  1  0.76801991  0.12833415  0.04761675  1  1.539869  0  0.213551  0.579198  0  4.211777  0
C  C81  1  0.88059062  0.12774422  0.01012023  1  0.404837  0  0.071477  -0.015835  0  3.955046  0
C  C82  1  0.43290999  0.24902270  0.78471881  1  0.392808  0  0.069253  -0.011748  0  3.954967  0
C  C83  1  0.61056188  0.23609308  0.76943549  1  1.009123  0  0.137147  0.18303  0  3.986021  0
C  C84  1  0.38667516  0.13512404  0.90916752  1  1.580776  0  0.209483  0.570464  0  4.238707  0
C  C85  1  0.45124793  0.18796112  0.84147560  1  0.394074  0  0.067695  -0.021778  0  3.996953  0
C  C86  1  0.61764923  0.36589150  0.35933846  1  1.574294  0  0.206516  0.573481  0  4.252029  0
C  C87  1  0.57328421  0.36811633  0.43689853  1  0.405379  0  0.068793  -0.01686  0  3.977375  0
C  C88  1  0.64205980  0.89945849  0.89076954  1  0.221745  0  -0.077667  -0.082636  0  3.886973  0
C  C89  1  0.33764558  0.28954005  0.76298283  1  1.586543  0  0.207251  0.572072  0  4.226082  0
C  C90  1  0.43395090  0.37118251  0.51631477  1  1.054783  0  0.141874  0.192024  0  3.969548  0
C  C91  1  0.50807881  0.93981601  0.80372806  1  0.255335  0  -0.068491  -0.065909  0  3.903513  0
C  C92  1  0.58709285  0.78899536  0.87053797  1  0.214191  0  -0.051308  -0.041771  0  3.786541  0
C  C93  1  0.45644369  0.83151665  0.77874211  1  0.225601  0  -0.053869  -0.050929  0  3.798347  0
C  C94  1  0.73198157  0.37166621  0.54761245  1  1.539738  0  0.213422  0.578914  0  4.212183  0
C  C95  1  0.61941588  0.37225006  0.51012384  1  0.404996  0  0.071613  -0.015654  0  3.954582  0
C  C96  1  0.93289499  0.74902020  0.71528848  1  0.391901  0  0.069372  -0.011512  0  3.955071  0
C  C97  1  0.11054578  0.73608338  0.73057099  1  1.009129  0  0.137059  0.182947  0  3.986018  0
C  C98  1  0.88665500  0.63513259  0.59083578  1  1.580587  0  0.209546  0.570608  0  4.238468  0
C  C99  1  0.95124072  0.68795883  0.65853391  1  0.394461  0  0.067632  -0.021874  0  3.996808  0
C  C100  1  0.11767222  0.86590128  0.14066710  1  1.574443  0  0.206634  0.573635  0  4.252042  0
C  C101  1  0.07328698  0.86812217  0.06309918  1  0.405539  0  0.068792  -0.016945  0  3.9771  0
C  C102  1  0.14205803  0.39946467  0.60922592  1  0.220482  0  -0.077759  -0.082807  0  3.886989  0
C  C103  1  0.83763462  0.78953719  0.73702359  1  1.587213  0  0.207226  0.571961  0  4.226514  0
C  C104  1  0.93395622  0.87118672  0.98368804  1  1.054933  0  0.141933  0.192055  0  3.969896  0
C  C105  1  0.00808012  0.43981400  0.69626936  1  0.255368  0  -0.068474  -0.065728  0  3.903124  0
C  C106  1  0.08709384  0.28899822  0.62945852  1  0.214146  0  -0.051229  -0.041535  0  3.786198  0
C  C107  1  0.95644621  0.33151444  0.72125993  1  0.225805  0  -0.053909  -0.05109  0  3.79836  0
C  C108  1  0.23198177  0.87166550  0.95238488  1  1.53982  0  0.21353  0.579062  0  4.21187  0
C  C109  1  0.11941797  0.87225769  0.98987748  1  0.404904  0  0.071495  -0.015839  0  3.954806  0
C  C110  1  0.56709404  0.75097845  0.21528451  1  0.392645  0  0.069299  -0.011661  0  3.955013  0
C  C111  1  0.38944195  0.76390957  0.23056782  1  1.008941  0  0.13712  0.18316  0  3.985992  0
C  C112  1  0.61332463  0.86487711  0.09083299  1  1.580692  0  0.209503  0.570571  0  4.238564  0
C  C113  1  0.54876047  0.81204228  0.15852491  1  0.394023  0  0.067686  -0.02181  0  3.996991  0
C  C114  1  0.38234639  0.63410591  0.64066542  1  1.574108  0  0.206576  0.573522  0  4.252119  0
C  C115  1  0.42670568  0.63187958  0.56309918  1  0.405321  0  0.068816  -0.01687  0  3.97738  0
C  C116  1  0.35794039  0.10053967  0.10922705  1  0.221455  0  -0.077661  -0.08264  0  3.887125  0
C  C117  1  0.66236080  0.71046260  0.23701936  1  1.586783  0  0.207178  0.57194  0  4.226523  0
C  C118  1  0.56604623  0.62881640  0.48368686  1  1.05526  0  0.14181  0.19191  0  3.969822  0
C  C119  1  0.49192796  0.06019337  0.19626741  1  0.255394  0  -0.068427  -0.065792  0  3.903094  0
C  C120  1  0.41290460  0.21100429  0.12945694  1  0.214163  0  -0.051193  -0.041654  0  3.786258  0
C  C121  1  0.54356086  0.16849348  0.22125279  1  0.225317  0  -0.054005  -0.05115  0  3.798815  0
C  C122  1  0.26801457  0.62833045  0.45238526  1  1.540016  0  0.213488  0.578959  0  4.212121  0
C  C123  1  0.38057844  0.62774436  0.48987611  1  0.404688  0  0.071569  -0.015671  0  3.954619  0
N  N124  1  0.96425250  0.22183990  0.24048669  1  -1.23654  0  -0.367579  -0.321055  0  3.618982  0
N  N125  1  0.04330460  0.13295964  0.94313225  1  -1.247521  0  -0.365157  -0.331771  0  3.616351  0
N  N126  1  0.93648500  0.31819762  0.33043311  1  -1.248364  0  -0.363695  -0.330637  0  3.602198  0
N  N127  1  0.94597643  0.54950890  0.38160951  1  -1.082031  0  -0.478849  -0.32041  0  3.471361  0
N  N128  1  0.95585536  0.72050424  0.29120191  1  -1.102979  0  -0.477481  -0.213597  0  3.520564  0
N  N129  1  0.97093400  0.12558791  0.05824202  1  -1.249241  0  -0.3676  -0.327206  0  3.635039  0
N  N130  1  0.53575407  0.27815723  0.74049345  1  -1.236176  0  -0.367583  -0.32094  0  3.619016  0
N  N131  1  0.45669357  0.36703162  0.44313370  1  -1.247206  0  -0.365153  -0.331928  0  3.616295  0
N  N132  1  0.56351688  0.18179874  0.83044016  1  -1.248313  0  -0.36376  -0.330836  0  3.602417  0
N  N133  1  0.55402274  0.95049219  0.88160685  1  -1.081952  0  -0.478859  -0.320541  0  3.471566  0
N  N134  1  0.54414635  0.77949464  0.79120305  1  -1.103032  0  -0.477498  -0.213724  0  3.520672  0
N  N135  1  0.52907410  0.37441602  0.55823894  1  -1.249205  0  -0.367639  -0.327258  0  3.635308  0
N  N136  1  0.03573752  0.77814853  0.75951719  1  -1.236365  0  -0.367534  -0.321133  0  3.618902  0
N  N137  1  0.95669624  0.86704002  0.05686715  1  -1.247288  0  -0.365146  -0.331761  0  3.616201  0
N  N138  1  0.06350477  0.68179604  0.66956908  1  -1.248204  0  -0.363772  -0.330651  0  3.602512  0
N  N139  1  0.05401887  0.45048776  0.61839156  1  -1.082001  0  -0.478881  -0.320466  0  3.471398  0
N  N140  1  0.04414905  0.27949393  0.70879860  1  -1.102751  0  -0.477453  -0.213778  0  3.520483  0
N  N141  1  0.02906664  0.87441324  0.94175962  1  -1.249304  0  -0.367628  -0.327268  0  3.635418  0
N  N142  1  0.46424957  0.72184692  0.25950875  1  -1.236398  0  -0.367552  -0.320951  0  3.618958  0
N  N143  1  0.54330037  0.63296578  0.55686849  1  -1.247246  0  -0.365097  -0.331801  0  3.616283  0
N  N144  1  0.43648709  0.81820615  0.16956259  1  -1.247845  0  -0.363749  -0.330921  0  3.602352  0
N  N145  1  0.44597667  0.04951194  0.11838917  1  -1.081917  0  -0.478844  -0.320561  0  3.471523  0
N  N146  1  0.45585898  0.22050950  0.20879522  1  -1.102407  0  -0.477389  -0.21358  0  3.52098  0
N  N147  1  0.47092791  0.62558438  0.44175821  1  -1.249234  0  -0.367598  -0.327223  0  3.635268  0
O  O148  1  0.88478612  0.98050779  0.21177838  1  -1.200315  0  -0.59602  -0.817257  0  2.126667  0
O  O149  1  0.13658613  0.14702038  0.21058736  1  -1.163075  0  -0.31918  -0.546679  0  2.165404  0
O  O150  1  0.21929723  0.36749036  0.42570354  1  -1.196479  0  -0.326369  -0.558131  0  2.369342  0
O  O151  1  0.05568104  0.40517401  0.45025847  1  -1.166053  0  -0.310694  -0.523088  0  2.277042  0
O  O152  1  0.67875083  0.13648184  0.01101219  1  -1.191748  0  -0.328092  -0.549854  0  2.383187  0
O  O153  1  0.26690105  0.23919071  0.29635029  1  -1.195412  0  -0.33452  -0.577662  0  2.344164  0
O  O154  1  0.77763035  0.13646531  0.84650742  1  -1.195105  0  -0.328661  -0.569766  0  2.370236  0
O  O155  1  0.95658483  0.13449420  0.80693233  1  -1.191008  0  -0.32525  -0.578458  0  2.257951  0
O  O156  1  0.76622684  0.12319854  0.11882910  1  -1.120784  0  -0.315251  -0.529499  0  2.211207  0
O  O157  1  0.61521734  0.51949093  0.71177511  1  -1.200501  0  -0.596036  -0.817289  0  2.12657  0
O  O158  1  0.36342579  0.35298227  0.71059380  1  -1.162916  0  -0.319223  -0.546722  0  2.165343  0
O  O159  1  0.28069803  0.13250194  0.92570698  1  -1.196886  0  -0.326378  -0.558201  0  2.369031  0
O  O160  1  0.44432136  0.09482311  0.95026608  1  -1.166418  0  -0.310718  -0.523055  0  2.277406  0
O  O161  1  0.82125150  0.36351839  0.51101295  1  -1.191781  0  -0.328025  -0.549737  0  2.383396  0
O  O162  1  0.23310622  0.26081124  0.79635596  1  -1.195295  0  -0.334437  -0.577686  0  2.344166  0
O  O163  1  0.72237054  0.36352107  0.34650625  1  -1.194957  0  -0.328695  -0.569877  0  2.36952  0
O  O164  1  0.54341803  0.36549658  0.30693462  1  -1.190893  0  -0.325177  -0.57832  0  2.258127  0
O  O165  1  0.73377891  0.37680213  0.61883036  1  -1.120765  0  -0.315264  -0.529426  0  2.211005  0
O  O166  1  0.11521576  0.01949037  0.78822213  1  -1.200458  0  -0.596017  -0.817315  0  2.126574  0
O  O167  1  0.86341770  0.85298227  0.78941203  1  -1.163074  0  -0.319195  -0.546732  0  2.165484  0
O  O168  1  0.78069997  0.63251452  0.57429809  1  -1.196729  0  -0.326409  -0.558207  0  2.3696  0
O  O169  1  0.94430938  0.59483087  0.54974092  1  -1.16615  0  -0.310719  -0.523194  0  2.277043  0
O  O170  1  0.32125541  0.86351857  0.98898776  1  -1.191839  0  -0.328126  -0.549833  0  2.383078  0
O  O171  1  0.73309588  0.76080969  0.70364966  1  -1.195463  0  -0.334543  -0.577662  0  2.344322  0
O  O172  1  0.22237101  0.86353360  0.15349253  1  -1.195121  0  -0.328647  -0.569775  0  2.370293  0
O  O173  1  0.04341588  0.86550322  0.19306930  1  -1.190944  0  -0.325301  -0.578531  0  2.257785  0
O  O174  1  0.23377843  0.87679962  0.88117085  1  -1.120779  0  -0.315284  -0.529446  0  2.211012  0
O  O175  1  0.38478786  0.48051097  0.28822652  1  -1.200524  0  -0.596042  -0.817335  0  2.126629  0
O  O176  1  0.63657856  0.64701963  0.28940952  1  -1.16297  0  -0.319223  -0.546756  0  2.165403  0
O  O177  1  0.71930535  0.86749772  0.07429465  1  -1.196805  0  -0.326451  -0.558308  0  2.368773  0
O  O178  1  0.55568286  0.90517655  0.04973556  1  -1.166448  0  -0.310689  -0.523053  0  2.27753  0
O  O179  1  0.17874328  0.63647902  0.48898644  1  -1.191843  0  -0.328079  -0.549775  0  2.383262  0
O  O180  1  0.76689585  0.73918542  0.20364567  1  -1.195419  0  -0.334379  -0.577538  0  2.344399  0
O  O181  1  0.27761460  0.63646587  0.65349650  1  -1.194759  0  -0.328766  -0.569981  0  2.369579  0
O  O182  1  0.45657604  0.63450307  0.69306590  1  -1.190887  0  -0.32521  -0.578335  0  2.258268  0
O  O183  1  0.26621652  0.62319678  0.38117015  1  -1.120833  0  -0.315239  -0.529415  0  2.211097  0
