# generated using pymatgen
data_HgH12C15(N2Cl)2
_symmetry_space_group_name_H-M   'P 1'
_cell_length_a   9.10856631
_cell_length_b   12.95563464
_cell_length_c   13.41551093
_cell_angle_alpha   89.99984604
_cell_angle_beta   90.00013013
_cell_angle_gamma   102.41782785
_symmetry_Int_Tables_number   1
_chemical_formula_structural   HgH12C15(N2Cl)2
_chemical_formula_sum   'Hg4 H48 C60 N16 Cl8'
_cell_volume   1546.09103536
_cell_formula_units_Z   4
loop_
 _symmetry_equiv_pos_site_id
 _symmetry_equiv_pos_as_xyz
  1  'x, y, z'
loop_
 _atom_site_type_symbol
 _atom_site_label
 _atom_site_symmetry_multiplicity
 _atom_site_fract_x
 _atom_site_fract_y
 _atom_site_fract_z
 _atom_site_occupancy
 _atom_site_hle17_bader_spin_density
 _atom_site_hle17_ddec_charge
 _atom_site_hle17_ddec_spin_density
 _atom_site_hle17_ddec_sum_bond_order
 _atom_site_hle17_magmom
 _atom_site_hse06_10hf_bader_spin_density
 _atom_site_hse06_10hf_ddec_charge
 _atom_site_hse06_10hf_ddec_spin_density
 _atom_site_hse06_10hf_ddec_sum_bond_order
 _atom_site_hse06_10hf_magmom
 _atom_site_hse06_bader_spin_density
 _atom_site_hse06_ddec_charge
 _atom_site_hse06_ddec_spin_density
 _atom_site_hse06_ddec_sum_bond_order
 _atom_site_hse06_magmom
 _atom_site_pbe_bader_spin_density
 _atom_site_pbe_cm5_charge
 _atom_site_pbe_ddec_charge
 _atom_site_pbe_ddec_spin_density
 _atom_site_pbe_ddec_sum_bond_order
 _atom_site_pbe_magmom
Hg  Hg0  1  0.84782144  0.54116891  0.19710985  1  0  0.780847  0  2.089536  0  0  0.622579  0  2.592183  0  0  0.668897  0  2.55957  0  0  0.537304  0.590649  0  2.614677  0
Hg  Hg1  1  0.65218022  0.95883054  0.69711099  1  0  0.780858  0  2.089536  0  0  0.622596  0  2.592189  0  0  0.668917  0  2.559574  0  0  0.53729  0.590668  0  2.614686  0
Hg  Hg2  1  0.15217756  0.45882999  0.80289179  1  0  0.780836  0  2.08953  0  0  0.622565  0  2.592174  0  0  0.668882  0  2.559561  0  0  0.537294  0.590632  0  2.614677  0
Hg  Hg3  1  0.34782121  0.04116914  0.30289140  1  0  0.780836  0  2.089545  0  0  0.622566  0  2.592204  0  0  0.668884  0  2.559588  0  0  0.537295  0.590635  0  2.614704  0
H  H4  1  0.61610117  0.41415141  0.38930602  1  0  0.114317  0  0.954479  0  0  0.124242  0  1.015879  0  0  0.12726  0  1.014183  0  0  0.097051  0.122323  0  1.016809  0
H  H5  1  0.88389839  0.08584950  0.88930848  1  0  0.114352  0  0.954474  0  0  0.124279  0  1.015868  0  0  0.127297  0  1.014172  0  0  0.097066  0.12236  0  1.016795  0
H  H6  1  0.38390467  0.58585538  0.61069115  1  0  0.114366  0  0.954404  0  0  0.124247  0  1.015884  0  0  0.127262  0  1.014189  0  0  0.097039  0.122327  0  1.016812  0
H  H7  1  0.11609474  0.91414467  0.11069092  1  0  0.114346  0  0.954414  0  0  0.124242  0  1.015876  0  0  0.127258  0  1.014179  0  0  0.097041  0.122322  0  1.016804  0
H  H8  1  0.41837281  0.12209135  0.55262690  1  0  0.085938  0  0.992614  0  0  0.092654  0  1.061527  0  0  0.095559  0  1.060011  0  0  0.082429  0.090255  0  1.063435  0
H  H9  1  0.08163152  0.37791073  0.05262746  1  0  0.085939  0  0.992597  0  0  0.092651  0  1.061512  0  0  0.095554  0  1.059998  0  0  0.082412  0.090252  0  1.063421  0
H  H10  1  0.58163095  0.87791228  0.44737400  1  0  0.08596  0  0.992576  0  0  0.092677  0  1.061478  0  0  0.095579  0  1.059965  0  0  0.08243  0.090277  0  1.063385  0
H  H11  1  0.91836807  0.62208659  0.94737418  1  0  0.085971  0  0.992548  0  0  0.092684  0  1.06146  0  0  0.095589  0  1.059943  0  0  0.082429  0.090286  0  1.063365  0
H  H12  1  0.25061443  0.22567653  0.63010561  1  0  0.089301  0  0.953338  0  0  0.100673  0  1.012223  0  0  0.10341  0  1.01163  0  0  0.094199  0.098575  0  1.012937  0
H  H13  1  0.24938767  0.27432458  0.13010595  1  0  0.089225  0  0.953469  0  0  0.10064  0  1.012319  0  0  0.103377  0  1.011728  0  0  0.094186  0.098577  0  1.012996  0
H  H14  1  0.74938774  0.77432553  0.36989529  1  0  0.089307  0  0.953417  0  0  0.100678  0  1.012293  0  0  0.103416  0  1.011699  0  0  0.094205  0.098602  0  1.012987  0
H  H15  1  0.75061083  0.72567274  0.86989643  1  0  0.089281  0  0.953487  0  0  0.100702  0  1.012301  0  0  0.10344  0  1.011707  0  0  0.094208  0.098636  0  1.012981  0
H  H16  1  0.81501025  0.74759088  0.64779235  1  0  0.097856  0  0.943351  0  0  0.105361  0  1.0118  0  0  0.108081  0  1.007994  0  0  0.134131  0.103224  0  1.014499  0
H  H17  1  0.68499347  0.75240869  0.14779489  1  0  0.097908  0  0.9434  0  0  0.105423  0  1.011823  0  0  0.108143  0  1.008017  0  0  0.134128  0.103282  0  1.014528  0
H  H18  1  0.18499471  0.25240958  0.35220630  1  0  0.097916  0  0.94338  0  0  0.105398  0  1.011839  0  0  0.108118  0  1.008033  0  0  0.134135  0.10326  0  1.014541  0
H  H19  1  0.31500308  0.24758943  0.85220600  1  0  0.097903  0  0.943391  0  0  0.105391  0  1.011843  0  0  0.108111  0  1.008036  0  0  0.134126  0.10325  0  1.014542  0
H  H20  1  0.06864336  0.71161985  0.36082176  1  0  0.098506  0  0.964187  0  0  0.103762  0  1.037139  0  0  0.106603  0  1.033067  0  0  0.124379  0.101681  0  1.039921  0
H  H21  1  0.43135865  0.78837881  0.86082452  1  0  0.09853  0  0.964205  0  0  0.103777  0  1.037164  0  0  0.106623  0  1.033078  0  0  0.124387  0.101697  0  1.039941  0
H  H22  1  0.93136589  0.28838377  0.63917764  1  0  0.098509  0  0.964245  0  0  0.103751  0  1.037206  0  0  0.106599  0  1.033114  0  0  0.12436  0.101671  0  1.039994  0
H  H23  1  0.56863168  0.21161695  0.13917638  1  0  0.09848  0  0.964271  0  0  0.103739  0  1.037214  0  0  0.106583  0  1.033133  0  0  0.124362  0.101659  0  1.039993  0
H  H24  1  0.20202017  0.75542058  0.52686394  1  0  0.099809  0  0.918826  0  0  0.109319  0  0.987074  0  0  0.110306  0  0.986285  0  0  0.130075  0.108858  0  0.987075  0
H  H25  1  0.29798121  0.74457966  0.02686816  1  0  0.09985  0  0.918843  0  0  0.109395  0  0.98705  0  0  0.11038  0  0.986264  0  0  0.130082  0.108929  0  0.987055  0
H  H26  1  0.79798773  0.24458224  0.47313770  1  0  0.099839  0  0.918863  0  0  0.109381  0  0.987063  0  0  0.110362  0  0.986293  0  0  0.130084  0.10892  0  0.987065  0
H  H27  1  0.70201071  0.25541768  0.97313646  1  0  0.099803  0  0.918906  0  0  0.109395  0  0.987079  0  0  0.11038  0  0.986293  0  0  0.130048  0.108932  0  0.987079  0
H  H28  1  0.12427159  0.68539874  0.63547854  1  0  0.087991  0  0.951361  0  0  0.093549  0  1.026562  0  0  0.094842  0  1.02505  0  0  0.113087  0.092592  0  1.02772  0
H  H29  1  0.37573057  0.81460282  0.13548121  1  0  0.088032  0  0.951441  0  0  0.093614  0  1.026575  0  0  0.09491  0  1.025063  0  0  0.113131  0.092661  0  1.027725  0
H  H30  1  0.87573229  0.31460172  0.36452161  1  0  0.088056  0  0.951351  0  0  0.093615  0  1.026525  0  0  0.094911  0  1.025017  0  0  0.113105  0.09266  0  1.027681  0
H  H31  1  0.62426732  0.18539608  0.86452117  1  0  0.088093  0  0.951398  0  0  0.093657  0  1.026566  0  0  0.094957  0  1.02506  0  0  0.113131  0.092702  0  1.027725  0
H  H32  1  0.88753495  0.56719882  0.70224081  1  0  0.102027  0  0.976831  0  0  0.108705  0  1.048064  0  0  0.111197  0  1.047568  0  0  0.095348  0.106891  0  1.048363  0
H  H33  1  0.61246587  0.93280142  0.20224277  1  0  0.101996  0  0.976871  0  0  0.108689  0  1.048067  0  0  0.11118  0  1.047571  0  0  0.095321  0.106873  0  1.048368  0
H  H34  1  0.11246991  0.43280481  0.29775710  1  0  0.101995  0  0.976907  0  0  0.108711  0  1.048051  0  0  0.111202  0  1.047555  0  0  0.095339  0.106897  0  1.048349  0
H  H35  1  0.38753054  0.06719274  0.79775738  1  0  0.10189  0  0.976925  0  0  0.108576  0  1.048099  0  0  0.111068  0  1.047602  0  0  0.095305  0.106761  0  1.0484  0
H  H36  1  0.99286007  0.13736820  0.68896652  1  0  0.097846  0  0.989196  0  0  0.102067  0  1.064944  0  0  0.105115  0  1.062798  0  0  0.089586  0.099217  0  1.067507  0
H  H37  1  0.50714152  0.36263080  0.18896701  1  0  0.097862  0  0.989168  0  0  0.102046  0  1.064949  0  0  0.105106  0  1.062796  0  0  0.089589  0.099194  0  1.067517  0
H  H38  1  0.00713917  0.86263149  0.31103288  1  0  0.097851  0  0.989213  0  0  0.102074  0  1.064956  0  0  0.10512  0  1.062813  0  0  0.08959  0.09922  0  1.067528  0
H  H39  1  0.49285942  0.63736730  0.81103314  1  0  0.097873  0  0.989169  0  0  0.102067  0  1.064947  0  0  0.105128  0  1.062793  0  0  0.0896  0.099216  0  1.067509  0
H  H40  1  0.67112372  0.41367829  0.70914554  1  0  0.089062  0  0.975236  0  0  0.09916  0  1.035089  0  0  0.101149  0  1.035799  0  0  0.09495  0.097614  0  1.034858  0
H  H41  1  0.82887318  0.08632306  0.20914724  1  0  0.089022  0  0.975255  0  0  0.099121  0  1.035118  0  0  0.101108  0  1.03583  0  0  0.09494  0.097576  0  1.034885  0
H  H42  1  0.32887944  0.58632693  0.29085163  1  0  0.089056  0  0.975214  0  0  0.099114  0  1.03513  0  0  0.101102  0  1.035841  0  0  0.094907  0.097564  0  1.0349  0
H  H43  1  0.17111995  0.91367111  0.79085142  1  0  0.089111  0  0.975284  0  0  0.099173  0  1.035177  0  0  0.10116  0  1.035889  0  0  0.094952  0.097627  0  1.034947  0
H  H44  1  0.53631099  0.33928860  0.55643200  1  0  0.094162  0  0.948702  0  0  0.105934  0  1.00747  0  0  0.10857  0  1.006638  0  0  0.09623  0.10423  0  1.007549  0
H  H45  1  0.96368441  0.16071311  0.05643447  1  0  0.094199  0  0.948689  0  0  0.105964  0  1.007457  0  0  0.108601  0  1.006623  0  0  0.096255  0.104263  0  1.007539  0
H  H46  1  0.46369326  0.66071661  0.44356367  1  0  0.09432  0  0.948666  0  0  0.106027  0  1.007478  0  0  0.108661  0  1.00665  0  0  0.096268  0.10432  0  1.007559  0
H  H47  1  0.03630677  0.83928186  0.94356419  1  0  0.094345  0  0.94864  0  0  0.106051  0  1.007448  0  0  0.108684  0  1.006621  0  0  0.096288  0.104349  0  1.00753  0
H  H48  1  0.34053764  0.92651766  0.53432832  1  0  0.101342  0  0.990873  0  0  0.107748  0  1.060565  0  0  0.110893  0  1.058837  0  0  0.089398  0.105399  0  1.062435  0
H  H49  1  0.15946560  0.57348493  0.03432979  1  0  0.101328  0  0.990885  0  0  0.107722  0  1.060599  0  0  0.110858  0  1.058882  0  0  0.089372  0.105376  0  1.062461  0
H  H50  1  0.65946722  0.07348597  0.46567258  1  0  0.101355  0  0.990853  0  0  0.10775  0  1.060568  0  0  0.110885  0  1.05885  0  0  0.089388  0.1054  0  1.062435  0
H  H51  1  0.84053181  0.42651239  0.96567185  1  0  0.10137  0  0.990856  0  0  0.107764  0  1.06057  0  0  0.110913  0  1.058838  0  0  0.0894  0.105418  0  1.062441  0
C  C52  1  0.02130683  0.98368840  0.63964340  1  0  0.142065  0  3.830289  0  0  0.140591  0  4.073483  0  0  0.143746  0  4.097247  0  0  0.082476  0.137784  0  4.058002  0
C  C53  1  0.47869643  0.51631315  0.13964477  1  0  0.14184  0  3.830504  0  0  0.1404  0  4.073598  0  0  0.143552  0  4.09737  0  0  0.082393  0.137592  0  4.058119  0
C  C54  1  0.97869753  0.01631365  0.36035600  1  0  0.141839  0  3.830411  0  0  0.14045  0  4.073521  0  0  0.143602  0  4.097285  0  0  0.082431  0.137644  0  4.058035  0
C  C55  1  0.52130341  0.48368495  0.86035463  1  0  0.141901  0  3.830524  0  0  0.140443  0  4.073696  0  0  0.143598  0  4.097464  0  0  0.082412  0.137629  0  4.058218  0
C  C56  1  0.11965974  0.92455995  0.59740961  1  0  0.10796  0  3.766501  0  0  0.098069  0  4.009305  0  0  0.102284  0  4.031482  0  0  0.092113  0.095249  0  3.994325  0
C  C57  1  0.38034098  0.57544093  0.09741216  1  0  0.108039  0  3.766688  0  0  0.098172  0  4.009366  0  0  0.102393  0  4.031538  0  0  0.092162  0.095358  0  3.994377  0
C  C58  1  0.88034353  0.07544211  0.40259129  1  0  0.108087  0  3.766553  0  0  0.098172  0  4.009298  0  0  0.102393  0  4.031469  0  0  0.092157  0.095355  0  3.994311  0
C  C59  1  0.61965533  0.42455640  0.90258650  1  0  0.10805  0  3.76676  0  0  0.098187  0  4.009456  0  0  0.102402  0  4.031632  0  0  0.092196  0.095368  0  3.994478  0
C  C60  1  0.79862187  0.53258148  0.45195364  1  0  0.139873  0  3.82834  0  0  0.137684  0  4.075798  0  0  0.141357  0  4.098864  0  0  0.081681  0.134433  0  4.060251  0
C  C61  1  0.70137681  0.96741976  0.95195557  1  0  0.139845  0  3.828429  0  0  0.137656  0  4.07588  0  0  0.141327  0  4.098944  0  0  0.081673  0.134403  0  4.060338  0
C  C62  1  0.20138398  0.46742531  0.54804427  1  0  0.139728  0  3.828354  0  0  0.137451  0  4.075898  0  0  0.141121  0  4.098966  0  0  0.081544  0.134203  0  4.060344  0
C  C63  1  0.29861632  0.03257442  0.04804383  1  0  0.139784  0  3.828429  0  0  0.137501  0  4.075964  0  0  0.141174  0  4.099032  0  0  0.081577  0.134252  0  4.060415  0
C  C64  1  0.67442074  0.44798008  0.45653566  1  0  -0.134421  0  3.736529  0  0  -0.152036  0  3.985272  0  0  -0.154492  0  4.005631  0  0  -0.094201  -0.150382  0  3.971549  0
C  C65  1  0.82557900  0.05202067  0.95653663  1  0  -0.134394  0  3.736504  0  0  -0.152004  0  3.985223  0  0  -0.154462  0  4.005586  0  0  -0.094178  -0.150353  0  3.971504  0
C  C66  1  0.32558595  0.55202592  0.54346225  1  0  -0.134306  0  3.736494  0  0  -0.151884  0  3.985292  0  0  -0.154337  0  4.005658  0  0  -0.094087  -0.150238  0  3.971568  0
C  C67  1  0.17441218  0.94797430  0.04346277  1  0  -0.134269  0  3.736464  0  0  -0.151873  0  3.985288  0  0  -0.154321  0  4.005651  0  0  -0.094102  -0.150216  0  3.97156  0
C  C68  1  0.30708097  0.08140870  0.57715295  1  0  -0.078943  0  3.800884  0  0  -0.09337  0  4.052905  0  0  -0.095847  0  4.076858  0  0  -0.105266  -0.090735  0  4.036117  0
C  C69  1  0.19292209  0.41859254  0.07715358  1  0  -0.078861  0  3.800715  0  0  -0.093275  0  4.052731  0  0  -0.095758  0  4.076697  0  0  -0.105228  -0.09065  0  4.035963  0
C  C70  1  0.69292255  0.91859414  0.42284720  1  0  -0.078917  0  3.800804  0  0  -0.09333  0  4.052802  0  0  -0.095811  0  4.076766  0  0  -0.105243  -0.090704  0  4.036027  0
C  C71  1  0.80707507  0.58140400  0.92284657  1  0  -0.078959  0  3.800811  0  0  -0.093372  0  4.05282  0  0  -0.095854  0  4.076786  0  0  -0.105286  -0.090745  0  4.036053  0
C  C72  1  0.21081089  0.14060460  0.62076799  1  0  -0.073891  0  3.770219  0  0  -0.090041  0  4.024911  0  0  -0.09288  0  4.047585  0  0  -0.104387  -0.087939  0  4.008949  0
C  C73  1  0.28919253  0.35939732  0.12076817  1  0  -0.073981  0  3.770158  0  0  -0.090181  0  4.024869  0  0  -0.093022  0  4.047545  0  0  -0.10443  -0.088105  0  4.00891  0
C  C74  1  0.78919019  0.85939746  0.37923142  1  0  -0.07396  0  3.770226  0  0  -0.090105  0  4.024929  0  0  -0.092943  0  4.047601  0  0  -0.104421  -0.088021  0  4.008972  0
C  C75  1  0.71080951  0.64060078  0.87923198  1  0  -0.074025  0  3.770143  0  0  -0.090199  0  4.024847  0  0  -0.093041  0  4.047522  0  0  -0.104426  -0.088123  0  4.008882  0
C  C76  1  0.87353648  0.57575450  0.53994954  1  0  0.099762  0  3.770595  0  0  0.088315  0  4.016039  0  0  0.092181  0  4.038656  0  0  0.087298  0.085121  0  4.000959  0
C  C77  1  0.62646306  0.92424692  0.03995080  1  0  0.099705  0  3.770505  0  0  0.088266  0  4.015955  0  0  0.09214  0  4.038566  0  0  0.087233  0.085077  0  4.000871  0
C  C78  1  0.12646886  0.42425071  0.46004911  1  0  0.099702  0  3.770521  0  0  0.088352  0  4.015901  0  0  0.092222  0  4.038517  0  0  0.08726  0.085166  0  4.000812  0
C  C79  1  0.37353031  0.07574805  0.96004860  1  0  0.099674  0  3.77059  0  0  0.088331  0  4.015957  0  0  0.092197  0  4.038573  0  0  0.087243  0.085132  0  4.000881  0
C  C80  1  0.90228156  0.81888353  0.63977251  1  0  0.205537  0  3.647206  0  0  0.138156  0  3.923338  0  0  0.157087  0  3.931956  0  0  0.157175  0.126181  0  3.916674  0
C  C81  1  0.59772154  0.68111764  0.13977286  1  0  0.205404  0  3.64738  0  0  0.137973  0  3.923504  0  0  0.156901  0  3.932125  0  0  0.157125  0.125999  0  3.916838  0
C  C82  1  0.09772475  0.18111772  0.36022839  1  0  0.205367  0  3.647341  0  0  0.137981  0  3.923474  0  0  0.156911  0  3.932091  0  0  0.157133  0.126009  0  3.916809  0
C  C83  1  0.40227635  0.31888126  0.86022654  1  0  0.205369  0  3.647363  0  0  0.137982  0  3.92348  0  0  0.15691  0  3.9321  0  0  0.157114  0.126016  0  3.916805  0
C  C84  1  0.98599918  0.65792165  0.40546341  1  0  0.211639  0  3.659961  0  0  0.145998  0  3.937094  0  0  0.163788  0  3.948017  0  0  0.162184  0.134474  0  3.928847  0
C  C85  1  0.51400083  0.84207732  0.90546538  1  0  0.211633  0  3.659933  0  0  0.146019  0  3.937043  0  0  0.163811  0  3.947963  0  0  0.162258  0.134498  0  3.928792  0
C  C86  1  0.01400946  0.34208356  0.59453600  1  0  0.211692  0  3.660133  0  0  0.146079  0  3.93723  0  0  0.163872  0  3.948151  0  0  0.162311  0.134545  0  3.928994  0
C  C87  1  0.48598815  0.15791765  0.09453477  1  0  0.211817  0  3.659952  0  0  0.146179  0  3.937051  0  0  0.163972  0  3.94797  0  0  0.162331  0.134655  0  3.928804  0
C  C88  1  0.09800735  0.72752713  0.56889807  1  0  0.111327  0  3.602095  0  0  0.03652  0  3.843917  0  0  0.046271  0  3.852573  0  0  0.060425  0.029615  0  3.838381  0
C  C89  1  0.40199329  0.77247381  0.06890089  1  0  0.111225  0  3.602244  0  0  0.036345  0  3.844107  0  0  0.046091  0  3.852772  0  0  0.060354  0.029433  0  3.838584  0
C  C90  1  0.90199811  0.27247491  0.43110282  1  0  0.111172  0  3.602243  0  0  0.036344  0  3.844018  0  0  0.046078  0  3.8527  0  0  0.060377  0.029427  0  3.838512  0
C  C91  1  0.59800082  0.22752352  0.93110149  1  0  0.111242  0  3.602294  0  0  0.036318  0  3.844182  0  0  0.046051  0  3.852863  0  0  0.060426  0.029408  0  3.838668  0
C  C92  1  0.82909797  0.53542491  0.63430676  1  0  -0.160418  0  3.772791  0  0  -0.17729  0  4.025742  0  0  -0.181596  0  4.047976  0  0  -0.102706  -0.173781  0  4.010328  0
C  C93  1  0.67089988  0.96457708  0.13430798  1  0  -0.160428  0  3.772709  0  0  -0.177298  0  4.025671  0  0  -0.18161  0  4.047901  0  0  -0.102641  -0.17379  0  4.010256  0
C  C94  1  0.17090628  0.46458030  0.36569041  1  0  -0.160413  0  3.772625  0  0  -0.177293  0  4.025541  0  0  -0.181602  0  4.047773  0  0  -0.102689  -0.173789  0  4.010129  0
C  C95  1  0.32909435  0.03541709  0.86569068  1  0  -0.160318  0  3.772617  0  0  -0.177174  0  4.025554  0  0  -0.181481  0  4.047786  0  0  -0.102666  -0.173661  0  4.010137  0
C  C96  1  0.06704616  0.09295160  0.65299556  1  0  -0.138394  0  3.743016  0  0  -0.159499  0  3.998398  0  0  -0.161517  0  4.01852  0  0  -0.0988  -0.157069  0  3.984491  0
C  C97  1  0.43295709  0.40704946  0.15299659  1  0  -0.138224  0  3.742723  0  0  -0.159312  0  3.998096  0  0  -0.161343  0  4.018212  0  0  -0.098753  -0.156885  0  3.984208  0
C  C98  1  0.93295601  0.90705046  0.34700384  1  0  -0.138307  0  3.742882  0  0  -0.15945  0  3.998245  0  0  -0.161468  0  4.018367  0  0  -0.098784  -0.15702  0  3.984352  0
C  C99  1  0.56704141  0.59294786  0.84700282  1  0  -0.138263  0  3.742701  0  0  -0.159383  0  3.998124  0  0  -0.161412  0  4.018232  0  0  -0.098807  -0.156949  0  3.984225  0
C  C100  1  0.70694786  0.44941095  0.63738530  1  0  -0.060448  0  3.76766  0  0  -0.074248  0  4.018344  0  0  -0.07629  0  4.042039  0  0  -0.096167  -0.073523  0  4.001842  0
C  C101  1  0.79304885  0.05059056  0.13738704  1  0  -0.060352  0  3.767642  0  0  -0.074145  0  4.018302  0  0  -0.07619  0  4.042002  0  0  -0.096197  -0.073424  0  4.001801  0
C  C102  1  0.29305529  0.55059426  0.36261187  1  0  -0.060429  0  3.767667  0  0  -0.074201  0  4.018348  0  0  -0.076242  0  4.042039  0  0  -0.096172  -0.073478  0  4.001848  0
C  C103  1  0.20694428  0.94940361  0.86261236  1  0  -0.060432  0  3.767755  0  0  -0.074203  0  4.018412  0  0  -0.076246  0  4.04211  0  0  -0.096192  -0.073475  0  4.001909  0
C  C104  1  0.63065337  0.40686219  0.55043296  1  0  -0.073214  0  3.77569  0  0  -0.091457  0  4.032063  0  0  -0.094147  0  4.054862  0  0  -0.099425  -0.088401  0  4.015546  0
C  C105  1  0.86934421  0.09313953  0.05043545  1  0  -0.073333  0  3.775726  0  0  -0.09158  0  4.032111  0  0  -0.094266  0  4.054909  0  0  -0.099459  -0.088525  0  4.015599  0
C  C106  1  0.36935137  0.59314461  0.44956346  1  0  -0.073471  0  3.775978  0  0  -0.091655  0  4.032332  0  0  -0.094339  0  4.055124  0  0  -0.099498  -0.088594  0  4.015812  0
C  C107  1  0.13064782  0.90685464  0.94956395  1  0  -0.073549  0  3.775968  0  0  -0.091732  0  4.032328  0  0  -0.094423  0  4.055123  0  0  -0.099525  -0.088683  0  4.015816  0
C  C108  1  0.26427796  0.97217563  0.56550256  1  0  -0.162594  0  3.784679  0  0  -0.178922  0  4.037535  0  0  -0.183202  0  4.059012  0  0  -0.105614  -0.176579  0  4.023341  0
C  C109  1  0.23572645  0.52782689  0.06550352  1  0  -0.162579  0  3.784603  0  0  -0.178924  0  4.037453  0  0  -0.183198  0  4.058937  0  0  -0.1056  -0.176582  0  4.023253  0
C  C110  1  0.73572774  0.02782721  0.43449833  1  0  -0.16265  0  3.784596  0  0  -0.178987  0  4.037463  0  0  -0.183262  0  4.058945  0  0  -0.105637  -0.176643  0  4.023262  0
C  C111  1  0.76427534  0.47217042  0.93449737  1  0  -0.162638  0  3.784701  0  0  -0.178986  0  4.037551  0  0  -0.183269  0  4.059023  0  0  -0.105619  -0.176648  0  4.023362  0
N  N112  1  0.87249035  0.58606388  0.37007900  1  0  -0.398916  0  3.207742  0  0  -0.331733  0  3.492656  0  0  -0.353841  0  3.508901  0  0  -0.334836  -0.316037  0  3.480335  0
N  N113  1  0.62751201  0.91393596  0.87008021  1  0  -0.398944  0  3.20776  0  0  -0.331786  0  3.492695  0  0  -0.35389  0  3.508932  0  0  -0.334905  -0.316091  0  3.480379  0
N  N114  1  0.12751634  0.41394212  0.62991966  1  0  -0.398892  0  3.207926  0  0  -0.331697  0  3.492849  0  0  -0.353803  0  3.50909  0  0  -0.334856  -0.315996  0  3.480525  0
N  N115  1  0.37248112  0.08605821  0.12991919  1  0  -0.398983  0  3.207889  0  0  -0.331768  0  3.492813  0  0  -0.353877  0  3.509055  0  0  -0.334875  -0.316072  0  3.480492  0
N  N116  1  0.04026816  0.81977859  0.59917555  1  0  -0.137624  0  3.472961  0  0  -0.054011  0  3.704487  0  0  -0.071105  0  3.726302  0  0  -0.2376  -0.042472  0  3.688945  0
N  N117  1  0.45973391  0.68022307  0.09917944  1  0  -0.137663  0  3.473125  0  0  -0.053986  0  3.704561  0  0  -0.071081  0  3.726379  0  0  -0.237578  -0.042446  0  3.689009  0
N  N118  1  0.95973730  0.18022346  0.40082535  1  0  -0.137593  0  3.473074  0  0  -0.053941  0  3.704546  0  0  -0.07103  0  3.726363  0  0  -0.237591  -0.042398  0  3.688997  0
N  N119  1  0.54026374  0.31977505  0.90082220  1  0  -0.137563  0  3.473095  0  0  -0.053907  0  3.704573  0  0  -0.070996  0  3.726391  0  0  -0.237574  -0.042371  0  3.68903  0
N  N120  1  0.88707566  0.91500242  0.66444680  1  0  -0.387071  0  3.20839  0  0  -0.316472  0  3.490021  0  0  -0.338723  0  3.50666  0  0  -0.332034  -0.301839  0  3.478703  0
N  N121  1  0.61292750  0.58499869  0.16444891  1  0  -0.386913  0  3.208352  0  0  -0.316305  0  3.489938  0  0  -0.338556  0  3.506583  0  0  -0.332  -0.301672  0  3.47862  0
N  N122  1  0.11292760  0.08499963  0.33555261  1  0  -0.386864  0  3.208404  0  0  -0.316289  0  3.48999  0  0  -0.338535  0  3.50663  0  0  -0.332016  -0.301658  0  3.478671  0
N  N123  1  0.38707149  0.41500021  0.83555124  1  0  -0.386909  0  3.208375  0  0  -0.316298  0  3.489964  0  0  -0.338547  0  3.506601  0  0  -0.332002  -0.301664  0  3.478643  0
N  N124  1  0.99182212  0.65607385  0.50730076  1  0  -0.146774  0  3.511324  0  0  -0.059937  0  3.738326  0  0  -0.077869  0  3.762536  0  0  -0.241669  -0.047534  0  3.722058  0
N  N125  1  0.50817794  0.84392606  0.00730353  1  0  -0.146637  0  3.511218  0  0  -0.059809  0  3.738217  0  0  -0.077739  0  3.762428  0  0  -0.241623  -0.047409  0  3.721946  0
N  N126  1  0.00818468  0.34392898  0.49269865  1  0  -0.146649  0  3.511166  0  0  -0.059842  0  3.738142  0  0  -0.07777  0  3.762354  0  0  -0.241602  -0.047439  0  3.721876  0
N  N127  1  0.49181348  0.15606970  0.99269737  1  0  -0.146745  0  3.511237  0  0  -0.05993  0  3.738261  0  0  -0.077862  0  3.762472  0  0  -0.241643  -0.047531  0  3.721994  0
Cl  Cl128  1  0.82523641  0.35149264  0.18138351  1  0  -0.490846  0  0.95955  0  0  -0.428863  0  1.235706  0  0  -0.44568  0  1.217532  0  0  -0.264264  -0.416918  0  1.248911  0
Cl  Cl129  1  0.67476406  0.14850639  0.68138399  1  0  -0.490836  0  0.959544  0  0  -0.428848  0  1.235694  0  0  -0.445672  0  1.217522  0  0  -0.264246  -0.416903  0  1.248904  0
Cl  Cl130  1  0.17476038  0.64850627  0.81861739  1  0  -0.490837  0  0.95956  0  0  -0.428838  0  1.235705  0  0  -0.445656  0  1.217527  0  0  -0.264259  -0.416892  0  1.248911  0
Cl  Cl131  1  0.32523847  0.85149329  0.31861765  1  0  -0.490809  0  0.959559  0  0  -0.42883  0  1.235706  0  0  -0.44565  0  1.217533  0  0  -0.264247  -0.416883  0  1.248915  0
Cl  Cl132  1  0.00885739  0.70739919  0.14109174  1  0  -0.513664  0  0.935306  0  0  -0.453288  0  1.208216  0  0  -0.47148  0  1.191577  0  0  -0.284532  -0.441225  0  1.219231  0
Cl  Cl133  1  0.49114429  0.79260078  0.64109234  1  0  -0.513653  0  0.9353  0  0  -0.453273  0  1.208203  0  0  -0.471467  0  1.191566  0  0  -0.284526  -0.441212  0  1.219217  0
Cl  Cl134  1  0.99114185  0.29260050  0.85890916  1  0  -0.513637  0  0.935302  0  0  -0.453265  0  1.208214  0  0  -0.471457  0  1.191578  0  0  -0.284512  -0.441202  0  1.219235  0
Cl  Cl135  1  0.50885739  0.20739969  0.35890856  1  0  -0.51365  0  0.935298  0  0  -0.453276  0  1.208205  0  0  -0.471467  0  1.191567  0  0  -0.28452  -0.441213  0  1.219221  0
