# generated using pymatgen
data_Ag2H32C25(SN5)2
_symmetry_space_group_name_H-M   'P 1'
_cell_length_a   7.91786471
_cell_length_b   11.73919574
_cell_length_c   16.89528544
_cell_angle_alpha   81.81248807
_cell_angle_beta   76.47154032
_cell_angle_gamma   70.29279125
_symmetry_Int_Tables_number   1
_chemical_formula_structural   Ag2H32C25(SN5)2
_chemical_formula_sum   'Ag4 H64 C50 S4 N20'
_cell_volume   1433.93733769
_cell_formula_units_Z   2
loop_
 _symmetry_equiv_pos_site_id
 _symmetry_equiv_pos_as_xyz
  1  'x, y, z'
loop_
 _atom_site_type_symbol
 _atom_site_label
 _atom_site_symmetry_multiplicity
 _atom_site_fract_x
 _atom_site_fract_y
 _atom_site_fract_z
 _atom_site_occupancy
 _atom_site_hle17_bader_spin_density
 _atom_site_hle17_ddec_charge
 _atom_site_hle17_ddec_spin_density
 _atom_site_hle17_ddec_sum_bond_order
 _atom_site_hle17_magmom
 _atom_site_hse06_10hf_bader_spin_density
 _atom_site_hse06_10hf_ddec_charge
 _atom_site_hse06_10hf_ddec_spin_density
 _atom_site_hse06_10hf_ddec_sum_bond_order
 _atom_site_hse06_10hf_magmom
 _atom_site_hse06_bader_spin_density
 _atom_site_hse06_ddec_charge
 _atom_site_hse06_ddec_spin_density
 _atom_site_hse06_ddec_sum_bond_order
 _atom_site_hse06_magmom
 _atom_site_pbe_bader_charge
 _atom_site_pbe_bader_spin_density
 _atom_site_pbe_cm5_charge
 _atom_site_pbe_ddec_charge
 _atom_site_pbe_ddec_spin_density
 _atom_site_pbe_ddec_sum_bond_order
 _atom_site_pbe_magmom
Ag  Ag0  1  0.22648381  0.20080442  0.96150163  1  0  0.451156  0  1.739552  0  0  0.326722  0  2.230881  0  0  0.34833  0  2.188622  0  0.534213  0  0.441049  0.312325  0  2.259632  0
Ag  Ag1  1  0.38889001  0.29905151  0.53834176  1  0  0.4515  0  1.738799  0  0  0.327063  0  2.230234  0  0  0.348726  0  2.187944  0  0.533473  0  0.441099  0.312655  0  2.258928  0
Ag  Ag2  1  0.77351582  0.79919588  0.03849832  1  0  0.451161  0  1.739532  0  0  0.326721  0  2.23085  0  0  0.348329  0  2.188592  0  0.534197  0  0.441042  0.312326  0  2.259598  0
Ag  Ag3  1  0.61110744  0.70094969  0.46165860  1  0  0.451515  0  1.73882  0  0  0.327068  0  2.230261  0  0  0.34873  0  2.187971  0  0.533486  0  0.44112  0.312657  0  2.258961  0
H  H4  1  0.34886669  0.29158935  0.70178828  1  0  0.119597  0  0.958434  0  0  0.12917  0  1.030398  0  0  0.131896  0  1.02784  0  0.083814  0  0.103041  0.127181  0  1.032331  0
H  H5  1  0.34224145  0.20849968  0.79822564  1  0  0.11928  0  0.958741  0  0  0.129104  0  1.030344  0  0  0.131824  0  1.027797  0  0.096893  0  0.102893  0.127104  0  1.032289  0
H  H6  1  0.65113293  0.70841094  0.29821168  1  0  0.119614  0  0.958434  0  0  0.12918  0  1.030398  0  0  0.131904  0  1.02784  0  0.083814  0  0.10304  0.127186  0  1.032326  0
H  H7  1  0.65775702  0.79150061  0.20177418  1  0  0.119264  0  0.958767  0  0  0.129064  0  1.030389  0  0  0.131784  0  1.027844  0  0.096892  0  0.102875  0.12706  0  1.032329  0
H  H8  1  0.03442016  0.40510363  0.73009805  1  0  0.071559  0  0.920001  0  0  0.086362  0  0.979605  0  0  0.086546  0  0.979588  0  0.095459  0  0.142714  0.0861  0  0.979729  0
H  H9  1  0.16979724  0.09487656  0.76987786  1  0  0.072139  0  0.918325  0  0  0.086115  0  0.978677  0  0  0.086354  0  0.978593  0  0.122613  0  0.142337  0.085857  0  0.978726  0
H  H10  1  0.96557947  0.59489667  0.26990190  1  0  0.071554  0  0.919981  0  0  0.086364  0  0.979592  0  0  0.086552  0  0.979573  0  0.095468  0  0.142709  0.086106  0  0.979708  0
H  H11  1  0.83020239  0.90512373  0.23012210  1  0  0.072132  0  0.918339  0  0  0.086107  0  0.978691  0  0  0.086347  0  0.978607  0  0.122568  0  0.142336  0.08585  0  0.978737  0
H  H12  1  0.14923151  0.53305787  0.04679910  1  0  0.12339  0  0.970513  0  0  0.134825  0  1.042915  0  0  0.136481  0  1.04386  0  0.061891  0  0.093744  0.133649  0  1.042293  0
H  H13  1  0.72892233  0.96712670  0.45319335  1  0  0.123483  0  0.970123  0  0  0.135186  0  1.042056  0  0  0.136862  0  1.042978  0  0.071037  0  0.094245  0.133983  0  1.041474  0
H  H14  1  0.85076811  0.46694242  0.95320085  1  0  0.123384  0  0.970497  0  0  0.134817  0  1.042903  0  0  0.136473  0  1.043848  0  0.061892  0  0.093738  0.133641  0  1.042281  0
H  H15  1  0.27107657  0.03287269  0.54680651  1  0  0.123494  0  0.970095  0  0  0.135195  0  1.042033  0  0  0.136872  0  1.042954  0  0.071052  0  0.094244  0.133992  0  1.041451  0
H  H16  1  0.36808899  0.53606197  0.99451490  1  0  0.114936  0  0.966126  0  0  0.1384  0  1.020622  0  0  0.139255  0  1.021697  0  0.056012  0  0.092927  0.137761  0  1.019896  0
H  H17  1  0.89862440  0.96414982  0.50543949  1  0  0.114225  0  0.96639  0  0  0.137971  0  1.020717  0  0  0.138832  0  1.021782  0  0.046509  0  0.092856  0.137336  0  1.019976  0
H  H18  1  0.63191136  0.46393924  0.00548516  1  0  0.114947  0  0.966148  0  0  0.13842  0  1.020629  0  0  0.139276  0  1.021702  0  0.056106  0  0.092932  0.137781  0  1.019904  0
H  H19  1  0.10137566  0.03584957  0.49456051  1  0  0.11426  0  0.966337  0  0  0.137973  0  1.020701  0  0  0.138833  0  1.021766  0  0.046482  0  0.092861  0.137339  0  1.019958  0
H  H20  1  0.32524892  0.39391810  0.02317919  1  0  0.108463  0  0.967768  0  0  0.12342  0  1.039642  0  0  0.125881  0  1.037723  0  0.040469  0  0.086449  0.121605  0  1.041064  0
H  H21  1  0.74214179  0.10631697  0.47679865  1  0  0.108673  0  0.967484  0  0  0.12358  0  1.03964  0  0  0.126088  0  1.037669  0  0.033596  0  0.086364  0.121717  0  1.041114  0
H  H22  1  0.67475229  0.60608129  0.97682095  1  0  0.108438  0  0.967818  0  0  0.123399  0  1.039684  0  0  0.12586  0  1.037765  0  0.040472  0  0.086428  0.121584  0  1.041106  0
H  H23  1  0.25785595  0.89368242  0.52320106  1  0  0.108663  0  0.967463  0  0  0.12357  0  1.039618  0  0  0.126078  0  1.037647  0  0.033571  0  0.086363  0.121708  0  1.041092  0
H  H24  1  0.53694701  0.28857800  0.90230157  1  0  0.135134  0  0.990657  0  0  0.139918  0  1.061231  0  0  0.14378  0  1.059533  0  0.103631  0  0.101215  0.137137  0  1.062609  0
H  H25  1  0.72765994  0.21155185  0.59772735  1  0  0.1334  0  0.992154  0  0  0.138777  0  1.061906  0  0  0.142633  0  1.060211  0  0.114047  0  0.100924  0.135985  0  1.063316  0
H  H26  1  0.46305536  0.71142139  0.09769872  1  0  0.135153  0  0.990613  0  0  0.139906  0  1.061236  0  0  0.143766  0  1.059537  0  0.103604  0  0.101196  0.137125  0  1.062612  0
H  H27  1  0.27234186  0.78844754  0.40227220  1  0  0.133406  0  0.992134  0  0  0.138789  0  1.06187  0  0  0.142646  0  1.060174  0  0.114095  0  0.100922  0.135985  0  1.063291  0
H  H28  1  0.14987325  0.68953559  0.87294017  1  0  0.136087  0  0.961507  0  0  0.150451  0  1.014897  0  0  0.153493  0  1.014294  0  0.092612  0  0.102923  0.148253  0  1.01553  0
H  H29  1  0.71253661  0.81060726  0.62702891  1  0  0.136538  0  0.962456  0  0  0.151074  0  1.015307  0  0  0.154056  0  1.014808  0  0.086206  0  0.102713  0.148921  0  1.015867  0
H  H30  1  0.85012638  0.31046471  0.12705979  1  0  0.136044  0  0.961546  0  0  0.150405  0  1.014941  0  0  0.153448  0  1.014342  0  0.092617  0  0.102914  0.148208  0  1.015574  0
H  H31  1  0.28746358  0.18939303  0.37297178  1  0  0.136491  0  0.962492  0  0  0.151044  0  1.015321  0  0  0.154025  0  1.014822  0  0.08618  0  0.102692  0.14889  0  1.015884  0
H  H32  1  0.88127194  0.63829820  0.74235026  1  0  0.113204  0  0.952603  0  0  0.13236  0  1.017674  0  0  0.134468  0  1.016484  0  0.024921  0  0.092045  0.13086  0  1.018505  0
H  H33  1  0.26227964  0.86154352  0.75765700  1  0  0.11232  0  0.953392  0  0  0.131895  0  1.018155  0  0  0.134006  0  1.016949  0  0.057612  0  0.091752  0.130418  0  1.018984  0
H  H34  1  0.11872768  0.36170210  0.25764970  1  0  0.113216  0  0.952612  0  0  0.132372  0  1.017681  0  0  0.13448  0  1.016491  0  0.024909  0  0.092038  0.130872  0  1.018512  0
H  H35  1  0.73771983  0.13845587  0.24234359  1  0  0.11235  0  0.953384  0  0  0.131921  0  1.018145  0  0  0.134032  0  1.01694  0  0.057618  0  0.091769  0.130443  0  1.018975  0
H  H36  1  0.09901580  0.57557596  0.67827581  1  0  0.123582  0  0.966593  0  0  0.143815  0  1.028089  0  0  0.144988  0  1.02854  0  0.086453  0  0.097245  0.142942  0  1.027835  0
H  H37  1  0.35334796  0.92427392  0.82169259  1  0  0.123446  0  0.965737  0  0  0.143621  0  1.027503  0  0  0.144784  0  1.027953  0  0.080804  0  0.09688  0.142759  0  1.027256  0
H  H38  1  0.90098396  0.42442525  0.32172484  1  0  0.123605  0  0.966601  0  0  0.143842  0  1.02808  0  0  0.145015  0  1.028532  0  0.086447  0  0.097253  0.142969  0  1.027827  0
H  H39  1  0.64664992  0.07572637  0.17830782  1  0  0.123472  0  0.965724  0  0  0.143628  0  1.027502  0  0  0.144792  0  1.02795  0  0.080817  0  0.09688  0.142766  0  1.027256  0
H  H40  1  0.04746613  0.71372162  0.72392794  1  0  0.124423  0  0.942577  0  0  0.146282  0  1.000506  0  0  0.147953  0  1.000077  0  0.058037  0  0.096657  0.145055  0  1.000822  0
H  H41  1  0.48556575  0.78619810  0.77598275  1  0  0.124211  0  0.941444  0  0  0.146228  0  0.999406  0  0  0.147911  0  0.998977  0  0.064594  0  0.096718  0.145004  0  0.999719  0
H  H42  1  0.95253291  0.28627867  0.27607261  1  0  0.124449  0  0.942592  0  0  0.14631  0  1.000511  0  0  0.147981  0  1.000084  0  0.058059  0  0.096668  0.145084  0  1.000828  0
H  H43  1  0.51443444  0.21380220  0.22401794  1  0  0.124214  0  0.941456  0  0  0.146235  0  0.99941  0  0  0.147919  0  0.998981  0  0.064597  0  0.096714  0.145011  0  0.999723  0
H  H44  1  0.79051464  0.04109676  0.99289772  1  0  0.112542  0  0.976428  0  0  0.126885  0  1.050459  0  0  0.128886  0  1.049554  0  0.060102  0  0.086066  0.125386  0  1.051184  0
H  H45  1  0.82442508  0.45887346  0.50710488  1  0  0.112344  0  0.975439  0  0  0.126776  0  1.049549  0  0  0.128787  0  1.048635  0  0.065683  0  0.085831  0.125265  0  1.050282  0
H  H46  1  0.20948674  0.95890354  0.00710179  1  0  0.112565  0  0.976375  0  0  0.126909  0  1.050413  0  0  0.128909  0  1.049508  0  0.060111  0  0.086075  0.125414  0  1.051134  0
H  H47  1  0.17557630  0.54112684  0.49289463  1  0  0.112358  0  0.975426  0  0  0.126792  0  1.049536  0  0  0.128805  0  1.048618  0  0.065675  0  0.085834  0.125282  0  1.05027  0
H  H48  1  0.66444972  0.16946824  0.04861024  1  0  0.117467  0  0.94862  0  0  0.138967  0  1.005489  0  0  0.140346  0  1.005718  0  0.051106  0  0.092964  0.137973  0  1.00533  0
H  H49  1  0.88239772  0.33051558  0.45139370  1  0  0.117677  0  0.947777  0  0  0.139373  0  1.004464  0  0  0.140694  0  1.004755  0  0.048081  0  0.092912  0.13839  0  1.004293  0
H  H50  1  0.33555252  0.83053024  0.95138935  1  0  0.117445  0  0.94859  0  0  0.138944  0  1.005465  0  0  0.140323  0  1.005694  0  0.051056  0  0.092944  0.137951  0  1.005307  0
H  H51  1  0.11760075  0.66948471  0.54860612  1  0  0.1177  0  0.947771  0  0  0.1394  0  1.004454  0  0  0.140721  0  1.004745  0  0.04809  0  0.092918  0.138417  0  1.004285  0
H  H52  1  0.90783061  0.11070610  0.03928883  1  0  0.107804  0  0.967435  0  0  0.124067  0  1.037259  0  0  0.126534  0  1.035667  0  0.01868  0  0.087194  0.122241  0  1.038462  0
H  H53  1  0.05768271  0.38929495  0.46070954  1  0  0.106426  0  0.967907  0  0  0.123002  0  1.037388  0  0  0.125482  0  1.035779  0  0.05493  0  0.086637  0.121171  0  1.038594  0
H  H54  1  0.09217162  0.88929238  0.96071076  1  0  0.107768  0  0.96749  0  0  0.124057  0  1.037288  0  0  0.126524  0  1.035696  0  0.018696  0  0.087192  0.122232  0  1.038491  0
H  H55  1  0.94231794  0.61070444  0.53928987  1  0  0.106426  0  0.967913  0  0  0.123009  0  1.037394  0  0  0.125489  0  1.035784  0  0.05493  0  0.086637  0.121182  0  1.038597  0
H  H56  1  0.68641433  0.53103973  0.77469080  1  0  0.111594  0  0.951027  0  0  0.131799  0  1.013413  0  0  0.133731  0  1.012297  0  0.041275  0  0.090967  0.130417  0  1.014206  0
H  H57  1  0.99243512  0.96887909  0.72527132  1  0  0.111347  0  0.951506  0  0  0.131636  0  1.013824  0  0  0.133601  0  1.012695  0  0.043175  0  0.091421  0.130217  0  1.01464  0
H  H58  1  0.31358457  0.46895966  0.22530906  1  0  0.111617  0  0.950995  0  0  0.131821  0  1.013376  0  0  0.133753  0  1.012261  0  0.041263  0  0.090975  0.130438  0  1.014172  0
H  H59  1  0.00756711  0.03111940  0.27472827  1  0  0.111381  0  0.951528  0  0  0.131647  0  1.013865  0  0  0.133614  0  1.012734  0  0.043195  0  0.091422  0.130228  0  1.014681  0
H  H60  1  0.54430217  0.44590742  0.76809612  1  0  0.136965  0  0.935488  0  0  0.159579  0  0.988357  0  0  0.160581  0  0.989652  0  0.072404  0  0.101558  0.158845  0  0.987482  0
H  H61  1  0.75849252  0.05397572  0.73191228  1  0  0.136817  0  0.935566  0  0  0.159545  0  0.988451  0  0  0.160574  0  0.989736  0  0.085665  0  0.101018  0.158785  0  0.987605  0
H  H62  1  0.45569686  0.55409288  0.23190443  1  0  0.136959  0  0.9355  0  0  0.159573  0  0.988373  0  0  0.160574  0  0.989668  0  0.072411  0  0.10156  0.158839  0  0.987497  0
H  H63  1  0.24150856  0.94602276  0.26808717  1  0  0.136833  0  0.935532  0  0  0.159568  0  0.98841  0  0  0.160597  0  0.989694  0  0.085666  0  0.10102  0.158807  0  0.987565  0
H  H64  1  0.76052062  0.41989371  0.70196888  1  0  0.121221  0  0.9663  0  0  0.136496  0  1.035832  0  0  0.137663  0  1.036865  0  0.099522  0  0.093938  0.13563  0  1.035187  0
H  H65  1  0.88263218  0.08004385  0.79802752  1  0  0.121098  0  0.965227  0  0  0.136853  0  1.034324  0  0  0.138003  0  1.035357  0  0.071328  0  0.094527  0.135997  0  1.033688  0
H  H66  1  0.23947884  0.58010568  0.29803172  1  0  0.121228  0  0.966263  0  0  0.136498  0  1.035802  0  0  0.137665  0  1.036837  0  0.099965  0  0.093931  0.135632  0  1.035157  0
H  H67  1  0.11736803  0.91995644  0.20197185  1  0  0.121092  0  0.965231  0  0  0.136849  0  1.034325  0  0  0.138  0  1.035357  0  0.071318  0  0.09452  0.135993  0  1.033688  0
C  C68  1  0.26406631  0.25002910  0.74999897  1  0  -0.258692  0  3.609647  0  0  -0.317763  0  3.874003  0  0  -0.319956  0  3.881181  0  -0.020303  0  -0.161413  -0.316179  0  3.869195  0
C  C69  1  0.73593490  0.74997029  0.25000118  1  0  -0.258684  0  3.609605  0  0  -0.317709  0  3.873952  0  0  -0.319897  0  3.881128  0  -0.02027  0  -0.161373  -0.316121  0  3.869163  0
C  C70  1  0.09064294  0.35201136  0.78216245  1  0  0.223544  0  3.604662  0  0  0.169282  0  3.861289  0  0  0.178773  0  3.872864  0  0.69381  0  0.136416  0.16294  0  3.853562  0
C  C71  1  0.22496445  0.14795432  0.71782085  1  0  0.223646  0  3.603518  0  0  0.170625  0  3.859135  0  0  0.180074  0  3.870652  0  0.682011  0  0.137447  0.164322  0  3.851461  0
C  C72  1  0.90935727  0.64798894  0.21783692  1  0  0.223624  0  3.604606  0  0  0.169321  0  3.861299  0  0  0.178805  0  3.872875  0  0.693788  0  0.136469  0.162973  0  3.853567  0
C  C73  1  0.77503415  0.85204688  0.28217966  1  0  0.223685  0  3.603608  0  0  0.170664  0  3.8592  0  0  0.180109  0  3.870714  0  0.681666  0  0.13745  0.164353  0  3.85152  0
C  C74  1  0.10342529  0.55752872  0.80612928  1  0  0.239606  0  3.727549  0  0  0.226973  0  3.998356  0  0  0.237851  0  4.016944  0  0.341623  0  0.098612  0.219947  0  3.985502  0
C  C75  1  0.46720794  0.94247173  0.69381212  1  0  0.242525  0  3.723634  0  0  0.229041  0  3.995639  0  0  0.239893  0  4.014258  0  0.323237  0  0.101459  0.222034  0  3.982776  0
C  C76  1  0.89657652  0.44247067  0.19387027  1  0  0.239691  0  3.727428  0  0  0.227058  0  3.998237  0  0  0.237938  0  4.016822  0  0.341644  0  0.098642  0.220029  0  3.985388  0
C  C77  1  0.53279181  0.05752948  0.30618853  1  0  0.242583  0  3.723515  0  0  0.229066  0  3.995553  0  0  0.239918  0  4.014173  0  0.322929  0  0.101458  0.222059  0  3.982689  0
C  C78  1  0.21072368  0.49525002  0.92185261  1  0  0.278057  0  3.785377  0  0  0.281193  0  4.045585  0  0  0.291404  0  4.063558  0  0.47637  0  0.100488  0.274537  0  4.033134  0
C  C79  1  0.62791689  0.00489616  0.57815336  1  0  0.277705  0  3.785247  0  0  0.281314  0  4.045024  0  0  0.291508  0  4.063043  0  0.473532  0  0.101394  0.27467  0  4.03253  0
C  C80  1  0.78927710  0.50475028  0.07814749  1  0  0.278071  0  3.785359  0  0  0.281185  0  4.04558  0  0  0.291395  0  4.063552  0  0.476364  0  0.100496  0.27453  0  4.033128  0
C  C81  1  0.37207924  0.99510413  0.42184750  1  0  0.277739  0  3.785149  0  0  0.281271  0  4.045008  0  0  0.291466  0  4.063026  0  0.473715  0  0.101397  0.274627  0  4.032514  0
C  C82  1  0.40191696  0.03247450  0.10489920  1  0  0.286242  0  3.998776  0  0  0.275791  0  4.285216  0  0  0.294148  0  4.302962  0  0.576645  0  0.143485  0.263218  0  4.272988  0
C  C83  1  0.53961622  0.46759549  0.39509419  1  0  0.287429  0  3.995278  0  0  0.276961  0  4.281649  0  0  0.295273  0  4.299397  0  0.588692  0  0.143646  0.264422  0  4.269433  0
C  C84  1  0.59808383  0.96752579  0.89510090  1  0  0.286223  0  3.998794  0  0  0.275773  0  4.285236  0  0  0.294131  0  4.302982  0  0.576656  0  0.143485  0.2632  0  4.273007  0
C  C85  1  0.46038026  0.53240662  0.60490407  1  0  0.287434  0  3.995342  0  0  0.276965  0  4.281711  0  0  0.295277  0  4.299455  0  0.588773  0  0.143654  0.264426  0  4.269495  0
C  C86  1  0.26770796  0.48849625  0.00063856  1  0  -0.359198  0  3.712589  0  0  -0.43445  0  3.946289  0  0  -0.438269  0  3.953624  0  -0.053022  0  -0.241532  -0.431616  0  3.941138  0
C  C87  1  0.75676323  0.01172794  0.49934123  1  0  -0.358734  0  3.711869  0  0  -0.43466  0  3.945958  0  0  -0.438498  0  3.953155  0  -0.037044  0  -0.24246  -0.431795  0  3.940902  0
C  C88  1  0.73229282  0.51150405  0.99936154  1  0  -0.35918  0  3.712627  0  0  -0.434433  0  3.946308  0  0  -0.438251  0  3.953642  0  -0.053033  0  -0.241514  -0.431599  0  3.941159  0
C  C89  1  0.24323567  0.98827145  0.50065863  1  0  -0.358763  0  3.711809  0  0  -0.434646  0  3.945924  0  0  -0.438483  0  3.953121  0  -0.037069  0  -0.242468  -0.431782  0  3.940868  0
C  C90  1  0.67972870  0.28356120  0.88979270  1  0  -0.319878  0  3.698578  0  0  -0.340192  0  3.947793  0  0  -0.352047  0  3.967326  0  -0.011528  0  -0.119339  -0.332411  0  3.934638  0
C  C91  1  0.85300955  0.21646525  0.61022264  1  0  -0.319518  0  3.701083  0  0  -0.340282  0  3.949462  0  0  -0.352138  0  3.969048  0  -0.020956  0  -0.120266  -0.332501  0  3.936304  0
C  C92  1  0.32027408  0.71643728  0.11020895  1  0  -0.319947  0  3.698647  0  0  -0.34026  0  3.947901  0  0  -0.352113  0  3.967432  0  -0.01129  0  -0.119367  -0.332479  0  3.934745  0
C  C93  1  0.14699154  0.78353323  0.38977681  1  0  -0.319458  0  3.700913  0  0  -0.340223  0  3.9493  0  0  -0.35208  0  3.968885  0  -0.020961  0  -0.120214  -0.332428  0  3.936155  0
C  C94  1  0.81608437  0.21052055  0.93272083  1  0  0.274024  0  3.779013  0  0  0.276701  0  4.038837  0  0  0.286616  0  4.05733  0  0.452923  0  0.098402  0.270207  0  4.026067  0
C  C95  1  0.95927619  0.28946417  0.56728846  1  0  0.274075  0  3.780638  0  0  0.277115  0  4.03973  0  0  0.287019  0  4.058234  0  0.453057  0  0.098346  0.270631  0  4.026941  0
C  C96  1  0.18391843  0.78947793  0.06727950  1  0  0.274012  0  3.779021  0  0  0.276693  0  4.03884  0  0  0.286609  0  4.057332  0  0.452699  0  0.098404  0.270199  0  4.02607  0
C  C97  1  0.04072271  0.71053521  0.43271140  1  0  0.27409  0  3.780647  0  0  0.277073  0  4.039821  0  0  0.286977  0  4.058326  0  0.453075  0  0.098296  0.270591  0  4.027031  0
C  C98  1  0.15478340  0.59748171  0.86758704  1  0  -0.327543  0  3.704556  0  0  -0.351915  0  3.955947  0  0  -0.36281  0  3.974344  0  -0.011602  0  -0.123381  -0.344857  0  3.943596  0
C  C99  1  0.61993944  0.90260490  0.63234204  1  0  -0.330178  0  3.706591  0  0  -0.354484  0  3.958213  0  0  -0.365369  0  3.976637  0  0.012975  0  -0.124822  -0.34743  0  3.945829  0
C  C100  1  0.84521507  0.40251859  0.13241277  1  0  -0.327498  0  3.704556  0  0  -0.351858  0  3.955957  0  0  -0.362755  0  3.974356  0  -0.011607  0  -0.123355  -0.3448  0  3.943604  0
C  C101  1  0.38005742  0.09739630  0.36765891  1  0  -0.330146  0  3.706495  0  0  -0.354438  0  3.958135  0  0  -0.365324  0  3.976559  0  0.013092  0  -0.124814  -0.347386  0  3.945752  0
C  C102  1  0.02884534  0.62412127  0.73366673  1  0  -0.364572  0  3.751626  0  0  -0.446148  0  3.992885  0  0  -0.449292  0  4.000082  0  -0.043417  0  -0.237014  -0.443739  0  3.98777  0
C  C103  1  0.38702273  0.87578938  0.76626965  1  0  -0.363504  0  3.748125  0  0  -0.445266  0  3.989816  0  0  -0.448433  0  3.997058  0  -0.071284  0  -0.236786  -0.44289  0  3.984669  0
C  C104  1  0.97115544  0.37587903  0.26633337  1  0  -0.364688  0  3.751654  0  0  -0.446268  0  3.992906  0  0  -0.449412  0  4.000102  0  -0.04342  0  -0.237045  -0.443859  0  3.987793  0
C  C105  1  0.61297630  0.12421092  0.23373090  1  0  -0.363592  0  3.74813  0  0  -0.445323  0  3.989824  0  0  -0.448491  0  3.997066  0  -0.071292  0  -0.236808  -0.442945  0  3.984679  0
C  C106  1  0.76462685  0.34723855  0.82688726  1  0  0.239024  0  3.725528  0  0  0.227863  0  3.991876  0  0  0.239409  0  4.009122  0  0.326061  0  0.099086  0.220369  0  3.979921  0
C  C107  1  0.93876103  0.15275616  0.67312930  1  0  0.237907  0  3.726622  0  0  0.227048  0  3.992894  0  0  0.238542  0  4.010199  0  0.358524  0  0.098925  0.219588  0  3.9809  0
C  C108  1  0.23537377  0.65276084  0.17311348  1  0  0.239064  0  3.725648  0  0  0.227948  0  3.991914  0  0  0.239495  0  4.00916  0  0.326034  0  0.099116  0.220455  0  3.979958  0
C  C109  1  0.06124092  0.84724051  0.32687023  1  0  0.237876  0  3.726566  0  0  0.227053  0  3.992781  0  0  0.238547  0  4.010084  0  0.35855  0  0.098941  0.219591  0  3.980788  0
C  C110  1  0.79466474  0.12850753  0.00734998  1  0  -0.354322  0  3.713899  0  0  -0.427649  0  3.942139  0  0  -0.431517  0  3.949498  0  -0.006677  0  -0.23981  -0.424679  0  3.937035  0
C  C111  1  0.93043933  0.37148173  0.49265660  1  0  -0.352864  0  3.711753  0  0  -0.426943  0  3.939708  0  0  -0.430787  0  3.947038  0  -0.073046  0  -0.239034  -0.423973  0  3.934656  0
C  C112  1  0.20533765  0.87149186  0.99264898  1  0  -0.354292  0  3.713777  0  0  -0.427637  0  3.942004  0  0  -0.431505  0  3.949367  0  -0.006627  0  -0.2398  -0.424671  0  3.936895  0
C  C113  1  0.06956072  0.62851766  0.50734340  1  0  -0.352921  0  3.711785  0  0  -0.427008  0  3.939762  0  0  -0.43085  0  3.947091  0  -0.073062  0  -0.239058  -0.424042  0  3.934708  0
C  C114  1  0.68663410  0.44050785  0.76454214  1  0  -0.363941  0  3.738298  0  0  -0.441884  0  3.97849  0  0  -0.445268  0  3.985974  0  -0.060111  0  -0.237791  -0.439353  0  3.973211  0
C  C115  1  0.89189813  0.05937257  0.73545413  1  0  -0.362257  0  3.737127  0  0  -0.440832  0  3.976949  0  0  -0.444253  0  3.984443  0  -0.062971  0  -0.237377  -0.438272  0  3.971685  0
C  C116  1  0.31336537  0.55949154  0.23545845  1  0  -0.36398  0  3.738255  0  0  -0.441946  0  3.978466  0  0  -0.445332  0  3.985952  0  -0.060574  0  -0.23781  -0.439415  0  3.973186  0
C  C117  1  0.10810193  0.94062682  0.26454587  1  0  -0.36229  0  3.737135  0  0  -0.440863  0  3.976933  0  0  -0.444283  0  3.984427  0  -0.062977  0  -0.237383  -0.438301  0  3.97167  0
S  S118  1  0.23353695  0.16134485  0.10824082  1  0  -0.378761  0  2.34165  0  0  -0.33489  0  2.711267  0  0  -0.351966  0  2.701101  0  0.037554  0  -0.175983  -0.322987  0  2.717942  0
S  S119  1  0.50341073  0.33876142  0.39166922  1  0  -0.380051  0  2.341744  0  0  -0.336205  0  2.711602  0  0  -0.353243  0  2.701395  0  0.019822  0  -0.176413  -0.324352  0  2.718323  0
S  S120  1  0.76646311  0.83865454  0.89175918  1  0  -0.378769  0  2.34166  0  0  -0.334898  0  2.711284  0  0  -0.351973  0  2.701115  0  0.037546  0  -0.175989  -0.322996  0  2.717958  0
S  S121  1  0.49658846  0.66123978  0.60833069  1  0  -0.38006  0  2.341726  0  0  -0.33622  0  2.711587  0  0  -0.353256  0  2.701378  0  0.019837  0  -0.176431  -0.324366  0  2.718308  0
N  N122  1  0.97861536  0.22574238  0.89746884  1  0  -0.320556  0  3.045321  0  0  -0.28698  0  3.343724  0  0  -0.298416  0  3.354959  0  -0.724368  0  -0.260438  -0.279251  0  3.336111  0
N  N123  1  0.10184501  0.27419155  0.60253025  1  0  -0.320868  0  3.043976  0  0  -0.287214  0  3.342028  0  0  -0.298681  0  3.353265  0  -0.711684  0  -0.259579  -0.27946  0  3.334417  0
N  N124  1  0.02138908  0.77425882  0.10252973  1  0  -0.320538  0  3.045365  0  0  -0.286965  0  3.343764  0  0  -0.298402  0  3.355  0  -0.724332  0  -0.260426  -0.279235  0  3.336149  0
N  N125  1  0.89815286  0.72580874  0.39747015  1  0  -0.320889  0  3.044058  0  0  -0.287193  0  3.342107  0  0  -0.298661  0  3.353345  0  -0.711733  0  -0.25957  -0.27944  0  3.334495  0
N  N126  1  0.13319129  0.43574230  0.82443750  1  0  -0.050624  0  3.495807  0  0  0.027768  0  3.720259  0  0  0.01463  0  3.74643  0  -0.78701  0  -0.150744  0.036354  0  3.702612  0
N  N127  1  0.39345563  0.06425876  0.67553642  1  0  -0.051594  0  3.497093  0  0  0.0271  0  3.721747  0  0  0.013969  0  3.747923  0  -0.789495  0  -0.15153  0.035687  0  3.70408  0
N  N128  1  0.86680906  0.56425890  0.17556255  1  0  -0.050646  0  3.495833  0  0  0.027731  0  3.720329  0  0  0.014595  0  3.746499  0  -0.787013  0  -0.150764  0.03632  0  3.702683  0
N  N129  1  0.60654241  0.93574245  0.32446335  1  0  -0.051671  0  3.497095  0  0  0.027029  0  3.721744  0  0  0.013898  0  3.747919  0  -0.789487  0  -0.151518  0.035621  0  3.704076  0
N  N130  1  0.94532225  0.30934997  0.83296253  1  0  -0.068902  0  3.519451  0  0  0.007478  0  3.74889  0  0  -0.005261  0  3.774372  0  -0.811106  0  -0.158805  0.015799  0  3.731713  0
N  N131  1  0.08774398  0.19055676  0.66700677  1  0  -0.067408  0  3.520377  0  0  0.008157  0  3.750097  0  0  -0.004483  0  3.775431  0  -0.831883  0  -0.159403  0.016411  0  3.733023  0
N  N132  1  0.05467912  0.69065033  0.16703697  1  0  -0.068909  0  3.519413  0  0  0.007474  0  3.748852  0  0  -0.005262  0  3.774334  0  -0.811079  0  -0.158808  0.015794  0  3.731676  0
N  N133  1  0.91225608  0.80944263  0.33299323  1  0  -0.067444  0  3.520582  0  0  0.0081  0  3.750292  0  0  -0.004537  0  3.775624  0  -0.831484  0  -0.159404  0.016356  0  3.733219  0
N  N134  1  0.19943385  0.39668183  0.89455873  1  0  -0.319217  0  3.070018  0  0  -0.28234  0  3.360308  0  0  -0.294128  0  3.372052  0  -0.708289  0  -0.256733  -0.274328  0  3.352261  0
N  N135  1  0.49061780  0.10338816  0.60543547  1  0  -0.318539  0  3.070623  0  0  -0.2822  0  3.361267  0  0  -0.293971  0  3.373015  0  -0.72073  0  -0.257045  -0.27421  0  3.353235  0
N  N136  1  0.80056693  0.60331847  0.10544137  1  0  -0.319267  0  3.070086  0  0  -0.282351  0  3.360343  0  0  -0.294142  0  3.372092  0  -0.708298  0  -0.256764  -0.274341  0  3.352296  0
N  N137  1  0.50937892  0.89661214  0.39456479  1  0  -0.318561  0  3.070501  0  0  -0.28216  0  3.361121  0  0  -0.293935  0  3.372871  0  -0.720755  0  -0.257067  -0.274171  0  3.353087  0
N  N138  1  0.52331968  0.93994382  0.10552583  1  0  -0.513152  0  2.902703  0  0  -0.457813  0  3.18914  0  0  -0.475291  0  3.194296  0  -1.26196  0  -0.397173  -0.445985  0  3.185663  0
N  N139  1  0.56899622  0.56018723  0.39441108  1  0  -0.512968  0  2.898419  0  0  -0.457623  0  3.18478  0  0  -0.475069  0  3.189914  0  -1.255207  0  -0.39666  -0.445794  0  3.181268  0
N  N140  1  0.47668067  0.06005738  0.89447422  1  0  -0.513124  0  2.902707  0  0  -0.457787  0  3.189151  0  0  -0.475266  0  3.194307  0  -1.261998  0  -0.397161  -0.445961  0  3.185675  0
N  N141  1  0.43100413  0.43981397  0.60558898  1  0  -0.512963  0  2.89853  0  0  -0.457609  0  3.184868  0  0  -0.47506  0  3.190009  0  -1.255316  0  -0.396649  -0.445782  0  3.181357  0
