# generated using pymatgen
data_Zn2H24C41S2N2(O4F3)2
_symmetry_space_group_name_H-M   'P 1'
_cell_length_a   10.93287351
_cell_length_b   10.98564495
_cell_length_c   20.20946069
_cell_angle_alpha   103.82381490
_cell_angle_beta   92.78033153
_cell_angle_gamma   107.81197267
_symmetry_Int_Tables_number   1
_chemical_formula_structural   Zn2H24C41S2N2(O4F3)2
_chemical_formula_sum   'Zn4 H48 C82 S4 N4 O16 F12'
_cell_volume   2224.47171566
_cell_formula_units_Z   2
loop_
 _symmetry_equiv_pos_site_id
 _symmetry_equiv_pos_as_xyz
  1  'x, y, z'
loop_
 _atom_site_type_symbol
 _atom_site_label
 _atom_site_symmetry_multiplicity
 _atom_site_fract_x
 _atom_site_fract_y
 _atom_site_fract_z
 _atom_site_occupancy
 _atom_site_pbe_bader_charge
 _atom_site_pbe_bader_spin_density
 _atom_site_pbe_cm5_charge
 _atom_site_pbe_ddec_charge
 _atom_site_pbe_ddec_spin_density
 _atom_site_pbe_ddec_sum_bond_order
 _atom_site_pbe_magmom
Zn  Zn0  1  0.31465464  0.92293479  0.07713142  1  1.304674  0  0.684898  0.84686  0  2.361211  0
Zn  Zn1  1  0.68534130  0.07706115  0.92286962  1  1.304704  0  0.684861  0.8468  0  2.361234  0
Zn  Zn2  1  0.34561148  0.99422173  0.22786590  1  1.297426  0  0.676389  0.843694  0  2.383126  0
Zn  Zn3  1  0.65437621  0.00577710  0.77213628  1  1.29742  0  0.67637  0.843622  0  2.383237  0
H  H4  1  0.92670699  0.90290331  0.04228530  1  0.088292  0  0.103681  0.107693  0  1.01051  0
H  H5  1  0.07329083  0.09710747  0.95772317  1  0.087996  0  0.103651  0.107694  0  1.010476  0
H  H6  1  0.60625149  0.37934539  0.42821166  1  0.08652  0  0.095075  0.105199  0  1.044032  0
H  H7  1  0.39376283  0.62065072  0.57178643  1  0.086343  0  0.095114  0.105219  0  1.044117  0
H  H8  1  0.87632392  0.12827487  0.45673018  1  0.090411  0  0.108394  0.131784  0  0.997287  0
H  H9  1  0.12368339  0.87173106  0.54327246  1  0.090351  0  0.108359  0.131801  0  0.997151  0
H  H10  1  0.46358932  0.89691444  0.32841664  1  0.153716  0  0.122839  0.101112  0  0.996878  0
H  H11  1  0.53641304  0.10308155  0.67158656  1  0.153793  0  0.122836  0.1011  0  0.996759  0
H  H12  1  0.44939660  0.82783764  0.96026099  1  0.194927  0  0.122688  0.105275  0  1.015993  0
H  H13  1  0.55060732  0.17216627  0.03974427  1  0.195031  0  0.122679  0.105306  0  1.015995  0
H  H14  1  0.70323979  0.91768085  0.03598035  1  0.101157  0  0.103168  0.109495  0  1.040732  0
H  H15  1  0.29675524  0.08232396  0.96402825  1  0.10092  0  0.103139  0.109436  0  1.040674  0
H  H16  1  0.38765418  0.64514202  0.85250435  1  0.097376  0  0.108832  0.118066  0  1.01449  0
H  H17  1  0.61235498  0.35486986  0.14750060  1  0.097619  0  0.108846  0.118088  0  1.014361  0
H  H18  1  0.99739451  0.63776134  0.61815854  1  0.053499  0  0.093669  0.14661  0  0.994793  0
H  H19  1  0.00259259  0.36224145  0.38183968  1  0.05359  0  0.093713  0.14671  0  0.994687  0
H  H20  1  0.12893300  0.57428230  0.61641507  1  0.060478  0  0.092653  0.137478  0  1.01003  0
H  H21  1  0.87107925  0.42573358  0.38358504  1  0.0606  0  0.092644  0.137502  0  1.010094  0
H  H22  1  0.01564906  0.54119591  0.67470616  1  0.07292  0  0.097361  0.144968  0  1.009136  0
H  H23  1  0.98434261  0.45880098  0.32529241  1  0.072311  0  0.097381  0.145034  0  1.009045  0
H  H24  1  0.30033960  0.53942499  0.73507389  1  0.090846  0  0.108859  0.132929  0  0.999539  0
H  H25  1  0.69966649  0.46057995  0.26492414  1  0.090993  0  0.108858  0.132951  0  0.999431  0
H  H26  1  0.98578675  0.59001392  0.88119136  1  0.104931  0  0.104433  0.113603  0  1.024464  0
H  H27  1  0.01421981  0.41002470  0.11879425  1  0.105003  0  0.104473  0.113732  0  1.024472  0
H  H28  1  0.65007400  0.99846075  0.42238796  1  0.104539  0  0.099143  0.111784  0  1.043348  0
H  H29  1  0.34992866  0.00153031  0.57761262  1  0.104677  0  0.099166  0.111742  0  1.04342  0
H  H30  1  0.72934184  0.00685935  0.25615187  1  0.07082  0  0.097334  0.102933  0  1.018672  0
H  H31  1  0.27064456  0.99312659  0.74385552  1  0.070979  0  0.097348  0.102959  0  1.018597  0
H  H32  1  0.29977328  0.53125474  0.05265527  1  0.106645  0  0.106227  0.115679  0  0.995215  0
H  H33  1  0.70021195  0.46873617  0.94733839  1  0.106544  0  0.106217  0.115707  0  0.995299  0
H  H34  1  0.95412066  0.99027358  0.26233416  1  0.089277  0  0.099935  0.107082  0  1.006266  0
H  H35  1  0.04587188  0.00971737  0.73767356  1  0.085674  0  0.099994  0.107189  0  1.006349  0
H  H36  1  0.32181895  0.30731404  0.04480297  1  0.100979  0  0.106096  0.111872  0  1.009124  0
H  H37  1  0.67817395  0.69267794  0.95518757  1  0.101167  0  0.106016  0.111783  0  1.009113  0
H  H38  1  0.42037903  0.26065220  0.33547501  1  0.116179  0  0.121175  0.097453  0  0.989779  0
H  H39  1  0.57962486  0.73934281  0.66452810  1  0.116123  0  0.121273  0.097591  0  0.989808  0
H  H40  1  0.06558535  0.77382355  0.98897440  1  0.130725  0  0.121641  0.097988  0  1.006406  0
H  H41  1  0.93441566  0.22620610  0.01101533  1  0.131275  0  0.121549  0.097982  0  1.006429  0
H  H42  1  0.33574188  0.61425887  0.27258010  1  0.089251  0  0.097537  0.100742  0  1.018101  0
H  H43  1  0.66424735  0.38573604  0.72741271  1  0.089094  0  0.097509  0.100767  0  1.018189  0
H  H44  1  0.84971432  0.12057912  0.69118813  1  0.109262  0  0.096891  0.155051  0  1.032059  0
H  H45  1  0.15029817  0.87942290  0.30881612  1  0.109028  0  0.096885  0.155065  0  1.032092  0
H  H46  1  0.94983618  0.10804413  0.62483430  1  0.042437  0  0.088444  0.137148  0  1.005316  0
H  H47  1  0.05017509  0.89195986  0.37516968  1  0.042497  0  0.088444  0.137137  0  1.005305  0
H  H48  1  0.83998469  0.19745191  0.62391411  1  0.037782  0  0.089751  0.134635  0  1.007798  0
H  H49  1  0.16001553  0.80254307  0.37608840  1  0.037699  0  0.089741  0.134597  0  1.007811  0
H  H50  1  0.35783374  0.39093067  0.26491969  1  0.07502  0  0.0976  0.101129  0  1.0202  0
H  H51  1  0.64216928  0.60907030  0.73507576  1  0.074923  0  0.097586  0.101062  0  1.020233  0
C  C52  1  0.56953787  0.97209466  0.14275248  1  1.557056  0  0.213366  0.586506  0  4.180647  0
C  C53  1  0.43045587  0.02788543  0.85724890  1  1.557657  0  0.213322  0.586334  0  4.180526  0
C  C54  1  0.35318805  0.20200638  0.15102064  1  1.562563  0  0.212824  0.582527  0  4.186716  0
C  C55  1  0.64681005  0.79798761  0.84897525  1  1.5622  0  0.212796  0.5826  0  4.186505  0
C  C56  1  0.34206434  0.33622606  0.15452428  1  -0.053984  0  -0.019163  -0.035666  0  3.974717  0
C  C57  1  0.65793440  0.66377290  0.84546634  1  -0.054192  0  -0.019179  -0.035877  0  3.974903  0
C  C58  1  0.30811114  0.72096429  0.16710875  1  1.570152  0  0.203969  0.572491  0  4.213689  0
C  C59  1  0.69187716  0.27902764  0.83288463  1  1.565859  0  0.204035  0.572454  0  4.213639  0
C  C60  1  0.12997400  0.36360116  0.68313871  1  0.016143  0  -0.035123  -0.001848  0  4.068826  0
C  C61  1  0.87003145  0.63639883  0.31686064  1  0.016097  0  -0.035128  -0.001841  0  4.068737  0
C  C62  1  0.30484538  0.26849503  0.52942013  1  1.164686  0  0.190756  0.251221  0  3.990656  0
C  C63  1  0.69516288  0.73151982  0.47058370  1  1.16451  0  0.190707  0.251067  0  3.990808  0
C  C64  1  0.88247184  0.92453796  0.08891514  1  -0.08239  0  -0.085618  -0.09495  0  3.97276  0
C  C65  1  0.11751578  0.07544898  0.91109143  1  -0.082181  0  -0.08561  -0.095049  0  3.972686  0
C  C66  1  0.57776517  0.27196585  0.40842075  1  0.003822  0  -0.09356  -0.189005  0  3.957699  0
C  C67  1  0.42223872  0.72802621  0.59157802  1  0.003976  0  -0.093643  -0.188928  0  3.957815  0
C  C68  1  0.87162609  0.22224326  0.48758613  1  0.069377  0  -0.095917  -0.182356  0  3.965334  0
C  C69  1  0.12839009  0.77776176  0.51241465  1  0.06954  0  -0.096073  -0.182703  0  3.965253  0
C  C70  1  0.49810558  0.00325270  0.35312784  1  0.462974  0  0.054362  0.111057  0  3.918795  0
C  C71  1  0.50190105  0.99673344  0.64687221  1  0.462898  0  0.054281  0.111061  0  3.918601  0
C  C72  1  0.08808042  0.93885345  0.15560996  1  1.567737  0  0.213048  0.583485  0  4.188799  0
C  C73  1  0.91190875  0.06113845  0.84439878  1  1.567445  0  0.212777  0.583147  0  4.189122  0
C  C74  1  0.97485738  0.31519096  0.53801462  1  -0.012329  0  -0.030542  0.005706  0  4.053903  0
C  C75  1  0.02515517  0.68482295  0.46198426  1  -0.011933  0  -0.030472  0.005825  0  4.053958  0
C  C76  1  0.18069079  0.60068716  0.85732749  1  -0.016763  0  0.010034  0.127434  0  4.041058  0
C  C77  1  0.81932575  0.39932777  0.14267163  1  -0.017138  0  0.010116  0.127548  0  4.041099  0
C  C78  1  0.31634141  0.58554316  0.16301496  1  0.012433  0  -0.017947  -0.031853  0  3.975012  0
C  C79  1  0.68364077  0.41445266  0.83698074  1  0.012725  0  -0.017961  -0.031679  0  3.97495  0
C  C80  1  0.16110677  0.22935112  0.49727201  1  1.108622  0  0.191172  0.352397  0  3.992726  0
C  C81  1  0.83890177  0.77065878  0.50273020  1  1.108655  0  0.191199  0.352393  0  3.992638  0
C  C82  1  0.14011035  0.49271068  0.79466225  1  -0.182064  0  -0.019494  -0.038736  0  4.050785  0
C  C83  1  0.85989914  0.50730221  0.20533592  1  -0.181997  0  -0.019549  -0.038683  0  4.050834  0
C  C84  1  0.34794168  0.77310608  0.94062136  1  0.463666  0  0.054401  0.109068  0  3.908747  0
C  C85  1  0.65206382  0.22690874  0.05938141  1  0.463352  0  0.054413  0.109  0  3.908725  0
C  C86  1  0.75839195  0.93365299  0.08542592  1  0.001494  0  -0.085798  -0.097382  0  3.971727  0
C  C87  1  0.24160245  0.06634095  0.91457729  1  0.001266  0  -0.0857  -0.097135  0  3.971477  0
C  C88  1  0.16983428  0.32591995  0.61578976  1  0.028603  0  -0.007134  -0.065695  0  3.94328  0
C  C89  1  0.83016259  0.67407600  0.38420834  1  0.028642  0  -0.007038  -0.065342  0  3.942992  0
C  C90  1  0.31258150  0.67140351  0.88035093  1  -0.065595  0  -0.079596  -0.162126  0  3.903011  0
C  C91  1  0.68743137  0.32861435  0.11965045  1  -0.065175  0  -0.079618  -0.162091  0  3.902773  0
C  C92  1  0.02579226  0.55220459  0.62237175  1  -0.022478  0  -0.239153  -0.407918  0  3.964417  0
C  C93  1  0.97421354  0.44780826  0.37762928  1  -0.021895  0  -0.239261  -0.408208  0  3.96439  0
C  C94  1  0.95307575  0.94476159  0.15266660  1  -0.015041  0  -0.018945  -0.034165  0  3.980796  0
C  C95  1  0.04691154  0.05521842  0.84734103  1  -0.014114  0  -0.018857  -0.034076  0  3.981012  0
C  C96  1  0.64804417  0.19931439  0.43210762  1  0.052304  0  0.008102  0.126878  0  4.034133  0
C  C97  1  0.35195819  0.80067567  0.56789183  1  0.052152  0  0.008061  0.126704  0  4.033939  0
C  C98  1  0.20526732  0.47299509  0.73836443  1  0.013928  0  -0.099733  -0.188012  0  3.983851  0
C  C99  1  0.79473663  0.52701181  0.26163528  1  0.013941  0  -0.099783  -0.188187  0  3.983699  0
C  C100  1  0.70377813  0.96408304  0.14595463  1  -0.038885  0  -0.01595  -0.024407  0  3.95732  0
C  C101  1  0.29620518  0.03589002  0.85404605  1  -0.037951  0  -0.016005  -0.024592  0  3.957236  0
C  C102  1  0.08966591  0.63915048  0.89687594  1  0.013608  0  -0.086955  -0.183685  0  3.942758  0
C  C103  1  0.91034122  0.36087824  0.10311284  1  0.013756  0  -0.087072  -0.184129  0  3.943086  0
C  C104  1  0.09763630  0.29473442  0.55311892  1  -0.044021  0  -0.011007  -0.083113  0  3.954733  0
C  C105  1  0.90236489  0.70526653  0.44687697  1  -0.044007  0  -0.011137  -0.083372  0  3.955005  0
C  C106  1  0.60298246  0.06086621  0.40451546  1  -0.019701  0  -0.085392  -0.172707  0  3.924447  0
C  C107  1  0.39702204  0.93912781  0.59548902  1  -0.019509  0  -0.085387  -0.172632  0  3.924176  0
C  C108  1  0.77407427  0.98411071  0.20978708  1  -0.026776  0  -0.088729  -0.096204  0  3.97979  0
C  C109  1  0.22591705  0.01587924  0.79021651  1  -0.027484  0  -0.088801  -0.096248  0  3.979558  0
C  C110  1  0.31211501  0.49895729  0.09876216  1  -0.067346  0  -0.083628  -0.090717  0  3.960649  0
C  C111  1  0.68787516  0.50104355  0.90123244  1  -0.068199  0  -0.083676  -0.090949  0  3.961017  0
C  C112  1  0.89795783  0.97441328  0.21316842  1  -0.045  0  -0.089329  -0.099405  0  3.989054  0
C  C113  1  0.10201901  0.02555377  0.78683724  1  -0.042121  0  -0.089376  -0.099448  0  3.989241  0
C  C114  1  0.32481925  0.37511583  0.09446268  1  -0.063951  0  -0.084226  -0.096285  0  3.970128  0
C  C115  1  0.67517490  0.62488309  0.90552731  1  -0.063346  0  -0.084081  -0.096002  0  3.969972  0
C  C116  1  0.29849000  0.30483221  0.60837126  1  1.073084  0  0.192114  0.352666  0  3.991941  0
C  C117  1  0.70150751  0.69517165  0.39163036  1  1.07312  0  0.192078  0.352598  0  3.991803  0
C  C118  1  0.00906394  0.29655884  0.69948912  1  -0.153738  0  0.004883  0.072925  0  3.894949  0
C  C119  1  0.99094027  0.70344014  0.30051500  1  -0.153539  0  0.004862  0.072831  0  3.895146  0
C  C120  1  0.76586310  0.26412842  0.48089968  1  -0.260332  0  -0.021485  -0.034233  0  4.043858  0
C  C121  1  0.23414382  0.73585575  0.51909962  1  -0.260705  0  -0.021291  -0.033924  0  4.043417  0
C  C122  1  0.94602566  0.42964276  0.56935933  1  -0.169287  0  0.004127  0.070283  0  3.903945  0
C  C123  1  0.05397703  0.57036015  0.43064725  1  -0.169835  0  0.004103  0.070403  0  3.904211  0
C  C124  1  0.47332018  0.20665231  0.35706674  1  0.465153  0  0.050717  0.109713  0  3.932195  0
C  C125  1  0.52668308  0.79333183  0.64292999  1  0.464959  0  0.050614  0.109488  0  3.932659  0
C  C126  1  0.13266567  0.74205740  0.95639790  1  0.458252  0  0.052551  0.106745  0  3.934697  0
C  C127  1  0.86733777  0.25796831  0.04359286  1  0.457516  0  0.052642  0.10696  0  3.934506  0
C  C128  1  0.33269289  0.54626648  0.22298479  1  -0.063684  0  -0.093452  -0.110514  0  4.013413  0
C  C129  1  0.66729879  0.45372746  0.77700795  1  -0.063536  0  -0.093488  -0.110714  0  4.013433  0
C  C130  1  0.90654836  0.17417407  0.65775958  1  -0.034343  0  -0.243921  -0.409855  0  3.963795  0
C  C131  1  0.09345278  0.82582093  0.34223998  1  -0.034505  0  -0.243915  -0.409833  0  3.963872  0
C  C132  1  0.34542455  0.42263603  0.21869376  1  -0.018147  0  -0.090476  -0.097686  0  3.990946  0
C  C133  1  0.65456711  0.57735495  0.78129810  1  -0.01798  0  -0.090421  -0.097441  0  3.990993  0
S  S134  1  0.98974008  0.37100700  0.78109534  1  0.27625  0  0.127413  0.155471  0  2.889834  0
S  S135  1  0.01026417  0.62900384  0.21890934  1  0.276216  0  0.127511  0.155587  0  2.890018  0
S  S136  1  0.79451485  0.41939561  0.53663204  1  0.254577  0  0.098328  0.110204  0  2.869903  0
S  S137  1  0.20548017  0.58058847  0.46335704  1  0.254802  0  0.098382  0.110211  0  2.86984  0
N  N138  1  0.43484046  0.07468330  0.32869665  1  -1.272444  0  -0.329813  -0.228583  0  3.503414  0
N  N139  1  0.56515573  0.92529878  0.67130704  1  -1.272328  0  -0.32974  -0.228503  0  3.503711  0
N  N140  1  0.25955079  0.80793838  0.97834594  1  -1.269572  0  -0.329828  -0.224849  0  3.53687  0
N  N141  1  0.74044826  0.19206749  0.02165450  1  -1.269687  0  -0.329814  -0.224884  0  3.536657  0
O  O142  1  0.50762473  0.94869715  0.08346214  1  -1.159298  0  -0.310012  -0.536145  0  2.346287  0
O  O143  1  0.49236814  0.05129776  0.91654264  1  -1.159763  0  -0.30999  -0.536093  0  2.346086  0
O  O144  1  0.15091030  0.96277507  0.21481511  1  -1.168811  0  -0.316449  -0.551827  0  2.363156  0
O  O145  1  0.84908319  0.03722479  0.78519330  1  -1.16895  0  -0.316388  -0.551794  0  2.363387  0
O  O146  1  0.34647108  0.12486080  0.09175382  1  -1.167978  0  -0.308538  -0.539139  0  2.322812  0
O  O147  1  0.65352704  0.87514210  0.90824274  1  -1.168143  0  -0.308499  -0.539166  0  2.322667  0
O  O148  1  0.31675521  0.79810017  0.22697835  1  -1.176334  0  -0.322439  -0.562071  0  2.342638  0
O  O149  1  0.68323465  0.20189968  0.77301561  1  -1.17235  0  -0.322515  -0.562105  0  2.342684  0
O  O150  1  0.36764434  0.17555092  0.20832687  1  -1.178291  0  -0.319399  -0.561708  0  2.36736  0
O  O151  1  0.63237367  0.82444524  0.79166736  1  -1.177806  0  -0.319377  -0.561688  0  2.367257  0
O  O152  1  0.29476855  0.74971350  0.11073451  1  -1.173114  0  -0.313133  -0.555806  0  2.35571  0
O  O153  1  0.70522741  0.25028245  0.88926059  1  -1.172852  0  -0.313066  -0.555714  0  2.355627  0
O  O154  1  0.52659455  0.00033730  0.19977711  1  -1.179114  0  -0.318531  -0.561684  0  2.373117  0
O  O155  1  0.47339620  0.99965958  0.80022292  1  -1.179141  0  -0.318471  -0.561497  0  2.373204  0
O  O156  1  0.13094956  0.91250525  0.09840613  1  -1.174357  0  -0.312068  -0.551064  0  2.391164  0
O  O157  1  0.86904542  0.08748473  0.90160103  1  -1.174092  0  -0.311907  -0.550801  0  2.391232  0
F  F158  1  0.15261955  0.26439595  0.43675697  1  -0.621262  0  -0.106149  -0.173116  0  1.343058  0
F  F159  1  0.84739267  0.73561398  0.56324583  1  -0.621281  0  -0.106123  -0.173069  0  1.342911  0
F  F160  1  0.37823585  0.37787059  0.51085986  1  -0.612251  0  -0.102112  -0.161267  0  1.385858  0
F  F161  1  0.62177210  0.62214622  0.48914719  1  -0.61219  0  -0.102094  -0.161221  0  1.385857  0
F  F162  1  0.35736701  0.17019160  0.50857144  1  -0.618967  0  -0.095095  -0.143007  0  1.374953  0
F  F163  1  0.64264710  0.82982727  0.49142565  1  -0.619021  0  -0.095067  -0.142966  0  1.375142  0
F  F164  1  0.40257028  0.41461398  0.64213071  1  -0.612978  0  -0.104266  -0.170261  0  1.316364  0
F  F165  1  0.59743517  0.58538896  0.35787347  1  -0.612931  0  -0.104194  -0.170174  0  1.316447  0
F  F166  1  0.10578875  0.09181872  0.47986055  1  -0.614399  0  -0.111381  -0.183213  0  1.323165  0
F  F167  1  0.89422499  0.90819023  0.52014414  1  -0.614315  0  -0.111361  -0.183164  0  1.323148  0
F  F168  1  0.30793054  0.20259225  0.63498143  1  -0.611483  0  -0.105405  -0.172806  0  1.305198  0
F  F169  1  0.69207342  0.79741465  0.36501679  1  -0.611513  0  -0.10541  -0.172839  0  1.305108  0
