# generated using pymatgen
data_Cu2H22C15(N3O4)2
_symmetry_space_group_name_H-M   'P 1'
_cell_length_a   8.52027906
_cell_length_b   8.79516059
_cell_length_c   15.81995086
_cell_angle_alpha   77.33780775
_cell_angle_beta   82.38665588
_cell_angle_gamma   63.93987616
_symmetry_Int_Tables_number   1
_chemical_formula_structural   Cu2H22C15(N3O4)2
_chemical_formula_sum   'Cu4 H44 C30 N12 O16'
_cell_volume   1038.19034254
_cell_formula_units_Z   2
loop_
 _symmetry_equiv_pos_site_id
 _symmetry_equiv_pos_as_xyz
  1  'x, y, z'
loop_
 _atom_site_type_symbol
 _atom_site_label
 _atom_site_symmetry_multiplicity
 _atom_site_fract_x
 _atom_site_fract_y
 _atom_site_fract_z
 _atom_site_occupancy
 _atom_site_pbe_cm5_charge
 _atom_site_pbe_ddec_charge
 _atom_site_pbe_ddec_spin_density
 _atom_site_pbe_ddec_sum_bond_order
 _atom_site_pbe_magmom
Cu  Cu0  1  0.63061394  0.96256492  0.55167669  1  0.659058  0.764635  0.000751  2.266765  -0.001
Cu  Cu1  1  0.36966613  0.03736655  0.44845562  1  0.659155  0.764738  -0.00077  2.26671  0.001
Cu  Cu2  1  0.97791759  0.60953072  0.92486208  1  0.656841  0.745555  -0.000674  2.322768  -0.003
Cu  Cu3  1  0.02208942  0.39043174  0.07516087  1  0.656403  0.744967  0.000708  2.32309  0.003
H  H4  1  0.60454207  0.38431921  0.29176291  1  0.103464  0.114204  1e-06  1.024829  0.0
H  H5  1  0.39536695  0.61568835  0.70822566  1  0.10348  0.114418  -1e-06  1.024616  0.0
H  H6  1  0.44627693  0.52255388  0.35621260  1  0.107466  0.128545  -1e-06  0.964817  0.0
H  H7  1  0.55369690  0.47740532  0.64374661  1  0.107547  0.128744  0.0  0.96462  0.0
H  H8  1  0.66850067  0.51075855  0.44389592  1  0.089073  0.087889  0.0  0.974278  0.0
H  H9  1  0.33139950  0.48923721  0.55607132  1  0.089182  0.087993  -0.0  0.97417  0.0
H  H10  1  0.83561456  0.34042984  0.39844153  1  0.091308  0.089893  0.0  0.995275  0.0
H  H11  1  0.16426610  0.65957873  0.60151469  1  0.091384  0.090129  -0.0  0.994901  0.0
H  H12  1  0.62700208  0.68540346  0.28336456  1  0.091499  0.09503  -1e-06  0.981568  0.0
H  H13  1  0.37287622  0.31458318  0.71658441  1  0.09145  0.095088  1e-06  0.981414  0.0
H  H14  1  0.83076897  0.52060742  0.25877217  1  0.089406  0.091838  2e-06  1.024175  0.0
H  H15  1  0.16914779  0.47940139  0.74121700  1  0.089431  0.09166  -2e-06  1.024397  0.0
H  H16  1  0.88220840  0.75660195  0.29048392  1  0.103769  0.123358  0.0  0.999138  0.0
H  H17  1  0.11766332  0.24343522  0.70949213  1  0.103727  0.123292  -0.0  0.999024  0.0
H  H18  1  0.95925492  0.58412778  0.37929637  1  0.101117  0.122831  -1e-06  0.966394  0.0
H  H19  1  0.04070627  0.41582414  0.62068798  1  0.101052  0.122709  1e-06  0.966293  0.0
H  H20  1  0.90499308  0.06288973  0.93981960  1  0.100875  0.128058  -2e-06  1.006516  0.0
H  H21  1  0.09503243  0.93713271  0.06018143  1  0.100834  0.128124  2e-06  1.006307  0.0
H  H22  1  0.03949789  0.09877737  0.85166854  1  0.10315  0.121129  0.0  1.00361  0.0
H  H23  1  0.96050696  0.90121307  0.14833277  1  0.103175  0.121281  0.0  1.003564  0.0
H  H24  1  0.79265423  0.33433120  0.77303836  1  0.09042  0.084214  0.0  0.994062  0.0
H  H25  1  0.20734555  0.66565686  0.22697433  1  0.090384  0.084137  -0.0  0.994131  0.0
H  H26  1  0.75374673  0.14852726  0.80365914  1  0.094132  0.095645  -0.0  0.978511  0.0
H  H27  1  0.24624223  0.85145309  0.19634828  1  0.094133  0.095613  0.0  0.978652  0.0
H  H28  1  0.54122805  0.12824876  0.92839792  1  0.111533  0.136554  -1e-06  0.949065  0.0
H  H29  1  0.45875684  0.87175482  0.07161449  1  0.111523  0.136587  1e-06  0.94909  0.0
H  H30  1  0.60120565  0.20733986  0.00543400  1  0.10183  0.121461  1e-06  0.970663  0.0
H  H31  1  0.39877931  0.79264435  0.99457257  1  0.10183  0.121446  -0.0  0.970702  0.0
H  H32  1  0.48958858  0.41453728  0.82327319  1  0.090385  0.081317  -1e-06  1.036018  0.0
H  H33  1  0.51041205  0.58544050  0.17673945  1  0.090398  0.081314  1e-06  1.035945  0.0
H  H34  1  0.59590177  0.46041315  0.89572679  1  0.085758  0.083009  -1e-06  0.981479  0.0
H  H35  1  0.40410566  0.53957359  0.10428681  1  0.085771  0.083024  0.0  0.981463  0.0
H  H36  1  0.69180542  0.71502504  0.70120128  1  0.29821  0.31618  1e-06  1.014092  0.0
H  H37  1  0.30815057  0.28493775  0.29882254  1  0.298276  0.316334  -1e-06  1.013685  0.0
H  H38  1  0.81061998  0.59823977  0.79552358  1  0.30019  0.312707  -1e-06  1.005446  0.0
H  H39  1  0.18935678  0.40177163  0.20449347  1  0.300249  0.312749  1e-06  1.00528  0.0
H  H40  1  0.00320800  0.17945612  0.56186394  1  0.300152  0.316048  -1e-06  0.99256  0.0
H  H41  1  0.99684262  0.82050808  0.43811856  1  0.300069  0.31581  1e-06  0.992599  0.0
H  H42  1  0.81807275  0.16178751  0.53546717  1  0.298548  0.310734  1e-06  1.020815  0.0
H  H43  1  0.18192496  0.83827329  0.46450760  1  0.298692  0.310837  -1e-06  1.02053  0.0
H  H44  1  0.31377576  0.84756441  0.79503492  1  0.324376  0.329126  -0.0  0.90958  0.0
H  H45  1  0.68620648  0.15243765  0.20496015  1  0.324374  0.32909  -0.0  0.909544  0.0
H  H46  1  0.25780173  0.68989728  0.86337427  1  0.307053  0.319485  -1e-06  0.982362  0.0
H  H47  1  0.74217133  0.31011515  0.13662267  1  0.307015  0.319422  1e-06  0.982435  0.0
C  C48  1  0.86537249  0.79653832  0.73074069  1  0.344584  0.630067  -1e-06  4.117915  0.0
C  C49  1  0.13459534  0.20345870  0.26925472  1  0.34448  0.629885  1e-06  4.118329  0.0
C  C50  1  0.93885790  0.00379033  0.64562078  1  0.342011  0.622271  0.0  4.144583  0.0
C  C51  1  0.06114256  0.99621396  0.35435763  1  0.342184  0.622693  -0.0  4.143741  0.0
C  C52  1  0.09039661  0.84302013  0.76607534  1  0.344364  0.618704  -1e-06  4.158501  0.0
C  C53  1  0.90958337  0.15697924  0.23391011  1  0.344281  0.618455  1e-06  4.158527  0.0
C  C54  1  0.55272470  0.25804571  0.41295311  1  0.228244  0.640634  -2e-06  4.09502  0.0
C  C55  1  0.44744983  0.74191988  0.58709106  1  0.228085  0.639956  1e-06  4.095935  0.0
C  C56  1  0.57552482  0.41212681  0.35804170  1  -0.157252  -0.290271  1e-06  3.916754  0.0
C  C57  1  0.42447319  0.58787755  0.64194065  1  -0.157313  -0.29081  1e-06  3.916653  0.0
C  C58  1  0.71358577  0.45708135  0.38381467  1  -0.167339  -0.114683  -2e-06  3.91226  0.0
C  C59  1  0.28635891  0.54297955  0.61614342  1  -0.167465  -0.114961  1e-06  3.91178  0.0
C  C60  1  0.75051430  0.58645216  0.31134654  1  -0.170187  -0.131903  1e-06  3.912469  0.0
C  C61  1  0.24940038  0.41362847  0.68863136  1  -0.170282  -0.131793  -1e-06  3.912662  0.0
C  C62  1  0.71883884  0.79958146  0.40313622  1  0.218934  0.624461  -1e-06  4.115185  0.0
C  C63  1  0.28123014  0.20040934  0.59691889  1  0.21857  0.623747  1e-06  4.116374  0.0
C  C64  1  0.84161623  0.67651473  0.34421438  1  -0.157215  -0.281455  1e-06  3.897945  0.0
C  C65  1  0.15833863  0.32352357  0.65578691  1  -0.157064  -0.281124  2e-06  3.897861  0.0
C  C66  1  0.95019900  0.28702629  0.93113685  1  0.219895  0.631948  1e-06  4.096263  0.0
C  C67  1  0.04979823  0.71300763  0.06884506  1  0.220055  0.632302  -0.0  4.096117  0.0
C  C68  1  0.91850595  0.16388231  0.88913750  1  -0.163941  -0.292138  -3e-06  3.892385  0.0
C  C69  1  0.08149806  0.83613249  0.11085833  1  -0.163955  -0.292586  -3e-06  3.892255  0.0
C  C70  1  0.76437283  0.25019955  0.82939497  1  -0.16329  -0.121052  1e-06  3.934496  0.0
C  C71  1  0.23562570  0.74978069  0.17060866  1  -0.163216  -0.12081  -1e-06  3.934472  0.0
C  C72  1  0.33223091  0.34006644  0.97291887  1  0.216679  0.622833  1e-06  4.117768  0.0
C  C73  1  0.66776803  0.65996358  0.02706088  1  0.216496  0.622611  -0.0  4.117948  0.0
C  C74  1  0.52558225  0.24825561  0.94697439  1  -0.153647  -0.272302  -3e-06  3.879873  0.0
C  C75  1  0.47442187  0.75174768  0.05302602  1  -0.15361  -0.272281  -3e-06  3.879936  0.0
C  C76  1  0.58887461  0.35410969  0.87253711  1  -0.171646  -0.132735  0.0  3.945799  0.0
C  C77  1  0.41114089  0.64588070  0.12746539  1  -0.171689  -0.132792  1e-06  3.945507  0.0
N  N78  1  0.77168634  0.70368513  0.74723787  1  -0.584736  -0.647257  -2e-06  3.300705  0.0
N  N79  1  0.22829071  0.29631464  0.25277491  1  -0.584876  -0.647392  2e-06  3.300361  0.0
N  N80  1  0.83758535  0.91602066  0.65686893  1  -0.365159  -0.587419  1e-06  3.244589  0.0
N  N81  1  0.16241829  0.08397598  0.34311526  1  -0.365113  -0.587657  -1e-06  3.243778  0.0
N  N82  1  0.90760130  0.13678112  0.57945954  1  -0.581369  -0.646444  0.0  3.302238  0.0
N  N83  1  0.09243446  0.86323195  0.42051856  1  -0.58136  -0.646191  -1e-06  3.301845  0.0
N  N84  1  0.07189525  0.96631557  0.69627034  1  -0.367406  -0.578966  -0.0  3.195687  0.0
N  N85  1  0.92808983  0.03369405  0.30371476  1  -0.367521  -0.579316  0.0  3.19565  0.0
N  N86  1  0.22611366  0.79749206  0.81673611  1  -0.576617  -0.656774  -3e-06  3.31421  0.0
N  N87  1  0.77388594  0.20248389  0.18323763  1  -0.576514  -0.656469  3e-06  3.314168  0.0
N  N88  1  0.98430991  0.76155559  0.79024533  1  -0.375465  -0.576251  -4e-06  3.308786  0.0
N  N89  1  0.01566348  0.23846187  0.20974401  1  -0.375497  -0.576116  4e-06  3.308616  0.0
O  O90  1  0.65153879  0.16823730  0.47566310  1  -0.294942  -0.509695  5e-05  2.433678  0.0
O  O91  1  0.34857504  0.83177534  0.52441032  1  -0.295031  -0.509134  -4.8e-05  2.432802  0.0
O  O92  1  0.78360726  0.80814645  0.46952513  1  -0.309169  -0.531167  5.8e-05  2.385977  0.0
O  O93  1  0.21649157  0.19185810  0.53051490  1  -0.308953  -0.530568  -5.7e-05  2.386575  0.0
O  O94  1  0.43085595  0.23011451  0.39047425  1  -0.308138  -0.529466  -5.3e-05  2.444508  0.0
O  O95  1  0.56935224  0.76979432  0.60956961  1  -0.307901  -0.528913  5.5e-05  2.445268  0.0
O  O96  1  0.56139798  0.88231657  0.38081339  1  -0.309661  -0.511392  -6.2e-05  2.378989  0.0
O  O97  1  0.43866450  0.11761933  0.61926474  1  -0.309717  -0.511575  6.3e-05  2.379074  0.0
O  O98  1  0.94031831  0.42803393  0.88329514  1  -0.309518  -0.536461  -4.6e-05  2.41544  0.0
O  O99  1  0.05959915  0.57202881  0.11669111  1  -0.30956  -0.536578  4.3e-05  2.41537  0.0
O  O100  1  0.27918625  0.27598520  0.04446196  1  -0.313271  -0.515703  5.8e-05  2.323054  0.0
O  O101  1  0.72082036  0.72408737  0.95553162  1  -0.31306  -0.515526  -6.2e-05  2.32305  0.0
O  O102  1  0.23891070  0.47161345  0.91924813  1  -0.3112  -0.541564  -4.8e-05  2.424504  0.0
O  O103  1  0.76108561  0.52838166  0.08071525  1  -0.311202  -0.541506  4.4e-05  2.42451  0.0
O  O104  1  0.98683566  0.23848508  0.01063260  1  -0.302922  -0.505092  5.6e-05  2.380782  0.0
O  O105  1  0.01323966  0.76151866  0.98933894  1  -0.303021  -0.505225  -6e-05  2.38063  0.0
