# generated using pymatgen
data_CuMo2H4C6NO7
_symmetry_space_group_name_H-M   'P 1'
_cell_length_a   5.51151523
_cell_length_b   10.42123047
_cell_length_c   9.93915106
_cell_angle_alpha   94.10872181
_cell_angle_beta   106.08811625
_cell_angle_gamma   90.01464857
_symmetry_Int_Tables_number   1
_chemical_formula_structural   CuMo2H4C6NO7
_chemical_formula_sum   'Cu2 Mo4 H8 C12 N2 O14'
_cell_volume   546.98523269
_cell_formula_units_Z   2
loop_
 _symmetry_equiv_pos_site_id
 _symmetry_equiv_pos_as_xyz
  1  'x, y, z'
loop_
 _atom_site_type_symbol
 _atom_site_label
 _atom_site_symmetry_multiplicity
 _atom_site_fract_x
 _atom_site_fract_y
 _atom_site_fract_z
 _atom_site_occupancy
 _atom_site_hle17_bader_spin_density
 _atom_site_hle17_ddec_charge
 _atom_site_hle17_ddec_spin_density
 _atom_site_hle17_ddec_sum_bond_order
 _atom_site_hle17_magmom
 _atom_site_hse06_10hf_bader_spin_density
 _atom_site_hse06_10hf_ddec_charge
 _atom_site_hse06_10hf_ddec_spin_density
 _atom_site_hse06_10hf_ddec_sum_bond_order
 _atom_site_hse06_10hf_magmom
 _atom_site_hse06_bader_spin_density
 _atom_site_hse06_ddec_charge
 _atom_site_hse06_ddec_spin_density
 _atom_site_hse06_ddec_sum_bond_order
 _atom_site_hse06_magmom
 _atom_site_pbe_bader_spin_density
 _atom_site_pbe_cm5_charge
 _atom_site_pbe_ddec_charge
 _atom_site_pbe_ddec_spin_density
 _atom_site_pbe_ddec_sum_bond_order
 _atom_site_pbe_magmom
Cu  Cu0  1  0.90637360  0.98255671  0.50393197  1  0  0.588134  0  1.658344  0  0  0.470859  0  2.165552  0  0  0.488711  0  2.092593  0  0  0.440329  0.462852  0  2.213173  0
Cu  Cu1  1  0.40260261  0.01710524  0.49608865  1  0  0.592221  0  1.65588  0  0  0.475517  0  2.162216  0  0  0.492207  0  2.089907  0  0  0.440435  0.463828  0  2.211807  0
Mo  Mo2  1  0.15281629  0.49392182  0.35048975  1  0  1.919855  0  3.810612  0  0  1.886619  0  4.387041  0  0  1.98012  0  4.343907  0  0  1.344443  1.823449  0  4.416012  0
Mo  Mo3  1  0.80218190  0.50599190  0.64923698  1  0  1.920998  0  3.807828  0  0  1.888274  0  4.384224  0  0  1.981683  0  4.340926  0  0  1.344879  1.825137  0  4.412987  0
Mo  Mo4  1  0.74834936  0.63600709  0.31105101  1  0  1.766333  0  4.047403  0  0  1.712359  0  4.651695  0  0  1.803343  0  4.619747  0  0  1.344641  1.651986  0  4.672098  0
Mo  Mo5  1  0.43682968  0.36401555  0.68879029  1  0  1.767924  0  4.048192  0  0  1.714203  0  4.652541  0  0  1.805203  0  4.620502  0  0  1.345678  1.65362  0  4.672829  0
H  H6  1  0.92016368  0.82225107  0.13173024  1  0  0.086726  0  0.934105  0  0  0.096837  0  0.994402  0  0  0.099529  0  0.991946  0  0  0.123749  0.09469  0  0.996536  0
H  H7  1  0.78760495  0.17768529  0.86744778  1  0  0.08625  0  0.934715  0  0  0.09643  0  0.994924  0  0  0.099138  0  0.992472  0  0  0.123245  0.094295  0  0.997143  0
H  H8  1  0.12242049  0.33644819  0.91355088  1  0  0.113794  0  0.973725  0  0  0.122802  0  1.033467  0  0  0.126865  0  1.029421  0  0  0.119981  0.119597  0  1.037001  0
H  H9  1  0.20918309  0.66378433  0.08737074  1  0  0.114062  0  0.973795  0  0  0.122726  0  1.033792  0  0  0.126906  0  1.029575  0  0  0.119774  0.119344  0  1.037683  0
H  H10  1  0.77515394  0.91553178  0.89712734  1  0  0.122095  0  0.945035  0  0  0.13099  0  1.00562  0  0  0.134562  0  1.004185  0  0  0.116837  0.128289  0  1.007038  0
H  H11  1  0.87849179  0.08428831  0.10202715  1  0  0.120694  0  0.946455  0  0  0.129786  0  1.006754  0  0  0.133471  0  1.005214  0  0  0.116606  0.127083  0  1.008143  0
H  H12  1  0.17249809  0.23323397  0.13962403  1  0  0.127661  0  1.005131  0  0  0.136084  0  1.066583  0  0  0.140008  0  1.064744  0  0  0.112442  0.133523  0  1.067749  0
H  H13  1  0.03195001  0.76676059  0.86133672  1  0  0.126654  0  1.004178  0  0  0.135126  0  1.065827  0  0  0.139041  0  1.064013  0  0  0.111736  0.132284  0  1.067327  0
C  C14  1  0.29286455  0.91141536  0.72719571  1  0  0.636795  0  3.862306  0  0  0.587093  0  4.13475  0  0  0.621324  0  4.131379  0  0  0.21357  0.563904  0  4.136356  0
C  C15  1  0.56776042  0.08861960  0.27304110  1  0  0.632994  0  3.867261  0  0  0.583832  0  4.139877  0  0  0.618075  0  4.136506  0  0  0.212353  0.560952  0  4.140916  0
C  C16  1  0.72576442  0.81029773  0.06709674  1  0  0.142287  0  3.652488  0  0  0.113112  0  3.903635  0  0  0.121412  0  3.919712  0  0  0.049134  0.107777  0  3.893282  0
C  C17  1  0.65854349  0.18974325  0.93249483  1  0  0.142743  0  3.652742  0  0  0.113176  0  3.904053  0  0  0.121536  0  3.919996  0  0  0.049608  0.108048  0  3.893071  0
C  C18  1  0.28317578  0.27637336  0.95667725  1  0  0.125673  0  3.656784  0  0  0.096303  0  3.906989  0  0  0.104467  0  3.921932  0  0  0.047559  0.090729  0  3.897489  0
C  C19  1  0.32642828  0.72378269  0.04384207  1  0  0.125239  0  3.654927  0  0  0.096521  0  3.904724  0  0  0.104507  0  3.91982  0  0  0.048051  0.090536  0  3.896027  0
C  C20  1  0.38946849  0.85177340  0.86370826  1  0  0.017941  0  3.708431  0  0  0.036792  0  3.938386  0  0  0.036782  0  3.955734  0  0  0.010606  0.036195  0  3.926674  0
C  C21  1  0.52725491  0.14840139  0.13651650  1  0  0.019947  0  3.704158  0  0  0.036806  0  3.936452  0  0  0.036935  0  3.95372  0  0  0.010726  0.036612  0  3.92439  0
C  C22  1  0.64416687  0.86415679  0.93916659  1  0  -0.117077  0  3.712038  0  0  -0.138989  0  3.960821  0  0  -0.144042  0  3.979472  0  0  -0.071989  -0.135905  0  3.948835  0
C  C23  1  0.70564561  0.13587115  0.06045027  1  0  -0.115836  0  3.708145  0  0  -0.137014  0  3.956914  0  0  -0.14208  0  3.975342  0  0  -0.071986  -0.133692  0  3.944425  0
C  C24  1  0.31189358  0.21887475  0.08180914  1  0  -0.127093  0  3.690339  0  0  -0.151905  0  3.93894  0  0  -0.157232  0  3.957175  0  0  -0.078842  -0.148433  0  3.926681  0
C  C25  1  0.22930285  0.78125877  0.91879149  1  0  -0.124217  0  3.687857  0  0  -0.149334  0  3.934777  0  0  -0.154693  0  3.953221  0  0  -0.077864  -0.14591  0  3.923319  0
N  N26  1  0.57055493  0.73945579  0.11832393  1  0  -0.320516  0  3.297389  0  0  -0.258722  0  3.558464  0  0  -0.278987  0  3.580414  0  0  -0.349439  -0.245663  0  3.54385  0
N  N27  1  0.45211032  0.26067554  0.88171925  1  0  -0.3213  0  3.298277  0  0  -0.259241  0  3.55924  0  0  -0.279381  0  3.580972  0  0  -0.349018  -0.245918  0  3.544215  0
O  O28  1  0.83194750  0.78182069  0.40600782  1  0  -0.687848  0  1.674567  0  0  -0.668543  0  2.00707  0  0  -0.693465  0  1.984934  0  0  -0.524434  -0.652806  0  2.021907  0
O  O29  1  0.42461772  0.21809444  0.59394394  1  0  -0.688485  0  1.673816  0  0  -0.669019  0  2.005577  0  0  -0.693921  0  1.983612  0  0  -0.524563  -0.653246  0  2.021351  0
O  O30  1  0.44246505  0.54854466  0.28295510  1  0  -0.83738  0  1.761063  0  0  -0.818098  0  2.07627  0  0  -0.859568  0  2.062454  0  0  -0.59514  -0.789855  0  2.08526  0
O  O31  1  0.15937649  0.45159043  0.71697855  1  0  -0.837641  0  1.760698  0  0  -0.818725  0  2.076246  0  0  -0.860138  0  2.062253  0  0  -0.595096  -0.790109  0  2.084738  0
O  O32  1  0.77370723  0.40347955  0.80163630  1  0  -0.83366  0  1.754459  0  0  -0.820133  0  2.047641  0  0  -0.857873  0  2.043555  0  0  -0.566223  -0.79412  0  2.050104  0
O  O33  1  0.97206981  0.59641622  0.19803753  1  0  -0.832932  0  1.755201  0  0  -0.819186  0  2.048084  0  0  -0.856853  0  2.044074  0  0  -0.565913  -0.7932  0  2.050883  0
O  O34  1  0.45548775  0.93151828  0.66112227  1  0  -0.587976  0  2.225631  0  0  -0.51315  0  2.520282  0  0  -0.54114  0  2.501427  0  0  -0.327991  -0.494217  0  2.532851  0
O  O35  1  0.79637665  0.06827460  0.33880705  1  0  -0.585615  0  2.227505  0  0  -0.511  0  2.521998  0  0  -0.539038  0  2.503042  0  0  -0.326717  -0.491986  0  2.533667  0
O  O36  1  0.37161781  0.06345061  0.31163136  1  0  -0.572426  0  2.168386  0  0  -0.497907  0  2.451294  0  0  -0.526607  0  2.43514  0  0  -0.326195  -0.478224  0  2.461558  0
O  O37  1  0.05824560  0.93665197  0.68879621  1  0  -0.572239  0  2.165933  0  0  -0.49785  0  2.448975  0  0  -0.526667  0  2.432717  0  0  -0.326367  -0.478597  0  2.459143  0
O  O38  1  0.44264226  0.47177484  0.52532440  1  0  -0.9973  0  1.993193  0  0  -0.973258  0  2.325694  0  0  -1.021667  0  2.320735  0  0  -0.61284  -0.940228  0  2.328768  0
O  O39  1  0.91734685  0.52810558  0.47442993  1  0  -0.997361  0  1.993379  0  0  -0.973188  0  2.325898  0  0  -1.02151  0  2.320927  0  0  -0.612894  -0.940395  0  2.32887  0
O  O40  1  0.05312583  0.34412469  0.28389854  1  0  -0.569856  0  1.501846  0  0  -0.553128  0  1.748801  0  0  -0.580108  0  1.73982  0  0  -0.471581  -0.535935  0  1.755164  0
O  O41  1  0.76943268  0.65586368  0.71579917  1  0  -0.570262  0  1.501266  0  0  -0.553857  0  1.748204  0  0  -0.580854  0  1.739223  0  0  -0.471292  -0.536294  0  1.754654  0
