# generated using pymatgen
data_ZnH14C18(NO)4
_symmetry_space_group_name_H-M   'P 1'
_cell_length_a   9.19525772
_cell_length_b   10.53286058
_cell_length_c   11.12856118
_cell_angle_alpha   104.99283505
_cell_angle_beta   108.58678027
_cell_angle_gamma   109.39462801
_symmetry_Int_Tables_number   1
_chemical_formula_structural   ZnH14C18(NO)4
_chemical_formula_sum   'Zn2 H28 C36 N8 O8'
_cell_volume   879.89515235
_cell_formula_units_Z   2
loop_
 _symmetry_equiv_pos_site_id
 _symmetry_equiv_pos_as_xyz
  1  'x, y, z'
loop_
 _atom_site_type_symbol
 _atom_site_label
 _atom_site_symmetry_multiplicity
 _atom_site_fract_x
 _atom_site_fract_y
 _atom_site_fract_z
 _atom_site_occupancy
 _atom_site_hle17_bader_spin_density
 _atom_site_hle17_ddec_charge
 _atom_site_hle17_ddec_spin_density
 _atom_site_hle17_ddec_sum_bond_order
 _atom_site_hle17_magmom
 _atom_site_hse06_10hf_bader_spin_density
 _atom_site_hse06_10hf_ddec_charge
 _atom_site_hse06_10hf_ddec_spin_density
 _atom_site_hse06_10hf_ddec_sum_bond_order
 _atom_site_hse06_10hf_magmom
 _atom_site_hse06_bader_spin_density
 _atom_site_hse06_ddec_charge
 _atom_site_hse06_ddec_spin_density
 _atom_site_hse06_ddec_sum_bond_order
 _atom_site_hse06_magmom
 _atom_site_pbe_bader_spin_density
 _atom_site_pbe_cm5_charge
 _atom_site_pbe_ddec_charge
 _atom_site_pbe_ddec_spin_density
 _atom_site_pbe_ddec_sum_bond_order
 _atom_site_pbe_magmom
Zn  Zn0  1  0.27193480  0.53581122  0.21640179  1  0  0.988826  0  1.847905  0  0  0.791453  0  2.321408  0  0  0.838689  0  2.268664  0  0  0.700268  0.758624  0  2.357487  0
Zn  Zn1  1  0.72806352  0.46418862  0.78359525  1  0  0.988831  0  1.847946  0  0  0.791469  0  2.321454  0  0  0.838709  0  2.268699  0  0  0.700279  0.758646  0  2.357535  0
H  H2  1  0.93038130  0.52333292  0.13933444  1  0  0.094539  0  0.956308  0  0  0.100142  0  1.023674  0  0  0.103607  0  1.020031  0  0  0.115863  0.097643  0  1.026279  0
H  H3  1  0.06961706  0.47666911  0.86066408  1  0  0.094568  0  0.956276  0  0  0.100143  0  1.023676  0  0  0.10361  0  1.020031  0  0  0.115864  0.097649  0  1.026282  0
H  H4  1  0.79810447  0.67694939  0.21775842  1  0  0.114173  0  0.931237  0  0  0.12728  0  0.984889  0  0  0.130198  0  0.984665  0  0  0.111162  0.125332  0  0.984895  0
H  H5  1  0.20189624  0.32305479  0.78224574  1  0  0.114175  0  0.931204  0  0  0.127276  0  0.984874  0  0  0.130194  0  0.98465  0  0  0.111153  0.125332  0  0.984879  0
H  H6  1  0.29709439  0.97699540  0.56805584  1  0  0.124544  0  0.978946  0  0  0.131942  0  1.040906  0  0  0.135689  0  1.039351  0  0  0.109424  0.129352  0  1.041877  0
H  H7  1  0.70291026  0.02300772  0.43194367  1  0  0.124555  0  0.978896  0  0  0.131938  0  1.040884  0  0  0.135686  0  1.039328  0  0  0.109408  0.129347  0  1.041852  0
H  H8  1  0.41035624  0.81694707  0.47182423  1  0  0.081417  0  0.951376  0  0  0.092094  0  1.013834  0  0  0.094235  0  1.011649  0  0  0.118088  0.090546  0  1.015372  0
H  H9  1  0.58964265  0.18305163  0.52817446  1  0  0.081408  0  0.951391  0  0  0.092093  0  1.013832  0  0  0.094237  0  1.011637  0  0  0.118086  0.090549  0  1.015362  0
H  H10  1  0.81880090  0.88952101  0.38163111  1  0  0.101307  0  0.974017  0  0  0.111094  0  1.03645  0  0  0.113952  0  1.035737  0  0  0.103103  0.108893  0  1.037309  0
H  H11  1  0.18120498  0.11048423  0.61837644  1  0  0.101247  0  0.974051  0  0  0.111041  0  1.036479  0  0  0.113896  0  1.035763  0  0  0.103081  0.108843  0  1.037336  0
H  H12  1  0.05927514  0.63823869  0.63026709  1  0  0.105609  0  0.947486  0  0  0.11497  0  1.011943  0  0  0.118203  0  1.009734  0  0  0.107637  0.112628  0  1.013829  0
H  H13  1  0.94072374  0.36176002  0.36973071  1  0  0.105638  0  0.947564  0  0  0.11497  0  1.012046  0  0  0.118201  0  1.009838  0  0  0.10764  0.112624  0  1.01393  0
H  H14  1  0.67563750  0.30469393  0.30725886  1  0  0.113816  0  0.9843  0  0  0.119974  0  1.051874  0  0  0.123396  0  1.050527  0  0  0.105431  0.117335  0  1.053332  0
H  H15  1  0.32435968  0.69530364  0.69274270  1  0  0.113827  0  0.984285  0  0  0.119973  0  1.051885  0  0  0.123388  0  1.050543  0  0  0.105433  0.117337  0  1.053343  0
H  H16  1  0.39696848  0.30987502  0.19665713  1  0  0.083099  0  0.980429  0  0  0.088961  0  1.048108  0  0  0.091542  0  1.046061  0  0  0.114368  0.086995  0  1.049663  0
H  H17  1  0.60302867  0.69012259  0.80334085  1  0  0.083099  0  0.980326  0  0  0.088965  0  1.047999  0  0  0.091546  0  1.045952  0  0  0.114362  0.087003  0  1.049556  0
H  H18  1  0.58145243  0.73187437  0.49054674  1  0  0.082279  0  0.98128  0  0  0.086837  0  1.054952  0  0  0.089746  0  1.05094  0  0  0.115237  0.084729  0  1.057727  0
H  H19  1  0.41854643  0.26812438  0.50944837  1  0  0.082314  0  0.98126  0  0  0.086846  0  1.05495  0  0  0.089752  0  1.050941  0  0  0.115225  0.084737  0  1.057725  0
H  H20  1  0.86174789  0.74384765  0.61419050  1  0  0.121127  0  0.934515  0  0  0.130829  0  0.992646  0  0  0.133996  0  0.992222  0  0  0.113035  0.128289  0  0.993718  0
H  H21  1  0.13825043  0.25615218  0.38580655  1  0  0.121117  0  0.934571  0  0  0.130818  0  0.992706  0  0  0.133982  0  0.992282  0  0  0.113029  0.128264  0  0.993787  0
H  H22  1  0.86787244  0.03092880  0.02863276  1  0  0.153861  0  0.923449  0  0  0.164671  0  0.981823  0  0  0.167626  0  0.980181  0  0  0.122488  0.162539  0  0.9831  0
H  H23  1  0.13212537  0.96907205  0.97137161  1  0  0.153876  0  0.923499  0  0  0.164687  0  0.981842  0  0  0.167653  0  0.980192  0  0  0.122516  0.162555  0  0.983121  0
H  H24  1  0.77131776  0.14197556  0.98137715  1  0  0.140303  0  0.928893  0  0  0.152669  0  0.985662  0  0  0.154567  0  0.985074  0  0  0.116954  0.151327  0  0.986099  0
H  H25  1  0.22868288  0.85802646  0.01862196  1  0  0.140302  0  0.928913  0  0  0.152664  0  0.985686  0  0  0.154564  0  0.985095  0  0  0.116961  0.151321  0  0.986124  0
H  H26  1  0.61910605  0.76381935  0.03932407  1  0  0.172018  0  0.915483  0  0  0.184922  0  0.970906  0  0  0.188955  0  0.967495  0  0  0.128716  0.182098  0  0.973381  0
H  H27  1  0.38089750  0.23618371  0.96068053  1  0  0.172022  0  0.915527  0  0  0.184925  0  0.970936  0  0  0.188957  0  0.96753  0  0  0.128727  0.182099  0  0.973411  0
H  H28  1  0.42264993  0.76803385  0.95406752  1  0  0.148908  0  0.919103  0  0  0.160307  0  0.978072  0  0  0.163084  0  0.976554  0  0  0.121281  0.158476  0  0.979085  0
H  H29  1  0.57735708  0.23197141  0.04593763  1  0  0.148993  0  0.919005  0  0  0.160331  0  0.978037  0  0  0.163109  0  0.976519  0  0  0.121283  0.158497  0  0.979046  0
C  C30  1  0.00737729  0.62509322  0.23337690  1  0  0.126808  0  3.691601  0  0  0.096184  0  3.940615  0  0  0.103633  0  3.958605  0  0  0.043157  0.091219  0  3.928539  0
C  C31  1  0.99262219  0.37490658  0.76662312  1  0  0.126683  0  3.69161  0  0  0.096114  0  3.940641  0  0  0.103561  0  3.958631  0  0  0.043111  0.091149  0  3.928572  0
C  C32  1  0.93413411  0.71152689  0.27885801  1  0  -0.14996  0  3.683303  0  0  -0.169592  0  3.93325  0  0  -0.17795  0  3.954947  0  0  -0.077978  -0.163773  0  3.918542  0
C  C33  1  0.06586656  0.28847508  0.72114468  1  0  -0.149963  0  3.683244  0  0  -0.169591  0  3.933189  0  0  -0.17795  0  3.954886  0  0  -0.077977  -0.163772  0  3.918488  0
C  C34  1  0.03492217  0.84230366  0.40073146  1  0  0.144973  0  3.777354  0  0  0.157617  0  4.011409  0  0  0.164008  0  4.033098  0  0  0.01482  0.153065  0  3.99693  0
C  C35  1  0.96508018  0.15769498  0.59927170  1  0  0.144997  0  3.777367  0  0  0.157653  0  4.011418  0  0  0.164045  0  4.033105  0  0  0.014813  0.153101  0  3.996948  0
C  C36  1  0.20961789  0.87791208  0.47273295  1  0  -0.144952  0  3.657891  0  0  -0.160447  0  3.900548  0  0  -0.168871  0  3.921272  0  0  -0.074788  -0.154363  0  3.886214  0
C  C37  1  0.79038562  0.12208879  0.52726928  1  0  -0.144907  0  3.657792  0  0  -0.160415  0  3.900475  0  0  -0.168841  0  3.9212  0  0  -0.074743  -0.154326  0  3.886135  0
C  C38  1  0.27433272  0.78772079  0.41982854  1  0  0.130056  0  3.708273  0  0  0.09668  0  3.959107  0  0  0.103745  0  3.97871  0  0  0.045362  0.092421  0  3.945263  0
C  C39  1  0.72566673  0.21227678  0.58017181  1  0  0.129984  0  3.708301  0  0  0.096651  0  3.959141  0  0  0.103716  0  3.978752  0  0  0.045366  0.092394  0  3.945295  0
C  C40  1  0.95712009  0.93389105  0.44490714  1  0  -0.090425  0  3.675364  0  0  -0.109824  0  3.923402  0  0  -0.113546  0  3.944235  0  0  -0.073453  -0.106313  0  3.908416  0
C  C41  1  0.04288578  0.06611422  0.55509772  1  0  -0.090377  0  3.675479  0  0  -0.109782  0  3.923508  0  0  -0.113501  0  3.944341  0  0  -0.073419  -0.106279  0  3.908528  0
C  C42  1  0.97151830  0.54431190  0.53039009  1  0  -0.091192  0  3.696018  0  0  -0.11337  0  3.950141  0  0  -0.116796  0  3.970891  0  0  -0.075742  -0.111589  0  3.937611  0
C  C43  1  0.02848055  0.45568460  0.46960713  1  0  -0.091182  0  3.696185  0  0  -0.113336  0  3.950305  0  0  -0.11676  0  3.971055  0  0  -0.075683  -0.111554  0  3.937772  0
C  C44  1  0.79810261  0.52808270  0.46804733  1  0  0.139916  0  3.803129  0  0  0.152363  0  4.037802  0  0  0.159052  0  4.059673  0  0  0.011145  0.148244  0  4.023201  0
C  C45  1  0.20189513  0.47191600  0.53195107  1  0  0.139977  0  3.803161  0  0  0.152434  0  4.037817  0  0  0.15912  0  4.059684  0  0  0.011194  0.148317  0  4.023214  0
C  C46  1  0.66112963  0.40243395  0.35111363  1  0  -0.165257  0  3.680745  0  0  -0.180182  0  3.923661  0  0  -0.189774  0  3.946477  0  0  -0.082961  -0.174593  0  3.908989  0
C  C47  1  0.33886639  0.59756365  0.64888495  1  0  -0.165289  0  3.680715  0  0  -0.180211  0  3.923636  0  0  -0.189799  0  3.94646  0  0  -0.083004  -0.174621  0  3.908964  0
C  C48  1  0.50520908  0.40329669  0.28890726  1  0  0.126808  0  3.706787  0  0  0.095329  0  3.954797  0  0  0.102576  0  3.973828  0  0  0.041274  0.090497  0  3.942417  0
C  C49  1  0.49478808  0.59670092  0.71109071  1  0  0.126861  0  3.70665  0  0  0.095378  0  3.954667  0  0  0.102628  0  3.973696  0  0  0.041317  0.090546  0  3.942298  0
C  C50  1  0.60494076  0.63850668  0.45258459  1  0  0.142352  0  3.707562  0  0  0.104594  0  3.964719  0  0  0.113588  0  3.981826  0  0  0.04605  0.098974  0  3.953344  0
C  C51  1  0.39505812  0.36149204  0.54741231  1  0  0.142237  0  3.707666  0  0  0.104507  0  3.964814  0  0  0.113502  0  3.981922  0  0  0.046026  0.09889  0  3.953436  0
C  C52  1  0.76363601  0.64489512  0.52181527  1  0  -0.155928  0  3.675137  0  0  -0.173589  0  3.925924  0  0  -0.182402  0  3.946379  0  0  -0.077599  -0.168337  0  3.913539  0
C  C53  1  0.23636287  0.35510359  0.47818253  1  0  -0.155889  0  3.675223  0  0  -0.173555  0  3.925996  0  0  -0.182363  0  3.946447  0  0  -0.077597  -0.168289  0  3.913608  0
C  C54  1  0.04331856  0.22817725  0.03149574  1  0  0.716507  0  3.873937  0  0  0.670526  0  4.172295  0  0  0.70355  0  4.165692  0  0  0.217582  0.648086  0  4.17612  0
C  C55  1  0.95668029  0.77181926  0.96850148  1  0  0.716473  0  3.87394  0  0  0.670504  0  4.172266  0  0  0.703528  0  4.165664  0  0  0.217545  0.648065  0  4.176091  0
C  C56  1  0.86154449  0.09934188  0.96869681  1  0  -0.33319  0  3.743299  0  0  -0.361262  0  3.968746  0  0  -0.367371  0  3.972778  0  0  -0.138193  -0.357005  0  3.966085  0
C  C57  1  0.13845727  0.90065792  0.03130290  1  0  -0.333245  0  3.743352  0  0  -0.361315  0  3.968808  0  0  -0.367438  0  3.972841  0  0  -0.138247  -0.357058  0  3.966145  0
C  C58  1  0.79739407  0.00561728  0.82454543  1  0  0.367766  0  3.702705  0  0  0.351247  0  3.983842  0  0  0.362885  0  3.999777  0  0  0.190484  0.343218  0  3.973163  0
C  C59  1  0.20260074  0.99437590  0.17545261  1  0  0.36791  0  3.702644  0  0  0.35138  0  3.983784  0  0  0.363019  0  3.999726  0  0  0.190572  0.34335  0  3.9731  0
C  C60  1  0.45534968  0.73050220  0.14326052  1  0  0.689091  0  3.891977  0  0  0.64421  0  4.189173  0  0  0.676521  0  4.183988  0  0  0.205666  0.622355  0  4.191754  0
C  C61  1  0.54465043  0.26950090  0.85674141  1  0  0.689029  0  3.892194  0  0  0.644154  0  4.189374  0  0  0.676468  0  4.184186  0  0  0.205663  0.622301  0  4.191959  0
C  C62  1  0.52624873  0.80204200  0.05670775  1  0  -0.338775  0  3.716443  0  0  -0.369998  0  3.946211  0  0  -0.376485  0  3.949464  0  0  -0.134428  -0.365565  0  3.944049  0
C  C63  1  0.47375773  0.19796437  0.94329754  1  0  -0.338815  0  3.716328  0  0  -0.370006  0  3.946141  0  0  -0.3765  0  3.949402  0  0  -0.134446  -0.365576  0  3.943976  0
C  C64  1  0.61299012  0.96144645  0.12694330  1  0  0.37651  0  3.700113  0  0  0.359131  0  3.986848  0  0  0.370968  0  4.002621  0  0  0.198816  0.3508  0  3.976471  0
C  C65  1  0.38701226  0.03855666  0.87305742  1  0  0.376549  0  3.700085  0  0  0.35919  0  3.986784  0  0  0.371028  0  4.002558  0  0  0.198839  0.350863  0  3.97641  0
N  N66  1  0.17615211  0.66275620  0.30190035  1  0  -0.348593  0  3.322643  0  0  -0.259079  0  3.599841  0  0  -0.279759  0  3.615834  0  0  -0.337271  -0.245167  0  3.588663  0
N  N67  1  0.82384566  0.33724472  0.69809863  1  0  -0.348445  0  3.322569  0  0  -0.259029  0  3.599855  0  0  -0.279709  0  3.615846  0  0  -0.337239  -0.245119  0  3.588683  0
N  N68  1  0.47790080  0.52119880  0.33622826  1  0  -0.353702  0  3.335588  0  0  -0.262566  0  3.614196  0  0  -0.283519  0  3.629077  0  0  -0.339694  -0.24866  0  3.604248  0
N  N69  1  0.52209922  0.47879991  0.66376983  1  0  -0.353726  0  3.33552  0  0  -0.262585  0  3.614119  0  0  -0.283544  0  3.629007  0  0  -0.339708  -0.248681  0  3.60418  0
N  N70  1  0.74284576  0.92939609  0.70807220  1  0  -0.434703  0  2.620744  0  0  -0.409847  0  2.851423  0  0  -0.421167  0  2.864843  0  0  -0.306585  -0.402075  0  2.842375  0
N  N71  1  0.25714794  0.07059928  0.29192701  1  0  -0.43483  0  2.62067  0  0  -0.409962  0  2.851343  0  0  -0.421281  0  2.864758  0  0  -0.306663  -0.402191  0  2.842291  0
N  N72  1  0.68038334  0.08958303  0.18365444  1  0  -0.448052  0  2.607215  0  0  -0.423  0  2.83521  0  0  -0.43404  0  2.84645  0  0  -0.31065  -0.415424  0  2.827922  0
N  N73  1  0.31961853  0.91042336  0.81634970  1  0  -0.44805  0  2.607276  0  0  -0.423024  0  2.835295  0  0  -0.434064  0  2.846536  0  0  -0.310642  -0.415449  0  2.828012  0
O  O74  1  0.06021834  0.34676894  0.11753530  1  0  -0.649702  0  2.038824  0  0  -0.574169  0  2.311389  0  0  -0.602472  0  2.295704  0  0  -0.333082  -0.554267  0  2.321378  0
O  O75  1  0.93978335  0.65322645  0.88246236  1  0  -0.649752  0  2.038897  0  0  -0.574173  0  2.3114  0  0  -0.602476  0  2.295713  0  0  -0.333049  -0.55427  0  2.321389  0
O  O76  1  0.15512818  0.20828721  0.00059288  1  0  -0.628177  0  1.939732  0  0  -0.584524  0  2.163526  0  0  -0.607836  0  2.155761  0  0  -0.318051  -0.568316  0  2.168441  0
O  O77  1  0.84487290  0.79170712  0.99940075  1  0  -0.628106  0  1.939709  0  0  -0.584473  0  2.163494  0  0  -0.607789  0  2.155738  0  0  -0.318038  -0.568266  0  2.168408  0
O  O78  1  0.33073319  0.59886460  0.07374119  1  0  -0.631805  0  1.980801  0  0  -0.562782  0  2.237743  0  0  -0.590706  0  2.223999  0  0  -0.328374  -0.543011  0  2.246342  0
O  O79  1  0.66927317  0.40113740  0.92625937  1  0  -0.631761  0  1.980835  0  0  -0.562734  0  2.237779  0  0  -0.590654  0  2.224025  0  0  -0.328346  -0.542962  0  2.246375  0
O  O80  1  0.52177683  0.80003708  0.27187183  1  0  -0.622258  0  1.965512  0  0  -0.571835  0  2.191028  0  0  -0.595355  0  2.184463  0  0  -0.308606  -0.555275  0  2.19485  0
O  O81  1  0.47821583  0.19996492  0.72812972  1  0  -0.622277  0  1.965613  0  0  -0.571874  0  2.191149  0  0  -0.595395  0  2.184576  0  0  -0.308649  -0.555314  0  2.194976  0
