# generated using pymatgen
data_Zn3H6C10(N2O5)2
_symmetry_space_group_name_H-M   'P 1'
_cell_length_a   11.71318026
_cell_length_b   12.98522136
_cell_length_c   19.16979397
_cell_angle_alpha   89.99973650
_cell_angle_beta   90.00004558
_cell_angle_gamma   113.42551448
_symmetry_Int_Tables_number   1
_chemical_formula_structural   Zn3H6C10(N2O5)2
_chemical_formula_sum   'Zn12 H24 C40 N16 O40'
_cell_volume   2675.37380619
_cell_formula_units_Z   4
loop_
 _symmetry_equiv_pos_site_id
 _symmetry_equiv_pos_as_xyz
  1  'x, y, z'
loop_
 _atom_site_type_symbol
 _atom_site_label
 _atom_site_symmetry_multiplicity
 _atom_site_fract_x
 _atom_site_fract_y
 _atom_site_fract_z
 _atom_site_occupancy
 _atom_site_hle17_bader_spin_density
 _atom_site_hle17_ddec_charge
 _atom_site_hle17_ddec_spin_density
 _atom_site_hle17_ddec_sum_bond_order
 _atom_site_hle17_magmom
 _atom_site_hse06_10hf_bader_spin_density
 _atom_site_hse06_10hf_ddec_charge
 _atom_site_hse06_10hf_ddec_spin_density
 _atom_site_hse06_10hf_ddec_sum_bond_order
 _atom_site_hse06_10hf_magmom
 _atom_site_hse06_bader_spin_density
 _atom_site_hse06_ddec_charge
 _atom_site_hse06_ddec_spin_density
 _atom_site_hse06_ddec_sum_bond_order
 _atom_site_hse06_magmom
 _atom_site_pbe_bader_spin_density
 _atom_site_pbe_cm5_charge
 _atom_site_pbe_ddec_charge
 _atom_site_pbe_ddec_spin_density
 _atom_site_pbe_ddec_sum_bond_order
 _atom_site_pbe_magmom
Zn  Zn0  1  0.18822686  0.69474174  0.61817984  1  0  1.105455  0  1.776237  0  0  0.931448  0  2.23894  0  0  0.980682  0  2.179221  0  0  0.71276  0.896564  0  2.280361  0
Zn  Zn1  1  0.31177235  0.80525754  0.11818058  1  0  1.105496  0  1.776268  0  0  0.931505  0  2.238974  0  0  0.980734  0  2.179256  0  0  0.712784  0.896615  0  2.280397  0
Zn  Zn2  1  0.81177831  0.30525210  0.38181656  1  0  1.105501  0  1.776135  0  0  0.931488  0  2.238827  0  0  0.980718  0  2.179112  0  0  0.712768  0.896596  0  2.28025  0
Zn  Zn3  1  0.68822196  0.19474873  0.88181790  1  0  1.10546  0  1.7762  0  0  0.931444  0  2.238903  0  0  0.980675  0  2.179187  0  0  0.712747  0.896551  0  2.280322  0
Zn  Zn4  1  0.64339091  0.60068425  0.58806606  1  0  1.125188  0  1.784181  0  0  0.947882  0  2.254799  0  0  0.995132  0  2.195082  0  0  0.704852  0.914506  0  2.296208  0
Zn  Zn5  1  0.85660851  0.89931705  0.08806809  1  0  1.125165  0  1.784212  0  0  0.947873  0  2.254828  0  0  0.995124  0  2.19511  0  0  0.704869  0.914499  0  2.296238  0
Zn  Zn6  1  0.35661630  0.39931630  0.41193191  1  0  1.125242  0  1.784092  0  0  0.947953  0  2.254694  0  0  0.995204  0  2.194972  0  0  0.704905  0.914576  0  2.296103  0
Zn  Zn7  1  0.14338584  0.10068338  0.91193195  1  0  1.125251  0  1.784118  0  0  0.947973  0  2.254712  0  0  0.995222  0  2.194995  0  0  0.70492  0.914602  0  2.296121  0
Zn  Zn8  1  0.56411451  0.87311529  0.83247147  1  0  1.020463  0  1.8711  0  0  0.840004  0  2.335409  0  0  0.884318  0  2.283863  0  0  0.70615  0.808957  0  2.370853  0
Zn  Zn9  1  0.93588762  0.62688170  0.33247179  1  0  1.020469  0  1.871083  0  0  0.840012  0  2.33539  0  0  0.884323  0  2.283845  0  0  0.70615  0.808965  0  2.370838  0
Zn  Zn10  1  0.43588249  0.12687346  0.16753014  1  0  1.020451  0  1.8711  0  0  0.83998  0  2.335422  0  0  0.884292  0  2.283877  0  0  0.706142  0.808935  0  2.37087  0
Zn  Zn11  1  0.06411490  0.37312383  0.66752878  1  0  1.020439  0  1.871133  0  0  0.839972  0  2.335466  0  0  0.884287  0  2.283918  0  0  0.70613  0.80893  0  2.370913  0
H  H12  1  0.18770637  0.67190162  0.44264851  1  0  0.101369  0  0.903716  0  0  0.113162  0  0.959268  0  0  0.115912  0  0.956027  0  0  0.14244  0.111023  0  0.961761  0
H  H13  1  0.31229290  0.82809691  0.94264637  1  0  0.101322  0  0.90379  0  0  0.113118  0  0.959338  0  0  0.11587  0  0.956095  0  0  0.142449  0.110982  0  0.961829  0
H  H14  1  0.81230080  0.32810479  0.55735258  1  0  0.101353  0  0.903653  0  0  0.113135  0  0.959219  0  0  0.115886  0  0.955977  0  0  0.142426  0.110972  0  0.961741  0
H  H15  1  0.68770004  0.17189431  0.05735472  1  0  0.101385  0  0.903702  0  0  0.113173  0  0.959258  0  0  0.115925  0  0.956015  0  0  0.142429  0.111034  0  0.961753  0
H  H16  1  0.18215913  0.56858850  0.74294820  1  0  0.449077  0  0.776683  0  0  0.435992  0  0.817696  0  0  0.442826  0  0.811748  0  0  0.35246  0.431087  0  0.822037  0
H  H17  1  0.31783581  0.93140647  0.24294959  1  0  0.44904  0  0.776628  0  0  0.435944  0  0.817661  0  0  0.442776  0  0.811715  0  0  0.352409  0.431037  0  0.822004  0
H  H18  1  0.81784461  0.43141787  0.25705707  1  0  0.449056  0  0.776597  0  0  0.436059  0  0.81747  0  0  0.442891  0  0.811522  0  0  0.352491  0.431153  0  0.821811  0
H  H19  1  0.68215347  0.06858221  0.75705880  1  0  0.449116  0  0.776566  0  0  0.436123  0  0.817438  0  0  0.442955  0  0.811489  0  0  0.352523  0.431216  0  0.82178  0
H  H20  1  0.05942539  0.56772571  0.70599159  1  0  0.460456  0  0.811108  0  0  0.429328  0  0.880554  0  0  0.440566  0  0.864192  0  0  0.318499  0.421328  0  0.892209  0
H  H21  1  0.44057193  0.93227290  0.20599305  1  0  0.460414  0  0.811177  0  0  0.429277  0  0.880641  0  0  0.440515  0  0.864279  0  0  0.318473  0.421276  0  0.892298  0
H  H22  1  0.94058313  0.43227987  0.29400898  1  0  0.460415  0  0.811161  0  0  0.429264  0  0.88065  0  0  0.440503  0  0.864287  0  0  0.318433  0.421258  0  0.892311  0
H  H23  1  0.55941722  0.06771745  0.79401170  1  0  0.460428  0  0.811178  0  0  0.42929  0  0.880614  0  0  0.440528  0  0.864253  0  0  0.318464  0.421288  0  0.892273  0
H  H24  1  0.71266598  0.72496671  0.74843171  1  0  0.103057  0  0.899651  0  0  0.114334  0  0.954604  0  0  0.1172  0  0.951266  0  0  0.145189  0.112146  0  0.957119  0
H  H25  1  0.78733239  0.77503171  0.24843202  1  0  0.103103  0  0.899672  0  0  0.114382  0  0.954615  0  0  0.117249  0  0.951276  0  0  0.145212  0.112195  0  0.957129  0
H  H26  1  0.28733134  0.27502873  0.25157094  1  0  0.103128  0  0.899582  0  0  0.114388  0  0.954549  0  0  0.117256  0  0.951209  0  0  0.145193  0.112202  0  0.957065  0
H  H27  1  0.21267099  0.22497382  0.75157168  1  0  0.103122  0  0.899591  0  0  0.114381  0  0.95456  0  0  0.117249  0  0.95122  0  0  0.145192  0.112196  0  0.957074  0
H  H28  1  0.53888644  0.40380157  0.54349257  1  0  0.436861  0  0.862898  0  0  0.402677  0  0.930113  0  0  0.414847  0  0.912554  0  0  0.293204  0.39408  0  0.942509  0
H  H29  1  0.96111258  0.09619928  0.04349299  1  0  0.436902  0  0.862831  0  0  0.402718  0  0.930046  0  0  0.414887  0  0.912489  0  0  0.293206  0.394123  0  0.94244  0
H  H30  1  0.46111233  0.59619723  0.45650644  1  0  0.436882  0  0.86286  0  0  0.402699  0  0.930076  0  0  0.414867  0  0.91252  0  0  0.293228  0.394103  0  0.94247  0
H  H31  1  0.03888507  0.90380285  0.95650810  1  0  0.436823  0  0.862953  0  0  0.402637  0  0.930175  0  0  0.414807  0  0.912615  0  0  0.293197  0.39404  0  0.942569  0
H  H32  1  0.45143021  0.41806601  0.60009250  1  0  0.435415  0  0.820719  0  0  0.407083  0  0.894148  0  0  0.417274  0  0.881856  0  0  0.310271  0.399727  0  0.902885  0
H  H33  1  0.04856963  0.08193515  0.10009329  1  0  0.435424  0  0.820762  0  0  0.407113  0  0.894148  0  0  0.417304  0  0.881822  0  0  0.310293  0.39976  0  0.902883  0
H  H34  1  0.54856743  0.58193612  0.39990389  1  0  0.435387  0  0.820778  0  0  0.407069  0  0.894194  0  0  0.41726  0  0.881879  0  0  0.310261  0.399714  0  0.902929  0
H  H35  1  0.95143293  0.91806452  0.89990363  1  0  0.435382  0  0.820784  0  0  0.407064  0  0.894201  0  0  0.417255  0  0.881886  0  0  0.310262  0.39971  0  0.902935  0
C  C36  1  0.09956177  0.66231166  0.46592314  1  0  0.269909  0  3.690464  0  0  0.208438  0  3.965631  0  0  0.222831  0  3.979158  0  0  0.148899  0.198952  0  3.956019  0
C  C37  1  0.40043696  0.83768752  0.96592206  1  0  0.270089  0  3.69045  0  0  0.208634  0  3.965599  0  0  0.223025  0  3.979128  0  0  0.148972  0.199143  0  3.955992  0
C  C38  1  0.90044381  0.33769305  0.53407638  1  0  0.270005  0  3.690405  0  0  0.208552  0  3.965554  0  0  0.222948  0  3.979079  0  0  0.14893  0.199084  0  3.955946  0
C  C39  1  0.59955743  0.16230706  0.03407851  1  0  0.269991  0  3.690545  0  0  0.208528  0  3.965703  0  0  0.22292  0  3.979232  0  0  0.148975  0.199039  0  3.956093  0
C  C40  1  0.42166831  0.66350482  0.57968970  1  0  0.665614  0  3.923247  0  0  0.6121  0  4.220884  0  0  0.647089  0  4.211989  0  0  0.217128  0.588305  0  4.226092  0
C  C41  1  0.07833035  0.83649726  0.07969180  1  0  0.665831  0  3.922679  0  0  0.611923  0  4.220919  0  0  0.646921  0  4.212031  0  0  0.217116  0.588127  0  4.226125  0
C  C42  1  0.57833903  0.33649407  0.42030565  1  0  0.665765  0  3.922564  0  0  0.611855  0  4.220808  0  0  0.646859  0  4.211917  0  0  0.217046  0.588054  0  4.226018  0
C  C43  1  0.92166066  0.16350731  0.92030668  1  0  0.665461  0  3.923126  0  0  0.611972  0  4.220714  0  0  0.646974  0  4.211821  0  0  0.217107  0.588172  0  4.225925  0
C  C44  1  0.63028302  0.72752753  0.72386804  1  0  0.267759  0  3.695204  0  0  0.209297  0  3.965724  0  0  0.223563  0  3.978859  0  0  0.150402  0.199989  0  3.956414  0
C  C45  1  0.86971734  0.77247360  0.22386892  1  0  0.267702  0  3.695169  0  0  0.209236  0  3.965692  0  0  0.223503  0  3.978822  0  0  0.150372  0.19993  0  3.956382  0
C  C46  1  0.36971904  0.27247298  0.27613148  1  0  0.267579  0  3.695164  0  0  0.209121  0  3.965682  0  0  0.223385  0  3.978815  0  0  0.150363  0.199813  0  3.956374  0
C  C47  1  0.13028251  0.22752772  0.77613217  1  0  0.267602  0  3.69517  0  0  0.209149  0  3.965693  0  0  0.223414  0  3.978826  0  0  0.150324  0.199842  0  3.956387  0
C  C48  1  0.46342499  0.76096580  0.70519795  1  0  -0.0381  0  3.773561  0  0  -0.045904  0  4.028778  0  0  -0.049874  0  4.052523  0  0  0.057091  -0.043392  0  4.012769  0
C  C49  1  0.03657770  0.73903538  0.20519981  1  0  -0.038114  0  3.773677  0  0  -0.045925  0  4.02888  0  0  -0.049884  0  4.052628  0  0  0.057094  -0.043413  0  4.012869  0
C  C50  1  0.53657748  0.23902969  0.29479792  1  0  -0.03814  0  3.773574  0  0  -0.045956  0  4.028788  0  0  -0.049915  0  4.05254  0  0  0.057053  -0.043448  0  4.012781  0
C  C51  1  0.96342468  0.26097182  0.79479763  1  0  -0.037999  0  3.773555  0  0  -0.04581  0  4.028771  0  0  -0.049767  0  4.052521  0  0  0.057106  -0.0433  0  4.012763  0
C  C52  1  0.37581989  0.81405388  0.72462581  1  0  0.6378  0  3.947026  0  0  0.590274  0  4.242588  0  0  0.625561  0  4.234114  0  0  0.205512  0.566168  0  4.247753  0
C  C53  1  0.12418398  0.68594799  0.22462631  1  0  0.637827  0  3.947143  0  0  0.590301  0  4.242715  0  0  0.625586  0  4.234242  0  0  0.205527  0.566194  0  4.247879  0
C  C54  1  0.62418195  0.18594411  0.27537007  1  0  0.637942  0  3.946813  0  0  0.590409  0  4.242383  0  0  0.625696  0  4.233905  0  0  0.205566  0.566304  0  4.247549  0
C  C55  1  0.87581709  0.31405417  0.77537009  1  0  0.637827  0  3.94697  0  0  0.590301  0  4.242525  0  0  0.625586  0  4.234051  0  0  0.205514  0.566194  0  4.24769  0
C  C56  1  0.48168346  0.70150143  0.64844157  1  0  -0.005221  0  3.761486  0  0  -0.011308  0  4.015317  0  0  -0.012904  0  4.037309  0  0  0.070381  -0.010042  0  4.000135  0
C  C57  1  0.01831641  0.79849931  0.14844480  1  0  -0.005301  0  3.761538  0  0  -0.01123  0  4.015398  0  0  -0.012853  0  4.037424  0  0  0.070419  -0.009961  0  4.000213  0
C  C58  1  0.51832095  0.29849659  0.35155639  1  0  -0.005252  0  3.761486  0  0  -0.011201  0  4.015374  0  0  -0.012831  0  4.037409  0  0  0.070442  -0.009929  0  4.000189  0
C  C59  1  0.98167902  0.20150364  0.85155629  1  0  -0.005214  0  3.761655  0  0  -0.011298  0  4.015449  0  0  -0.012924  0  4.037479  0  0  0.070404  -0.010026  0  4.000265  0
C  C60  1  0.90355030  0.63388712  0.47840553  1  0  -0.008462  0  3.755339  0  0  -0.014515  0  4.005391  0  0  -0.017445  0  4.028065  0  0  0.071154  -0.012633  0  3.99009  0
C  C61  1  0.59644819  0.86611292  0.97840681  1  0  -0.008442  0  3.755186  0  0  -0.014565  0  4.005346  0  0  -0.017483  0  4.028005  0  0  0.071134  -0.012684  0  3.990045  0
C  C62  1  0.09645347  0.36611340  0.52159296  1  0  -0.008518  0  3.755079  0  0  -0.014577  0  4.005211  0  0  -0.017517  0  4.027896  0  0  0.071089  -0.012696  0  3.989912  0
C  C63  1  0.40354788  0.13388753  0.02159324  1  0  -0.008456  0  3.755181  0  0  -0.014533  0  4.005285  0  0  -0.01746  0  4.027951  0  0  0.071108  -0.012654  0  3.989986  0
C  C64  1  0.91695599  0.64251590  0.61860316  1  0  0.671858  0  3.908304  0  0  0.622205  0  4.20246  0  0  0.657435  0  4.193643  0  0  0.21876  0.598218  0  4.207584  0
C  C65  1  0.58303850  0.85748179  0.11860467  1  0  0.671961  0  3.908193  0  0  0.622288  0  4.202395  0  0  0.657515  0  4.19358  0  0  0.218821  0.598304  0  4.207516  0
C  C66  1  0.08304124  0.35747537  0.38139845  1  0  0.671859  0  3.908266  0  0  0.622169  0  4.202534  0  0  0.657396  0  4.19372  0  0  0.218623  0.598182  0  4.207656  0
C  C67  1  0.41695789  0.14252535  0.88139903  1  0  0.671974  0  3.908029  0  0  0.622272  0  4.202279  0  0  0.657498  0  4.193464  0  0  0.21871  0.598286  0  4.207401  0
C  C68  1  0.95816374  0.64881307  0.54454133  1  0  -0.010935  0  3.74505  0  0  -0.017529  0  3.995013  0  0  -0.020189  0  4.01836  0  0  0.071928  -0.015813  0  3.979232  0
C  C69  1  0.54183212  0.85118601  0.04454232  1  0  -0.010904  0  3.744964  0  0  -0.017493  0  3.994993  0  0  -0.020154  0  4.018337  0  0  0.071963  -0.015781  0  3.979211  0
C  C70  1  0.04183764  0.35117990  0.45546028  1  0  -0.010997  0  3.744959  0  0  -0.017664  0  3.995075  0  0  -0.020318  0  4.018421  0  0  0.071854  -0.015948  0  3.979294  0
C  C71  1  0.45816670  0.14882282  0.95546086  1  0  -0.01103  0  3.745131  0  0  -0.017611  0  3.995135  0  0  -0.020268  0  4.018478  0  0  0.071932  -0.015897  0  3.979353  0
C  C72  1  0.78042488  0.61741418  0.44930923  1  0  0.65426  0  3.93061  0  0  0.604211  0  4.224141  0  0  0.639469  0  4.215579  0  0  0.213688  0.580274  0  4.229083  0
C  C73  1  0.71957489  0.88258693  0.94931156  1  0  0.654194  0  3.93037  0  0  0.604186  0  4.223893  0  0  0.639441  0  4.215331  0  0  0.213689  0.580249  0  4.228837  0
C  C74  1  0.21958486  0.38259225  0.55069082  1  0  0.654295  0  3.930076  0  0  0.60426  0  4.223617  0  0  0.639521  0  4.215057  0  0  0.21378  0.580324  0  4.228559  0
C  C75  1  0.28041814  0.11740848  0.05069057  1  0  0.654351  0  3.930138  0  0  0.604294  0  4.223711  0  0  0.639552  0  4.215149  0  0  0.21376  0.580358  0  4.228654  0
N  N76  1  0.08139275  0.66755867  0.53468183  1  0  -0.433064  0  3.336351  0  0  -0.355688  0  3.634087  0  0  -0.378206  0  3.64829  0  0  -0.36674  -0.340194  0  3.623944  0
N  N77  1  0.41860371  0.83244038  0.03468150  1  0  -0.433213  0  3.336459  0  0  -0.355841  0  3.63422  0  0  -0.37836  0  3.648421  0  0  -0.36685  -0.340348  0  3.624081  0
N  N78  1  0.91860972  0.33243682  0.46531874  1  0  -0.433155  0  3.336431  0  0  -0.35574  0  3.634159  0  0  -0.37826  0  3.648361  0  0  -0.366785  -0.340244  0  3.624005  0
N  N79  1  0.58139281  0.16756508  0.96532064  1  0  -0.433132  0  3.336554  0  0  -0.355743  0  3.634261  0  0  -0.378263  0  3.648465  0  0  -0.36683  -0.340247  0  3.62411  0
N  N80  1  0.58712862  0.68197604  0.66147568  1  0  -0.419577  0  3.283039  0  0  -0.344761  0  3.575779  0  0  -0.365854  0  3.588411  0  0  -0.352956  -0.330435  0  3.566903  0
N  N81  1  0.91287223  0.81802640  0.16147643  1  0  -0.419482  0  3.283044  0  0  -0.344674  0  3.575756  0  0  -0.365758  0  3.588393  0  0  -0.352906  -0.330348  0  3.566881  0
N  N82  1  0.41287760  0.31802618  0.33852333  1  0  -0.419466  0  3.283078  0  0  -0.34465  0  3.575771  0  0  -0.365728  0  3.588409  0  0  -0.352919  -0.330326  0  3.566894  0
N  N83  1  0.08712383  0.18197405  0.83852414  1  0  -0.419458  0  3.283081  0  0  -0.34464  0  3.575796  0  0  -0.365722  0  3.588435  0  0  -0.352901  -0.330316  0  3.566921  0
N  N84  1  0.55917094  0.77642285  0.75179626  1  0  -0.437478  0  3.335477  0  0  -0.358707  0  3.63483  0  0  -0.379728  0  3.647775  0  0  -0.371698  -0.344344  0  3.62568  0
N  N85  1  0.94083023  0.72357807  0.25179628  1  0  -0.437539  0  3.335544  0  0  -0.358775  0  3.634911  0  0  -0.379794  0  3.647852  0  0  -0.371733  -0.344412  0  3.625762  0
N  N86  1  0.44083162  0.22357682  0.24820326  1  0  -0.437397  0  3.33549  0  0  -0.358616  0  3.634831  0  0  -0.379635  0  3.647775  0  0  -0.371627  -0.344255  0  3.625685  0
N  N87  1  0.05917243  0.27642578  0.74820376  1  0  -0.43749  0  3.335488  0  0  -0.35872  0  3.634848  0  0  -0.379741  0  3.647789  0  0  -0.371638  -0.34436  0  3.625704  0
N  N88  1  0.99439090  0.64223183  0.43024592  1  0  -0.427565  0  3.318395  0  0  -0.34949  0  3.616486  0  0  -0.370738  0  3.630169  0  0  -0.368661  -0.335068  0  3.606989  0
N  N89  1  0.50560818  0.85776774  0.93024561  1  0  -0.427622  0  3.318347  0  0  -0.349536  0  3.616461  0  0  -0.370789  0  3.630142  0  0  -0.368656  -0.335115  0  3.606965  0
N  N90  1  0.00561784  0.35777626  0.56975361  1  0  -0.427513  0  3.318318  0  0  -0.349432  0  3.616406  0  0  -0.37068  0  3.630093  0  0  -0.368515  -0.335009  0  3.606899  0
N  N91  1  0.49438598  0.14222433  0.06975548  1  0  -0.427582  0  3.318318  0  0  -0.349497  0  3.616418  0  0  -0.370749  0  3.630102  0  0  -0.368563  -0.335076  0  3.606922  0
O  O92  1  0.31624953  0.66366146  0.56406040  1  0  -0.642466  0  2.08574  0  0  -0.580113  0  2.361404  0  0  -0.608286  0  2.344748  0  0  -0.326237  -0.560556  0  2.372221  0
O  O93  1  0.18375151  0.83633825  0.06406151  1  0  -0.642566  0  2.085403  0  0  -0.580087  0  2.361269  0  0  -0.60826  0  2.344612  0  0  -0.326283  -0.560529  0  2.372083  0
O  O94  1  0.68375650  0.33633239  0.43593860  1  0  -0.642452  0  2.085246  0  0  -0.579953  0  2.361081  0  0  -0.608123  0  2.344422  0  0  -0.32623  -0.560395  0  2.371894  0
O  O95  1  0.81624352  0.16366971  0.93593802  1  0  -0.642349  0  2.085464  0  0  -0.579998  0  2.361111  0  0  -0.608167  0  2.344451  0  0  -0.32626  -0.560439  0  2.371926  0
O  O96  1  0.48424220  0.63127562  0.53741858  1  0  -0.61906  0  2.087357  0  0  -0.548649  0  2.322897  0  0  -0.575773  0  2.309697  0  0  -0.293782  -0.52986  0  2.331476  0
O  O97  1  0.01575790  0.86872595  0.03741950  1  0  -0.619109  0  2.087232  0  0  -0.548567  0  2.322959  0  0  -0.575696  0  2.309763  0  0  -0.29377  -0.529779  0  2.331538  0
O  O98  1  0.51576840  0.36873082  0.46258043  1  0  -0.619232  0  2.087173  0  0  -0.548692  0  2.322916  0  0  -0.575831  0  2.309723  0  0  -0.293786  -0.529901  0  2.331494  0
O  O99  1  0.98423085  0.13126941  0.96258003  1  0  -0.619141  0  2.087358  0  0  -0.548743  0  2.322895  0  0  -0.575879  0  2.309701  0  0  -0.293794  -0.529952  0  2.331475  0
O  O100  1  0.40008767  0.87003257  0.78097792  1  0  -0.597105  0  1.974519  0  0  -0.539265  0  2.21375  0  0  -0.564127  0  2.199186  0  0  -0.320326  -0.521882  0  2.223279  0
O  O101  1  0.09991510  0.62997055  0.28098015  1  0  -0.597129  0  1.97456  0  0  -0.539299  0  2.213803  0  0  -0.564162  0  2.19924  0  0  -0.320352  -0.521918  0  2.223332  0
O  O102  1  0.59990248  0.12995612  0.21901952  1  0  -0.597276  0  1.974266  0  0  -0.53942  0  2.213505  0  0  -0.564282  0  2.198938  0  0  -0.320451  -0.522038  0  2.223035  0
O  O103  1  0.90009243  0.37003669  0.71901729  1  0  -0.597206  0  1.974312  0  0  -0.539349  0  2.213536  0  0  -0.564212  0  2.198973  0  0  -0.320391  -0.521968  0  2.223065  0
O  O104  1  0.53947425  0.43268879  0.59268136  1  0  -0.807314  0  1.855071  0  0  -0.740053  0  2.057772  0  0  -0.762222  0  2.023565  0  0  -0.56916  -0.724482  0  2.081673  0
O  O105  1  0.96052589  0.06731254  0.09268293  1  0  -0.807352  0  1.855084  0  0  -0.740098  0  2.057764  0  0  -0.762271  0  2.02353  0  0  -0.569174  -0.724529  0  2.08166  0
O  O106  1  0.46052402  0.56731084  0.40731660  1  0  -0.807336  0  1.855132  0  0  -0.740085  0  2.057829  0  0  -0.762257  0  2.023607  0  0  -0.569194  -0.724517  0  2.081724  0
O  O107  1  0.03947568  0.93268879  0.90731817  1  0  -0.807275  0  1.855199  0  0  -0.740026  0  2.057901  0  0  -0.762197  0  2.023676  0  0  -0.569164  -0.724456  0  2.081795  0
O  O108  1  0.28191706  0.80475657  0.68686170  1  0  -0.628099  0  2.070524  0  0  -0.559529  0  2.337089  0  0  -0.586746  0  2.316418  0  0  -0.333075  -0.54065  0  2.351163  0
O  O109  1  0.21808445  0.69524389  0.18686274  1  0  -0.628076  0  2.07063  0  0  -0.559506  0  2.337198  0  0  -0.586721  0  2.316531  0  0  -0.333064  -0.540626  0  2.35127  0
O  O110  1  0.71809232  0.19524902  0.31312844  1  0  -0.628142  0  2.07057  0  0  -0.55958  0  2.337158  0  0  -0.586794  0  2.316484  0  0  -0.33307  -0.540701  0  2.351236  0
O  O111  1  0.78190737  0.30475066  0.81312792  1  0  -0.628096  0  2.070612  0  0  -0.559535  0  2.337191  0  0  -0.586749  0  2.316519  0  0  -0.333063  -0.540656  0  2.351267  0
O  O112  1  0.13354136  0.54805430  0.70011155  1  0  -0.805007  0  1.945932  0  0  -0.736249  0  2.17619  0  0  -0.758398  0  2.1429  0  0  -0.529015  -0.720645  0  2.199322  0
O  O113  1  0.36645683  0.95194436  0.20011239  1  0  -0.804926  0  1.945874  0  0  -0.736152  0  2.176133  0  0  -0.758298  0  2.142847  0  0  -0.528941  -0.720548  0  2.199268  0
O  O114  1  0.86646594  0.45195043  0.29989267  1  0  -0.805014  0  1.945921  0  0  -0.73631  0  2.176085  0  0  -0.758454  0  2.142791  0  0  -0.528987  -0.720699  0  2.199237  0
O  O115  1  0.63353341  0.04804851  0.79989444  1  0  -0.805076  0  1.945902  0  0  -0.736391  0  2.176061  0  0  -0.758538  0  2.142765  0  0  -0.529047  -0.72079  0  2.199205  0
O  O116  1  0.00237518  0.65652395  0.66409323  1  0  -0.647638  0  1.977489  0  0  -0.583967  0  2.212676  0  0  -0.610395  0  2.196019  0  0  -0.32421  -0.565444  0  2.223757  0
O  O117  1  0.49761857  0.84347243  0.16409343  1  0  -0.647702  0  1.97747  0  0  -0.584015  0  2.212673  0  0  -0.61044  0  2.196016  0  0  -0.324277  -0.565492  0  2.223756  0
O  O118  1  0.99763049  0.34346907  0.33590786  1  0  -0.647516  0  1.977508  0  0  -0.583814  0  2.212718  0  0  -0.610241  0  2.196065  0  0  -0.324057  -0.565288  0  2.223798  0
O  O119  1  0.50237416  0.15653216  0.83590871  1  0  -0.647577  0  1.977382  0  0  -0.583883  0  2.212592  0  0  -0.61031  0  2.195937  0  0  -0.324131  -0.565358  0  2.223672  0
O  O120  1  0.80607463  0.62421546  0.63526688  1  0  -0.617716  0  2.054156  0  0  -0.555559  0  2.319407  0  0  -0.582378  0  2.301009  0  0  -0.312917  -0.536854  0  2.331612  0
O  O121  1  0.69391896  0.87578209  0.13526682  1  0  -0.617732  0  2.054148  0  0  -0.555579  0  2.319411  0  0  -0.582395  0  2.301014  0  0  -0.312921  -0.536876  0  2.331615  0
O  O122  1  0.19392355  0.37577999  0.36473473  1  0  -0.617779  0  2.054072  0  0  -0.555607  0  2.319342  0  0  -0.582426  0  2.300945  0  0  -0.312916  -0.536903  0  2.331547  0
O  O123  1  0.30607818  0.12422088  0.86473479  1  0  -0.61781  0  2.05406  0  0  -0.555652  0  2.319339  0  0  -0.582468  0  2.300942  0  0  -0.312956  -0.536949  0  2.331545  0
O  O124  1  0.69295637  0.61898487  0.48772276  1  0  -0.634618  0  2.131989  0  0  -0.564006  0  2.403452  0  0  -0.591927  0  2.386217  0  0  -0.314572  -0.544593  0  2.414804  0
O  O125  1  0.80704463  0.88102098  0.98772619  1  0  -0.634592  0  2.131871  0  0  -0.563986  0  2.40333  0  0  -0.591909  0  2.386099  0  0  -0.314608  -0.544575  0  2.414685  0
O  O126  1  0.30705297  0.38102657  0.51227468  1  0  -0.634657  0  2.131763  0  0  -0.564018  0  2.403198  0  0  -0.591939  0  2.385964  0  0  -0.314659  -0.544608  0  2.414552  0
O  O127  1  0.19294976  0.11897360  0.01227386  1  0  -0.634688  0  2.131826  0  0  -0.564065  0  2.403293  0  0  -0.591987  0  2.386059  0  0  -0.314654  -0.544656  0  2.414651  0
O  O128  1  0.76742767  0.60526209  0.38303518  1  0  -0.625089  0  1.944679  0  0  -0.563129  0  2.188234  0  0  -0.589497  0  2.173718  0  0  -0.327428  -0.544413  0  2.197458  0
O  O129  1  0.73257214  0.89473533  0.88303697  1  0  -0.625052  0  1.944613  0  0  -0.563099  0  2.188162  0  0  -0.589468  0  2.173644  0  0  -0.32739  -0.544382  0  2.197385  0
O  O130  1  0.23257999  0.39474348  0.61696486  1  0  -0.625072  0  1.944571  0  0  -0.563129  0  2.188134  0  0  -0.589495  0  2.173613  0  0  -0.327428  -0.544415  0  2.197359  0
O  O131  1  0.26742166  0.10525590  0.11696464  1  0  -0.625096  0  1.944523  0  0  -0.563133  0  2.188088  0  0  -0.589499  0  2.173567  0  0  -0.327404  -0.544416  0  2.197311  0
