# generated using pymatgen
data_HoH6C9O7
_symmetry_space_group_name_H-M   'P 1'
_cell_length_a   7.03086253
_cell_length_b   7.56566488
_cell_length_c   10.19123934
_cell_angle_alpha   75.69346055
_cell_angle_beta   71.70623702
_cell_angle_gamma   88.28395019
_symmetry_Int_Tables_number   1
_chemical_formula_structural   HoH6C9O7
_chemical_formula_sum   'Ho2 H12 C18 O14'
_cell_volume   498.07518146
_cell_formula_units_Z   2
loop_
 _symmetry_equiv_pos_site_id
 _symmetry_equiv_pos_as_xyz
  1  'x, y, z'
loop_
 _atom_site_type_symbol
 _atom_site_label
 _atom_site_symmetry_multiplicity
 _atom_site_fract_x
 _atom_site_fract_y
 _atom_site_fract_z
 _atom_site_occupancy
 _atom_site_hle17_bader_spin_density
 _atom_site_hle17_ddec_charge
 _atom_site_hle17_ddec_spin_density
 _atom_site_hle17_ddec_sum_bond_order
 _atom_site_hle17_magmom
 _atom_site_hse06_10hf_bader_spin_density
 _atom_site_hse06_10hf_ddec_charge
 _atom_site_hse06_10hf_ddec_spin_density
 _atom_site_hse06_10hf_ddec_sum_bond_order
 _atom_site_hse06_10hf_magmom
 _atom_site_hse06_bader_spin_density
 _atom_site_hse06_ddec_charge
 _atom_site_hse06_ddec_spin_density
 _atom_site_hse06_ddec_sum_bond_order
 _atom_site_hse06_magmom
 _atom_site_pbe_bader_spin_density
 _atom_site_pbe_cm5_charge
 _atom_site_pbe_ddec_charge
 _atom_site_pbe_ddec_spin_density
 _atom_site_pbe_ddec_sum_bond_order
 _atom_site_pbe_magmom
Ho  Ho0  1  0.81191309  0.21553087  0.01651018  1  0  2.26422  0  1.654717  0  0  2.121618  0  2.128722  0  0  2.24843  0  1.94059  0  0  1.539323  2.084833  0  2.161193  0
Ho  Ho1  1  0.18808874  0.78446924  0.98348873  1  0  2.264183  0  1.654838  0  0  2.121548  0  2.128888  0  0  2.248378  0  1.940728  0  0  1.539286  2.084784  0  2.161328  0
H  H2  1  0.72188210  0.84014377  0.16836582  1  0  0.432896  0  0.874603  0  0  0.401345  0  0.939707  0  0  0.411759  0  0.925064  0  0  0.301552  0.393958  0  0.950329  0
H  H3  1  0.27811810  0.15985362  0.83163689  1  0  0.43287  0  0.874636  0  0  0.401314  0  0.939757  0  0  0.411729  0  0.925112  0  0  0.30152  0.393927  0  0.95038  0
H  H4  1  0.50275355  0.91301362  0.16834759  1  0  0.455437  0  0.836583  0  0  0.426813  0  0.89551  0  0  0.437815  0  0.879708  0  0  0.308024  0.419254  0  0.906509  0
H  H5  1  0.49724814  0.08698376  0.83165283  1  0  0.455437  0  0.836573  0  0  0.426818  0  0.895494  0  0  0.437819  0  0.879692  0  0  0.308018  0.41926  0  0.90649  0
H  H6  1  0.44176903  0.30520988  0.34992891  1  0  0.111606  0  0.950069  0  0  0.11951  0  1.012843  0  0  0.122802  0  1.011523  0  0  0.11221  0.117155  0  1.013894  0
H  H7  1  0.55822682  0.69479022  0.65007327  1  0  0.111597  0  0.950085  0  0  0.119507  0  1.012849  0  0  0.122796  0  1.011536  0  0  0.112209  0.117154  0  1.013893  0
H  H8  1  0.80778608  0.70393721  0.41289000  1  0  0.096391  0  0.968756  0  0  0.105629  0  1.030157  0  0  0.108112  0  1.029758  0  0  0.105701  0.104111  0  1.030017  0
H  H9  1  0.19220969  0.29606152  0.58711147  1  0  0.09637  0  0.968731  0  0  0.105597  0  1.030154  0  0  0.10808  0  1.029754  0  0  0.105667  0.104079  0  1.030012  0
H  H10  1  0.33169890  0.87734398  0.40016655  1  0  0.103851  0  0.962093  0  0  0.112975  0  1.024704  0  0  0.116124  0  1.023459  0  0  0.107307  0.110734  0  1.025435  0
H  H11  1  0.66829987  0.12265475  0.59983328  1  0  0.103817  0  0.962107  0  0  0.112967  0  1.024686  0  0  0.116106  0  1.023457  0  0  0.107298  0.110725  0  1.025418  0
H  H12  1  0.78160185  0.10218186  0.34875068  1  0  0.103047  0  0.978299  0  0  0.108929  0  1.04655  0  0  0.111982  0  1.045651  0  0  0.111514  0.10581  0  1.049045  0
H  H13  1  0.21839691  0.89781687  0.65124915  1  0  0.103055  0  0.978295  0  0  0.108941  0  1.046528  0  0  0.111996  0  1.045634  0  0  0.111501  0.10582  0  1.049029  0
C  C14  1  0.46748855  0.38909521  0.41634135  1  0  -0.061858  0  3.697499  0  0  -0.083264  0  3.942733  0  0  -0.084123  0  3.961936  0  0  -0.074586  -0.082278  0  3.929158  0
C  C15  1  0.53250730  0.61090488  0.58365985  1  0  -0.061889  0  3.697554  0  0  -0.08331  0  3.942819  0  0  -0.084171  0  3.962021  0  0  -0.074614  -0.082323  0  3.929242  0
C  C16  1  0.78798337  0.51606612  0.22250436  1  0  0.750598  0  3.796226  0  0  0.703745  0  4.078243  0  0  0.7411  0  4.067838  0  0  0.253724  0.678534  0  4.087291  0
C  C17  1  0.21201982  0.48393127  0.77749573  1  0  0.750538  0  3.796306  0  0  0.703702  0  4.078319  0  0  0.741046  0  4.067931  0  0  0.253722  0.678489  0  4.087366  0
C  C18  1  0.41864822  0.43249795  0.05964978  1  0  0.554307  0  3.944972  0  0  0.514129  0  4.239535  0  0  0.543644  0  4.238383  0  0  0.211505  0.493666  0  4.245422  0
C  C19  1  0.58136559  0.56750218  0.94034552  1  0  0.554408  0  3.944972  0  0  0.514243  0  4.239484  0  0  0.543759  0  4.238333  0  0  0.211617  0.49378  0  4.24537  0
C  C20  1  0.64037278  0.50565253  0.36674394  1  0  -0.070774  0  3.73236  0  0  -0.049659  0  3.961522  0  0  -0.056075  0  3.981497  0  0  -0.009955  -0.044607  0  3.946506  0
C  C21  1  0.35962464  0.49434894  0.63325666  1  0  -0.070676  0  3.732302  0  0  -0.049575  0  3.961492  0  0  -0.055984  0  3.981466  0  0  -0.009911  -0.044521  0  3.946473  0
C  C22  1  0.67202016  0.61577811  0.45111492  1  0  -0.059553  0  3.713949  0  0  -0.079933  0  3.9577  0  0  -0.080186  0  3.976789  0  0  -0.07644  -0.07989  0  3.944057  0
C  C23  1  0.32797719  0.38422199  0.54888595  1  0  -0.059582  0  3.713829  0  0  -0.079963  0  3.957594  0  0  -0.080219  0  3.976683  0  0  -0.076444  -0.07992  0  3.943952  0
C  C24  1  0.06452021  0.99009998  0.35724939  1  0  -0.048179  0  3.71529  0  0  -0.026949  0  3.947822  0  0  -0.032106  0  3.965129  0  0  -0.002502  -0.023286  0  3.934901  0
C  C25  1  0.93548028  0.00990287  0.64275126  1  0  -0.04814  0  3.715243  0  0  -0.026914  0  3.947785  0  0  -0.03207  0  3.965091  0  0  -0.002476  -0.02325  0  3.934862  0
C  C26  1  0.12699964  0.96704927  0.20912627  1  0  0.713292  0  3.830669  0  0  0.661839  0  4.124832  0  0  0.698361  0  4.118916  0  0  0.230335  0.63694  0  4.133415  0
C  C27  1  0.87300063  0.03294948  0.79087520  1  0  0.713306  0  3.830616  0  0  0.661844  0  4.124792  0  0  0.698366  0  4.118873  0  0  0.230324  0.63695  0  4.13337  0
C  C28  1  0.18661355  0.93127206  0.44368141  1  0  -0.05802  0  3.694349  0  0  -0.080307  0  3.938816  0  0  -0.081194  0  3.958348  0  0  -0.074292  -0.07922  0  3.924738  0
C  C29  1  0.81338686  0.06872941  0.55631854  1  0  -0.057998  0  3.694298  0  0  -0.080291  0  3.938755  0  0  -0.081171  0  3.958287  0  0  -0.074288  -0.079203  0  3.924676  0
C  C30  1  0.87723073  0.05814522  0.41500616  1  0  -0.05698  0  3.699845  0  0  -0.080838  0  3.947846  0  0  -0.081777  0  3.967688  0  0  -0.072031  -0.080044  0  3.934423  0
C  C31  1  0.12276968  0.94185625  0.58499280  1  0  -0.056991  0  3.699835  0  0  -0.080833  0  3.947819  0  0  -0.081776  0  3.967668  0  0  -0.072018  -0.080039  0  3.934394  0
O  O32  1  0.63944180  0.94956403  0.16486170  1  0  -0.930874  0  1.882787  0  0  -0.884599  0  2.088607  0  0  -0.914826  0  2.050394  0  0  -0.661356  -0.870561  0  2.111112  0
O  O33  1  0.36055982  0.05043199  0.83513998  1  0  -0.930859  0  1.882792  0  0  -0.884588  0  2.088612  0  0  -0.914817  0  2.050398  0  0  -0.661332  -0.870555  0  2.111114  0
O  O34  1  0.47086551  0.27109279  0.09898215  1  0  -0.656179  0  2.042759  0  0  -0.609372  0  2.29105  0  0  -0.643022  0  2.280501  0  0  -0.378004  -0.591924  0  2.296077  0
O  O35  1  0.52913832  0.72891688  0.90101355  1  0  -0.656265  0  2.042409  0  0  -0.609465  0  2.290699  0  0  -0.643117  0  2.280145  0  0  -0.378083  -0.59202  0  2.295726  0
O  O36  1  0.80852638  0.37643438  0.17363347  1  0  -0.741079  0  2.122485  0  0  -0.69387  0  2.396877  0  0  -0.732686  0  2.380559  0  0  -0.400928  -0.675503  0  2.405378  0
O  O37  1  0.19147104  0.62356709  0.82636811  1  0  -0.741112  0  2.12245  0  0  -0.69389  0  2.396825  0  0  -0.732708  0  2.380513  0  0  -0.400961  -0.675526  0  2.40532  0
O  O38  1  0.88306404  0.67049914  0.15393269  1  0  -0.747364  0  2.078911  0  0  -0.685341  0  2.325308  0  0  -0.722109  0  2.309647  0  0  -0.383311  -0.667096  0  2.333603  0
O  O39  1  0.11694088  0.32950236  0.84606822  1  0  -0.747299  0  2.078989  0  0  -0.685275  0  2.325358  0  0  -0.722035  0  2.309695  0  0  -0.383288  -0.667027  0  2.333652  0
O  O40  1  0.24917083  0.49448524  0.10727320  1  0  -0.644943  0  2.052854  0  0  -0.605465  0  2.298495  0  0  -0.63748  0  2.288301  0  0  -0.371384  -0.589604  0  2.304031  0
O  O41  1  0.75082638  0.50551343  0.89271717  1  0  -0.644904  0  2.053102  0  0  -0.605429  0  2.298712  0  0  -0.637441  0  2.288522  0  0  -0.371357  -0.589567  0  2.304248  0
O  O42  1  0.03224832  0.03782370  0.12194563  1  0  -0.786694  0  2.109805  0  0  -0.729796  0  2.377173  0  0  -0.772931  0  2.364137  0  0  -0.402467  -0.711582  0  2.385361  0
O  O43  1  0.96775330  0.96217232  0.87805506  1  0  -0.786721  0  2.109732  0  0  -0.729844  0  2.377169  0  0  -0.772984  0  2.364138  0  0  -0.402471  -0.711628  0  2.385352  0
O  O44  1  0.26915111  0.86108178  0.17169916  1  0  -0.723155  0  2.025738  0  0  -0.66712  0  2.264556  0  0  -0.701601  0  2.251153  0  0  -0.37393  -0.649387  0  2.27193  0
O  O45  1  0.73085052  0.13891424  0.82830251  1  0  -0.723137  0  2.025699  0  0  -0.667124  0  2.264559  0  0  -0.701596  0  2.251153  0  0  -0.37393  -0.649399  0  2.271939  0
