# generated using pymatgen
data_GdH12C15(NO2)6
_symmetry_space_group_name_H-M   'P 1'
_cell_length_a   7.96402645
_cell_length_b   11.35026750
_cell_length_c   12.99934895
_cell_angle_alpha   83.58408588
_cell_angle_beta   81.01403344
_cell_angle_gamma   77.55351110
_symmetry_Int_Tables_number   1
_chemical_formula_structural   GdH12C15(NO2)6
_chemical_formula_sum   'Gd2 H24 C30 N12 O24'
_cell_volume   1129.64145579
_cell_formula_units_Z   2
loop_
 _symmetry_equiv_pos_site_id
 _symmetry_equiv_pos_as_xyz
  1  'x, y, z'
loop_
 _atom_site_type_symbol
 _atom_site_label
 _atom_site_symmetry_multiplicity
 _atom_site_fract_x
 _atom_site_fract_y
 _atom_site_fract_z
 _atom_site_occupancy
 _atom_site_hle17_bader_spin_density
 _atom_site_hle17_ddec_charge
 _atom_site_hle17_ddec_spin_density
 _atom_site_hle17_ddec_sum_bond_order
 _atom_site_hle17_magmom
 _atom_site_hse06_10hf_bader_spin_density
 _atom_site_hse06_10hf_ddec_charge
 _atom_site_hse06_10hf_ddec_spin_density
 _atom_site_hse06_10hf_ddec_sum_bond_order
 _atom_site_hse06_10hf_magmom
 _atom_site_hse06_bader_spin_density
 _atom_site_hse06_ddec_charge
 _atom_site_hse06_ddec_spin_density
 _atom_site_hse06_ddec_sum_bond_order
 _atom_site_hse06_magmom
 _atom_site_pbe_bader_spin_density
 _atom_site_pbe_cm5_charge
 _atom_site_pbe_ddec_charge
 _atom_site_pbe_ddec_spin_density
 _atom_site_pbe_ddec_sum_bond_order
 _atom_site_pbe_magmom
Gd  Gd0  1  0.76929542  0.83344356  0.72259284  1  0  1.992176  0  1.940718  0  0  1.859849  0  2.392217  0  0  1.933132  0  2.310487  0  0  1.469658  1.80585  0  2.451876  0
Gd  Gd1  1  0.23070915  0.16655649  0.27740801  1  0  1.992248  0  1.940603  0  0  1.859967  0  2.392145  0  0  1.933048  0  2.310614  0  0  1.46964  1.805782  0  2.451973  0
H  H2  1  0.06328943  0.72856538  0.42655527  1  0  0.120629  0  0.933385  0  0  0.12687  0  0.99818  0  0  0.129856  0  0.995564  0  0  0.134816  0.124662  0  1.000217  0
H  H3  1  0.93671500  0.27142644  0.57344934  1  0  0.120614  0  0.933488  0  0  0.126831  0  0.99837  0  0  0.129819  0  0.995748  0  0  0.134793  0.124627  0  1.000393  0
H  H4  1  0.30435653  0.56164511  0.37264744  1  0  0.126555  0  0.958078  0  0  0.132777  0  1.020167  0  0  0.137  0  1.016986  0  0  0.116168  0.129659  0  1.022782  0
H  H5  1  0.69563888  0.43834296  0.62736376  1  0  0.126601  0  0.958014  0  0  0.132785  0  1.020184  0  0  0.137037  0  1.01694  0  0  0.116209  0.129686  0  1.022761  0
H  H6  1  0.49873343  0.57679909  0.66429365  1  0  0.132262  0  0.942683  0  0  0.142862  0  0.996181  0  0  0.146476  0  0.994421  0  0  0.122665  0.140247  0  0.997679  0
H  H7  1  0.50127426  0.42319907  0.33571012  1  0  0.132173  0  0.942731  0  0  0.142781  0  0.996255  0  0  0.146379  0  0.994527  0  0  0.122663  0.140153  0  0.997777  0
H  H8  1  0.24566503  0.74100084  0.70664223  1  0  0.1349  0  0.927546  0  0  0.139822  0  0.992113  0  0  0.144565  0  0.986612  0  0  0.141178  0.13634  0  0.996118  0
H  H9  1  0.75435096  0.25899922  0.29335671  1  0  0.134849  0  0.92755  0  0  0.139769  0  0.992152  0  0  0.144506  0  0.986663  0  0  0.141184  0.136282  0  0.996169  0
H  H10  1  0.05102857  0.69496970  0.94691389  1  0  0.132496  0  0.902495  0  0  0.143817  0  0.954126  0  0  0.14724  0  0.950526  0  0  0.145756  0.141243  0  0.956942  0
H  H11  1  0.94896782  0.30502770  0.05308569  1  0  0.132558  0  0.902476  0  0  0.143852  0  0.9541  0  0  0.147267  0  0.950516  0  0  0.14577  0.141271  0  0.956931  0
H  H12  1  0.99085766  0.67564920  0.14392307  1  0  0.131229  0  0.95358  0  0  0.138353  0  1.012773  0  0  0.142157  0  1.01084  0  0  0.117112  0.135572  0  1.014403  0
H  H13  1  0.00913906  0.32434722  0.85607963  1  0  0.131245  0  0.953551  0  0  0.138374  0  1.012747  0  0  0.142211  0  1.01076  0  0  0.11714  0.13562  0  1.014331  0
H  H14  1  0.71397343  0.04750951  0.12651397  1  0  0.123615  0  0.961762  0  0  0.129206  0  1.026564  0  0  0.13238  0  1.025335  0  0  0.117382  0.126869  0  1.02774  0
H  H15  1  0.28602744  0.95248983  0.87348039  1  0  0.123571  0  0.961744  0  0  0.129165  0  1.026558  0  0  0.132339  0  1.025327  0  0  0.117334  0.12683  0  1.027734  0
H  H16  1  0.77829530  0.04952681  0.93088262  1  0  0.125873  0  0.922144  0  0  0.13467  0  0.980358  0  0  0.137738  0  0.978047  0  0  0.138721  0.132412  0  0.982101  0
H  H17  1  0.22170206  0.95047156  0.06911448  1  0  0.125912  0  0.922084  0  0  0.134692  0  0.980299  0  0  0.13776  0  0.977987  0  0  0.138737  0.132434  0  0.982042  0
H  H18  1  0.74219018  0.03726718  0.47041114  1  0  0.128912  0  0.919668  0  0  0.136234  0  0.97923  0  0  0.140031  0  0.975268  0  0  0.139547  0.133502  0  0.982111  0
H  H19  1  0.25783411  0.96273479  0.52958297  1  0  0.128924  0  0.91969  0  0  0.136262  0  0.979171  0  0  0.140057  0  0.975218  0  0  0.139583  0.133528  0  0.982059  0
H  H20  1  0.84639540  0.03845357  0.27647974  1  0  0.130081  0  0.962849  0  0  0.134093  0  1.030842  0  0  0.138414  0  1.028123  0  0  0.118938  0.130965  0  1.033034  0
H  H21  1  0.15361870  0.96154394  0.72351343  1  0  0.130061  0  0.962796  0  0  0.134071  0  1.030794  0  0  0.138392  0  1.028076  0  0  0.118956  0.130943  0  1.032986  0
H  H22  1  0.75296663  0.67565342  0.29022151  1  0  0.126874  0  0.929698  0  0  0.136777  0  0.985157  0  0  0.139943  0  0.984054  0  0  0.119839  0.134432  0  0.986247  0
H  H23  1  0.24702272  0.32434658  0.70978319  1  0  0.127016  0  0.929569  0  0  0.136881  0  0.985076  0  0  0.140062  0  0.983943  0  0  0.11988  0.134548  0  0.98614  0
H  H24  1  0.65289594  0.69089799  0.48310067  1  0  0.111334  0  0.961325  0  0  0.121087  0  1.023061  0  0  0.123168  0  1.021937  0  0  0.12928  0.119484  0  1.024122  0
H  H25  1  0.34710030  0.30910916  0.51690585  1  0  0.111353  0  0.96134  0  0  0.121048  0  1.023123  0  0  0.123123  0  1.022016  0  0  0.129256  0.11944  0  1.024195  0
C  C26  1  0.16200867  0.68813249  0.47593343  1  0  0.036607  0  3.579489  0  0  -0.006974  0  3.844481  0  0  0.002051  0  3.853798  0  0  0.051652  -0.012895  0  3.838569  0
C  C27  1  0.83799982  0.31185845  0.52407007  1  0  0.036476  0  3.579672  0  0  -0.007141  0  3.844689  0  0  0.001884  0  3.854008  0  0  0.051562  -0.013056  0  3.838758  0
C  C28  1  0.29972644  0.59572274  0.44799543  1  0  -0.115122  0  3.706564  0  0  -0.138243  0  3.965216  0  0  -0.14322  0  3.982061  0  0  -0.070242  -0.135382  0  3.954318  0
C  C29  1  0.70027682  0.40426894  0.55201469  1  0  -0.11497  0  3.706422  0  0  -0.138116  0  3.96508  0  0  -0.143076  0  3.981891  0  0  -0.070178  -0.13524  0  3.954136  0
C  C30  1  0.42575408  0.54899866  0.51462338  1  0  0.063686  0  3.76424  0  0  0.07087  0  4.006722  0  0  0.074229  0  4.028028  0  0  0.002072  0.068918  0  3.99214  0
C  C31  1  0.57425193  0.45099220  0.48538346  1  0  0.06352  0  3.76442  0  0  0.070837  0  4.006839  0  0  0.074196  0  4.028143  0  0  0.002032  0.068884  0  3.992254  0
C  C32  1  0.40453358  0.60302313  0.60948072  1  0  -0.116776  0  3.687696  0  0  -0.136837  0  3.940789  0  0  -0.141643  0  3.957491  0  0  -0.068369  -0.133965  0  3.929754  0
C  C33  1  0.59548198  0.39697413  0.39052157  1  0  -0.116647  0  3.687518  0  0  -0.136786  0  3.940697  0  0  -0.141601  0  3.957421  0  0  -0.068346  -0.133925  0  3.929683  0
C  C34  1  0.26561839  0.69557569  0.63517905  1  0  0.031893  0  3.57218  0  0  -0.010116  0  3.834426  0  0  -0.00184  0  3.84403  0  0  0.052369  -0.01524  0  3.827962  0
C  C35  1  0.73440189  0.30442262  0.36481729  1  0  0.032017  0  3.57174  0  0  -0.009981  0  3.834058  0  0  -0.001729  0  3.8437  0  0  0.052338  -0.015127  0  3.827631  0
C  C36  1  0.97523702  0.76764972  0.99248693  1  0  0.051705  0  3.559011  0  0  0.010291  0  3.815151  0  0  0.018659  0  3.825691  0  0  0.060926  0.004901  0  3.80828  0
C  C37  1  0.02475763  0.23234496  0.00751381  1  0  0.051555  0  3.559159  0  0  0.010243  0  3.815215  0  0  0.018609  0  3.825767  0  0  0.060914  0.004845  0  3.808352  0
C  C38  1  0.93993430  0.76008587  0.10028447  1  0  -0.122912  0  3.675704  0  0  -0.138795  0  3.921158  0  0  -0.145153  0  3.9395  0  0  -0.064407  -0.134894  0  3.909015  0
C  C39  1  0.06006721  0.23991149  0.89971614  1  0  -0.122987  0  3.675779  0  0  -0.138927  0  3.92124  0  0  -0.145277  0  3.939555  0  0  -0.064494  -0.135016  0  3.909071  0
C  C40  1  0.84493635  0.86088979  0.15188526  1  0  0.097248  0  3.734162  0  0  0.101107  0  3.977009  0  0  0.10631  0  3.995462  0  0  0.015098  0.097889  0  3.964314  0
C  C41  1  0.15506207  0.13910942  0.84811398  1  0  0.097334  0  3.734107  0  0  0.101156  0  3.977029  0  0  0.106355  0  3.995492  0  0  0.01517  0.097938  0  3.964332  0
C  C42  1  0.78757599  0.96714202  0.09012601  1  0  -0.104003  0  3.697269  0  0  -0.125666  0  3.955219  0  0  -0.129812  0  3.972152  0  0  -0.068241  -0.123302  0  3.944076  0
C  C43  1  0.21242695  0.03285458  0.90986913  1  0  -0.103934  0  3.697135  0  0  -0.125638  0  3.955128  0  0  -0.129784  0  3.972066  0  0  -0.068248  -0.123275  0  3.943987  0
C  C44  1  0.82175667  0.97078947  0.98280700  1  0  0.013593  0  3.601818  0  0  -0.030451  0  3.867146  0  0  -0.02381  0  3.879979  0  0  0.048593  -0.034581  0  3.858624  0
C  C45  1  0.17824345  0.02920806  0.01718759  1  0  0.013537  0  3.601714  0  0  -0.030442  0  3.867005  0  0  -0.0238  0  3.879838  0  0  0.048619  -0.034575  0  3.858487  0
C  C46  1  0.74484914  0.96262318  0.42436818  1  0  0.047755  0  3.559187  0  0  0.003268  0  3.822912  0  0  0.013585  0  3.829244  0  0  0.057992  -0.00348  0  3.819025  0
C  C47  1  0.25514782  0.03738524  0.57562431  1  0  0.047786  0  3.559476  0  0  0.003351  0  3.823155  0  0  0.01367  0  3.829486  0  0  0.057993  -0.003405  0  3.819272  0
C  C48  1  0.80025809  0.96058907  0.31850995  1  0  -0.105633  0  3.668755  0  0  -0.126826  0  3.928603  0  0  -0.130911  0  3.943535  0  0  -0.06124  -0.124448  0  3.919013  0
C  C49  1  0.19972484  0.03941944  0.68148164  1  0  -0.105639  0  3.66885  0  0  -0.126843  0  3.928664  0  0  -0.130931  0  3.943601  0  0  -0.061202  -0.124462  0  3.919075  0
C  C50  1  0.80126530  0.85885624  0.26588798  1  0  0.0909  0  3.73154  0  0  0.094486  0  3.975368  0  0  0.09844  0  3.994834  0  0  0.014597  0.09197  0  3.962052  0
C  C51  1  0.19871011  0.14114764  0.73410858  1  0  0.090964  0  3.731509  0  0  0.094559  0  3.975327  0  0  0.098517  0  3.994796  0  0  0.014566  0.092045  0  3.962003  0
C  C52  1  0.75179975  0.75807276  0.32593598  1  0  -0.113814  0  3.712898  0  0  -0.133968  0  3.969663  0  0  -0.139594  0  3.988854  0  0  -0.068683  -0.130494  0  3.957038  0
C  C53  1  0.24817932  0.24193187  0.67406554  1  0  -0.113927  0  3.712843  0  0  -0.134084  0  3.969602  0  0  -0.139698  0  3.988761  0  0  -0.06864  -0.130596  0  3.956942  0
C  C54  1  0.69578160  0.76365953  0.43150373  1  0  0.004755  0  3.600257  0  0  -0.0378  0  3.861605  0  0  -0.031449  0  3.87542  0  0  0.040461  -0.04188  0  3.85265  0
C  C55  1  0.30421300  0.23634416  0.56849707  1  0  0.004707  0  3.600483  0  0  -0.037787  0  3.861832  0  0  -0.03144  0  3.875657  0  0  0.040472  -0.041871  0  3.852877  0
N  N56  1  0.14452630  0.73613720  0.56921349  1  0  0.282659  0  3.708416  0  0  0.336416  0  3.9703  0  0  0.335916  0  3.992515  0  0  -0.109707  0.335983  0  3.955191  0
N  N57  1  0.85548739  0.26386198  0.43078498  1  0  0.282699  0  3.708391  0  0  0.336505  0  3.970207  0  0  0.335994  0  3.99245  0  0  -0.109649  0.33606  0  3.955116  0
N  N58  1  0.91530654  0.87171654  0.93532306  1  0  0.281814  0  3.707924  0  0  0.335531  0  3.972848  0  0  0.334654  0  3.995188  0  0  -0.114716  0.335369  0  3.957692  0
N  N59  1  0.08469010  0.12827998  0.06467580  1  0  0.28186  0  3.707796  0  0  0.335524  0  3.972699  0  0  0.334645  0  3.995035  0  0  -0.114748  0.335363  0  3.957543  0
N  N60  1  0.68760039  0.86629983  0.47879615  1  0  0.286481  0  3.715193  0  0  0.339748  0  3.981077  0  0  0.340148  0  4.001155  0  0  -0.111275  0.338717  0  3.967517  0
N  N61  1  0.31239723  0.13370660  0.52120336  1  0  0.286452  0  3.715265  0  0  0.339679  0  3.981139  0  0  0.340077  0  4.001217  0  0  -0.111413  0.338649  0  3.967577  0
N  N62  1  0.90025992  0.57009174  0.71918915  1  0  0.697359  0  4.150257  0  0  0.729937  0  4.444892  0  0  0.758215  0  4.452035  0  0  0.085827  0.712628  0  4.439127  0
N  N63  1  0.09972954  0.42990757  0.28080789  1  0  0.697384  0  4.150266  0  0  0.731614  0  4.444778  0  0  0.75804  0  4.452311  0  0  0.085823  0.71249  0  4.439369  0
N  N64  1  0.49964879  0.75651312  0.87795400  1  0  0.697776  0  4.137997  0  0  0.742189  0  4.414062  0  0  0.771175  0  4.419575  0  0  0.081387  0.722608  0  4.409746  0
N  N65  1  0.50034765  0.24349321  0.12204948  1  0  0.697966  0  4.137799  0  0  0.742418  0  4.413781  0  0  0.771405  0  4.419286  0  0  0.081528  0.722835  0  4.409462  0
N  N66  1  0.67289360  0.09430095  0.73148568  1  0  0.686971  0  4.149627  0  0  0.735871  0  4.426185  0  0  0.76525  0  4.431287  0  0  0.079591  0.716012  0  4.422137  0
N  N67  1  0.32711121  0.90569821  0.26851446  1  0  0.68698  0  4.149597  0  0  0.735865  0  4.426149  0  0  0.765243  0  4.431239  0  0  0.079604  0.716009  0  4.422105  0
O  O68  1  0.01164539  0.82472789  0.59430253  1  0  -0.609601  0  1.840158  0  0  -0.577325  0  2.092448  0  0  -0.604202  0  2.092161  0  0  -0.316244  -0.55777  0  2.092622  0
O  O69  1  0.98836075  0.17527119  0.40570056  1  0  -0.609644  0  1.840208  0  0  -0.57732  0  2.092428  0  0  -0.604209  0  2.092194  0  0  -0.31625  -0.557782  0  2.092646  0
O  O70  1  0.95089637  0.87778842  0.83196696  1  0  -0.62926  0  1.859358  0  0  -0.598699  0  2.118315  0  0  -0.625006  0  2.116525  0  0  -0.322832  -0.579449  0  2.119247  0
O  O71  1  0.04910823  0.12220711  0.16803425  1  0  -0.629276  0  1.859162  0  0  -0.598669  0  2.118084  0  0  -0.624984  0  2.116329  0  0  -0.32283  -0.579431  0  2.119042  0
O  O72  1  0.62030942  0.87182308  0.57813704  1  0  -0.620989  0  1.854196  0  0  -0.59023  0  2.108003  0  0  -0.617839  0  2.10773  0  0  -0.326104  -0.570216  0  2.107924  0
O  O73  1  0.37969331  0.12818780  0.42186391  1  0  -0.621015  0  1.854178  0  0  -0.590196  0  2.107914  0  0  -0.617811  0  2.107677  0  0  -0.326065  -0.570195  0  2.107865  0
O  O74  1  0.77841233  0.62954467  0.66733858  1  0  -0.55187  0  1.813743  0  0  -0.547659  0  2.050581  0  0  -0.56708  0  2.044678  0  0  -0.248628  -0.534394  0  2.054409  0
O  O75  1  0.22156428  0.37045538  0.33266586  1  0  -0.551906  0  1.81364  0  0  -0.548228  0  2.05037  0  0  -0.566889  0  2.044482  0  0  -0.248606  -0.534225  0  2.054211  0
O  O76  1  0.96718222  0.63267015  0.77138364  1  0  -0.515499  0  1.811442  0  0  -0.512273  0  2.037946  0  0  -0.529926  0  2.030814  0  0  -0.221752  -0.500548  0  2.042741  0
O  O77  1  0.03281607  0.36732923  0.22860944  1  0  -0.515599  0  1.811543  0  0  -0.513075  0  2.038118  0  0  -0.529963  0  2.031002  0  0  -0.221782  -0.500599  0  2.042921  0
O  O78  1  0.94836143  0.45899281  0.71724453  1  0  -0.396049  0  1.763654  0  0  -0.385385  0  1.95967  0  0  -0.398552  0  1.954673  0  0  -0.147165  -0.376857  0  1.962975  0
O  O79  1  0.05163049  0.54100659  0.28274842  1  0  -0.39597  0  1.76377  0  0  -0.386108  0  1.95987  0  0  -0.39849  0  1.954934  0  0  -0.147152  -0.376813  0  1.963227  0
O  O80  1  0.47189999  0.79180904  0.78284340  1  0  -0.538322  0  1.791588  0  0  -0.526498  0  2.015164  0  0  -0.54621  0  2.008172  0  0  -0.237754  -0.512468  0  2.019765  0
O  O81  1  0.52809668  0.20821435  0.21716332  1  0  -0.53842  0  1.791418  0  0  -0.526642  0  2.014989  0  0  -0.546362  0  2.008017  0  0  -0.237895  -0.512623  0  2.019616  0
O  O82  1  0.65418254  0.75385437  0.89709608  1  0  -0.529494  0  1.798391  0  0  -0.527745  0  2.014992  0  0  -0.547728  0  2.008617  0  0  -0.248921  -0.513569  0  2.019195  0
O  O83  1  0.34580869  0.24614820  0.10291361  1  0  -0.52958  0  1.798413  0  0  -0.527791  0  2.014967  0  0  -0.547792  0  2.008628  0  0  -0.248971  -0.513632  0  2.019202  0
O  O84  1  0.38490213  0.72902967  0.94561088  1  0  -0.373987  0  1.711603  0  0  -0.377682  0  1.891924  0  0  -0.388637  0  1.885555  0  0  -0.150227  -0.369968  0  1.896257  0
O  O85  1  0.61509575  0.27096241  0.05438513  1  0  -0.373987  0  1.711579  0  0  -0.377688  0  1.891877  0  0  -0.388645  0  1.885509  0  0  -0.150198  -0.369974  0  1.896211  0
O  O86  1  0.79284169  0.04750207  0.66074802  1  0  -0.518412  0  1.786553  0  0  -0.519385  0  2.013352  0  0  -0.537458  0  2.006099  0  0  -0.235528  -0.506578  0  2.018371  0
O  O87  1  0.20717076  0.95250155  0.33925331  1  0  -0.518349  0  1.786468  0  0  -0.519384  0  2.013384  0  0  -0.537456  0  2.006137  0  0  -0.235472  -0.50654  0  2.018328  0
O  O88  1  0.59306885  0.01896040  0.79161496  1  0  -0.549683  0  1.811604  0  0  -0.548789  0  2.04202  0  0  -0.569823  0  2.036499  0  0  -0.25679  -0.533835  0  2.045571  0
O  O89  1  0.40693875  0.98103340  0.20838301  1  0  -0.549721  0  1.811706  0  0  -0.548796  0  2.042099  0  0  -0.569827  0  2.036586  0  0  -0.256773  -0.533841  0  2.045652  0
O  O90  1  0.63630435  0.20373396  0.74247152  1  0  -0.376749  0  1.720286  0  0  -0.37869  0  1.901696  0  0  -0.390861  0  1.896965  0  0  -0.152797  -0.37004  0  1.904868  0
O  O91  1  0.36368546  0.79626431  0.25753019  1  0  -0.376752  0  1.720172  0  0  -0.378685  0  1.901593  0  0  -0.390853  0  1.896858  0  0  -0.152855  -0.370038  0  1.904767  0
