# generated using pymatgen
data_CuH16C14(N4Cl)2
_symmetry_space_group_name_H-M   'P 1'
_cell_length_a   8.63815414
_cell_length_b   7.10315737
_cell_length_c   15.18343371
_cell_angle_alpha   90.00115742
_cell_angle_beta   90.00106370
_cell_angle_gamma   74.62518648
_symmetry_Int_Tables_number   1
_chemical_formula_structural   CuH16C14(N4Cl)2
_chemical_formula_sum   'Cu2 H32 C28 N16 Cl4'
_cell_volume   898.28663165
_cell_formula_units_Z   2
loop_
 _symmetry_equiv_pos_site_id
 _symmetry_equiv_pos_as_xyz
  1  'x, y, z'
loop_
 _atom_site_type_symbol
 _atom_site_label
 _atom_site_symmetry_multiplicity
 _atom_site_fract_x
 _atom_site_fract_y
 _atom_site_fract_z
 _atom_site_occupancy
 _atom_site_pbe_bader_charge
 _atom_site_pbe_bader_spin_density
 _atom_site_pbe_cm5_charge
 _atom_site_pbe_ddec_charge
 _atom_site_pbe_ddec_spin_density
 _atom_site_pbe_ddec_sum_bond_order
 _atom_site_pbe_magmom
Cu  Cu0  1  0.00001063  0.99994898  0.00003015  1  1.033963  -0.591095  0.758629  0.616046  -0.743007  2.425855  -0.59
Cu  Cu1  1  0.50003061  0.00002458  0.50001034  1  1.034312  -0.591105  0.758523  0.61606  -0.743002  2.425671  -0.59
H  H2  1  0.12257963  0.56622995  0.07311377  1  0.510878  -0.000285  0.294603  0.258872  -0.000125  0.999711  0.0
H  H3  1  0.37739946  0.43376895  0.57311763  1  0.51054  -0.000285  0.29457  0.258771  -0.000125  0.999818  0.0
H  H4  1  0.87740552  0.43372704  0.92687383  1  0.51108  -0.000285  0.294536  0.258807  -0.000125  0.999521  0.0
H  H5  1  0.62258469  0.56628856  0.42687787  1  0.51107  -0.000285  0.294596  0.258761  -0.000125  0.999555  0.0
H  H6  1  0.31584428  0.03507141  0.09363862  1  0.131911  -0.000418  0.113897  0.111236  -8.2e-05  1.018447  0.0
H  H7  1  0.18416464  0.96495770  0.59363751  1  0.13233  -0.000419  0.113909  0.11118  -8.3e-05  1.018619  0.0
H  H8  1  0.68414450  0.96491866  0.90636280  1  0.131654  -0.000418  0.113853  0.111211  -8.2e-05  1.018591  0.0
H  H9  1  0.81585350  0.03508507  0.40636129  1  0.131616  -0.000419  0.113879  0.111163  -8.3e-05  1.018552  0.0
H  H10  1  0.37417831  0.42704483  0.16199701  1  0.12805  -0.001165  0.122103  0.117326  -0.000544  1.009188  -0.001
H  H11  1  0.12580297  0.57297386  0.66200906  1  0.127667  -0.001164  0.122117  0.117371  -0.000544  1.009285  -0.001
H  H12  1  0.62584727  0.57294117  0.83799190  1  0.128059  -0.001164  0.122111  0.117411  -0.000544  1.00911  -0.001
H  H13  1  0.87416229  0.42704978  0.33799105  1  0.128092  -0.001165  0.122119  0.117447  -0.000544  1.009136  -0.001
H  H14  1  0.82289653  0.21115201  0.14799323  1  0.504608  -0.000271  0.292932  0.254528  -9.1e-05  1.002326  0.0
H  H15  1  0.67711043  0.78886891  0.64798213  1  0.504769  -0.00027  0.292966  0.254613  -9e-05  1.002316  0.0
H  H16  1  0.17709036  0.78884838  0.85200951  1  0.504464  -0.00027  0.292949  0.254596  -9e-05  1.002434  0.0
H  H17  1  0.32288083  0.21111919  0.35200942  1  0.504859  -0.00027  0.292974  0.254571  -9e-05  1.002444  0.0
H  H18  1  0.79882107  0.67835711  0.05846133  1  0.12725  -0.000591  0.106943  0.113101  -0.00022  1.038543  -0.001
H  H19  1  0.70118515  0.32165787  0.55846626  1  0.127182  -0.000592  0.106903  0.113036  -0.00022  1.03864  -0.001
H  H20  1  0.20118164  0.32160156  0.94154668  1  0.127522  -0.000591  0.106952  0.113027  -0.00022  1.038592  -0.001
H  H21  1  0.29881325  0.67838089  0.44153978  1  0.12748  -0.000591  0.106923  0.112983  -0.00022  1.038719  -0.001
H  H22  1  0.60354281  0.13434997  0.25043077  1  0.177117  -0.000765  0.106394  0.114689  -0.000364  1.056837  -0.001
H  H23  1  0.89644248  0.86565013  0.75044160  1  0.177201  -0.000765  0.106441  0.114735  -0.000364  1.056759  -0.001
H  H24  1  0.39647048  0.86562609  0.74956276  1  0.176597  -0.000765  0.106391  0.114651  -0.000363  1.056894  -0.001
H  H25  1  0.10353167  0.13438139  0.24955456  1  0.176976  -0.000764  0.106418  0.114669  -0.000363  1.056905  -0.001
H  H26  1  0.50953887  0.78958605  0.27007411  1  0.083182  -0.000475  0.098958  0.109001  -0.000206  1.003921  0.0
H  H27  1  0.99047166  0.21039167  0.77007856  1  0.083076  -0.000475  0.098892  0.108927  -0.000206  1.003959  0.0
H  H28  1  0.49045019  0.21038277  0.72992929  1  0.082821  -0.000475  0.098912  0.108996  -0.000206  1.004027  0.0
H  H29  1  0.00957663  0.78957224  0.22993209  1  0.0829  -0.000475  0.098935  0.109029  -0.000206  1.004035  0.0
H  H30  1  0.62663752  0.58531302  0.21435585  1  0.034254  -0.00049  0.096052  0.103145  -0.000227  0.986013  0.0
H  H31  1  0.87337996  0.41465788  0.71436354  1  0.034498  -0.00049  0.096116  0.103253  -0.000227  0.985871  0.0
H  H32  1  0.37334176  0.41466083  0.78566139  1  0.034797  -0.00049  0.096184  0.103272  -0.000227  0.986012  0.0
H  H33  1  0.12662610  0.58537207  0.28565238  1  0.034829  -0.00049  0.096194  0.103307  -0.000227  0.98612  0.0
C  C34  1  0.30842976  0.88606116  0.10201740  1  0.384423  0.000294  0.013278  -0.056561  0.001177  3.961117  -0.001
C  C35  1  0.19159158  0.11393499  0.60202042  1  0.384145  0.00029  0.013257  -0.056404  0.001176  3.961541  -0.001
C  C36  1  0.69156130  0.11391286  0.89798008  1  0.384078  0.000289  0.01313  -0.056889  0.001176  3.961739  -0.001
C  C37  1  0.80841748  0.88610277  0.39797508  1  0.384422  0.000292  0.013244  -0.056472  0.001179  3.961873  -0.001
C  C38  1  0.40982127  0.72995698  0.14840101  1  0.057968  -0.003572  -0.028929  0.022846  -0.002242  4.018899  -0.003
C  C39  1  0.09019287  0.27003952  0.64840502  1  0.057726  -0.003575  -0.028973  0.022761  -0.002244  4.018813  -0.003
C  C40  1  0.59017537  0.27002143  0.85159910  1  0.057886  -0.003567  -0.028886  0.023097  -0.002239  4.019156  -0.003
C  C41  1  0.90981040  0.72999671  0.35159904  1  0.057615  -0.00357  -0.028921  0.022872  -0.002241  4.019467  -0.003
C  C42  1  0.33991718  0.57573849  0.13744501  1  0.345289  0.000798  0.019489  -0.06522  0.001167  3.916005  -0.001
C  C43  1  0.16007120  0.42428142  0.63745162  1  0.345932  0.000796  0.019419  -0.06541  0.001165  3.916557  -0.001
C  C44  1  0.66008735  0.42424520  0.86254127  1  0.345577  0.000792  0.019571  -0.065283  0.001162  3.916172  -0.001
C  C45  1  0.83992150  0.57575438  0.36253664  1  0.345713  0.000794  0.01954  -0.065393  0.001164  3.91622  -0.001
C  C46  1  0.76515931  0.80973088  0.09828515  1  0.424449  -0.001044  0.015645  -0.052206  -0.000426  3.936934  -0.003
C  C47  1  0.73484513  0.19027937  0.59828780  1  0.425515  -0.001035  0.015643  -0.052216  -0.000429  3.93715  -0.003
C  C48  1  0.23483583  0.19023516  0.90171694  1  0.423742  -0.001047  0.015617  -0.052129  -0.000429  3.936867  -0.003
C  C49  1  0.26517000  0.80973865  0.40170572  1  0.423859  -0.001048  0.015659  -0.052129  -0.000431  3.937271  -0.003
C  C50  1  0.65322524  0.85837672  0.16766521  1  0.040596  -0.00442  -0.028497  0.026532  -0.002793  4.005227  -0.004
C  C51  1  0.84678911  0.14162444  0.66766291  1  0.041396  -0.004423  -0.02846  0.026587  -0.002795  4.005488  -0.004
C  C52  1  0.34678386  0.14159181  0.83233951  1  0.041405  -0.004423  -0.02846  0.026658  -0.002796  4.005208  -0.004
C  C53  1  0.15323081  0.85839250  0.33233259  1  0.041437  -0.004419  -0.028447  0.0267  -0.002793  4.005516  -0.004
C  C54  1  0.66267738  0.04152925  0.19647230  1  0.287715  0.000712  0.016381  -0.065583  0.001109  3.899539  -0.001
C  C55  1  0.83733263  0.95846133  0.69647191  1  0.287856  0.00071  0.016341  -0.065708  0.001107  3.899396  -0.001
C  C56  1  0.33734049  0.95843165  0.80352913  1  0.288561  0.000706  0.016346  -0.065731  0.001102  3.899468  -0.001
C  C57  1  0.16266165  0.04155151  0.30351503  1  0.288535  0.000713  0.016298  -0.065785  0.001108  3.89917  -0.001
C  C58  1  0.55198930  0.73510640  0.20417397  1  0.043899  -0.002572  -0.148853  -0.189671  -0.001693  3.990733  -0.002
C  C59  1  0.94803188  0.26486991  0.70417914  1  0.042895  -0.002574  -0.148829  -0.189699  -0.001694  3.991123  -0.002
C  C60  1  0.44800644  0.26486797  0.79582680  1  0.043219  -0.002572  -0.14899  -0.189992  -0.001693  3.991098  -0.002
C  C61  1  0.05198863  0.73513842  0.29583678  1  0.043088  -0.002573  -0.149029  -0.190009  -0.001693  3.991546  -0.002
N  N62  1  0.20619798  0.64179291  0.08813174  1  -0.803224  -0.005805  -0.281504  -0.076688  -0.003063  3.745794  -0.003
N  N63  1  0.29378368  0.35822573  0.58814095  1  -0.803236  -0.005805  -0.281411  -0.076392  -0.003062  3.745858  -0.003
N  N64  1  0.79379595  0.35815645  0.91185651  1  -0.804261  -0.005812  -0.281584  -0.076939  -0.003065  3.746354  -0.003
N  N65  1  0.70621034  0.64182532  0.41184665  1  -0.803901  -0.005812  -0.28148  -0.076462  -0.003065  3.746054  -0.003
N  N66  1  0.18480688  0.83078706  0.06671434  1  -0.705577  -0.091322  -0.27579  -0.164854  -0.060447  3.596943  -0.081
N  N67  1  0.31519439  0.16921992  0.56672154  1  -0.705337  -0.091317  -0.275668  -0.164978  -0.060448  3.596705  -0.081
N  N68  1  0.81520241  0.16916166  0.93327853  1  -0.704331  -0.091294  -0.275471  -0.164345  -0.060437  3.595836  -0.081
N  N69  1  0.68481238  0.83081694  0.43327396  1  -0.705057  -0.09131  -0.275675  -0.164845  -0.060446  3.596809  -0.081
N  N70  1  0.77431374  0.09250710  0.14616530  1  -0.824304  -0.003771  -0.286221  -0.08009  -0.001604  3.723782  -0.002
N  N71  1  0.72568533  0.90751006  0.64616926  1  -0.824867  -0.003771  -0.2863  -0.080109  -0.001603  3.723939  -0.002
N  N72  1  0.22568759  0.90747166  0.85383152  1  -0.824076  -0.003771  -0.28624  -0.07998  -0.001603  3.723775  -0.002
N  N73  1  0.27429420  0.09251176  0.35383744  1  -0.825527  -0.00377  -0.286274  -0.080019  -0.001602  3.723625  -0.002
N  N74  1  0.83857076  0.95230591  0.08679288  1  -0.711996  -0.090289  -0.275513  -0.165784  -0.059483  3.59087  -0.08
N  N75  1  0.66143246  0.04771376  0.58679383  1  -0.712824  -0.090297  -0.275433  -0.165671  -0.05948  3.590636  -0.08
N  N76  1  0.16142398  0.04766586  0.91320921  1  -0.712719  -0.090288  -0.275435  -0.165961  -0.059484  3.590212  -0.08
N  N77  1  0.33856643  0.95231782  0.41321286  1  -0.712024  -0.090267  -0.275427  -0.165816  -0.05947  3.590035  -0.08
Cl  Cl78  1  0.01208852  0.33074013  0.10704006  1  -0.753266  0.000997  -0.350699  -0.622531  0.001661  0.9719  0.0
Cl  Cl79  1  0.48789280  0.66928596  0.60702777  1  -0.753367  0.000997  -0.350746  -0.622581  0.001662  0.971797  0.0
Cl  Cl80  1  0.98791271  0.66924007  0.89296202  1  -0.753296  0.000993  -0.350777  -0.622645  0.001659  0.971849  0.0
Cl  Cl81  1  0.51209124  0.33075603  0.39296180  1  -0.753357  0.000995  -0.350812  -0.62266  0.00166  0.971711  0.0
