# generated using pymatgen
data_ZnH30C48N5O
_symmetry_space_group_name_H-M   'P 1'
_cell_length_a   17.64020737
_cell_length_b   17.64043773
_cell_length_c   18.32696702
_cell_angle_alpha   118.76838522
_cell_angle_beta   118.76795080
_cell_angle_gamma   89.99960106
_symmetry_Int_Tables_number   1
_chemical_formula_structural   ZnH30C48N5O
_chemical_formula_sum   'Zn4 H120 C192 N20 O4'
_cell_volume   4178.27378480
_cell_formula_units_Z   4
loop_
 _symmetry_equiv_pos_site_id
 _symmetry_equiv_pos_as_xyz
  1  'x, y, z'
loop_
 _atom_site_type_symbol
 _atom_site_label
 _atom_site_symmetry_multiplicity
 _atom_site_fract_x
 _atom_site_fract_y
 _atom_site_fract_z
 _atom_site_occupancy
 _atom_site_pbe_bader_charge
 _atom_site_pbe_bader_spin_density
 _atom_site_pbe_cm5_charge
 _atom_site_pbe_ddec_charge
 _atom_site_pbe_ddec_spin_density
 _atom_site_pbe_ddec_sum_bond_order
 _atom_site_pbe_magmom
Zn  Zn0  1  0.38292785  0.68285295  0.36471836  1  1.245105  0  0.706531  0.694911  0  2.458461  0
Zn  Zn1  1  0.93284177  0.73177487  0.86471369  1  1.249333  0  0.706572  0.694952  0  2.458365  0
Zn  Zn2  1  0.98178818  0.68186946  0.36472240  1  1.25  0  0.706502  0.694847  0  2.458508  0
Zn  Zn3  1  0.93186958  0.13293549  0.86472157  1  1.247415  0  0.706538  0.694913  0  2.458523  0
H  H4  1  0.39332094  0.71337259  0.67068739  1  0.080524  0  0.103252  0.120361  0  1.019931  0
H  H5  1  0.96335820  0.02735228  0.17067968  1  0.082382  0  0.103304  0.120501  0  1.019709  0
H  H6  1  0.27736686  0.95731636  0.67068958  1  0.084467  0  0.103258  0.120397  0  1.01989  0
H  H7  1  0.20732158  0.14332473  0.17069034  1  0.083931  0  0.103258  0.120456  0  1.019798  0
H  H8  1  0.47831742  0.88100493  0.73704747  1  0.100793  0  0.105083  0.123481  0  1.006749  0
H  H9  1  0.13099214  0.00871274  0.23704039  1  0.099633  0  0.105029  0.123363  0  1.006551  0
H  H10  1  0.25873043  0.85604327  0.73704892  1  0.055164  0  0.105072  0.123468  0  1.006656  0
H  H11  1  0.10605349  0.22833375  0.23705747  1  0.085083  0  0.105027  0.123425  0  1.006583  0
H  H12  1  0.60599126  0.01567124  0.59716823  1  0.076694  0  0.099538  0.114668  0  1.047687  0
H  H13  1  0.26566635  0.74117570  0.09716790  1  0.083781  0  0.099533  0.114611  0  1.047712  0
H  H14  1  0.99117435  0.58150303  0.59717414  1  0.073288  0  0.099552  0.114704  0  1.047643  0
H  H15  1  0.83149901  0.35600273  0.09717027  1  0.09079  0  0.099599  0.1148  0  1.047558  0
H  H16  1  0.60055292  0.94605298  0.42790947  1  0.086961  0  0.103524  0.12138  0  1.024024  0
H  H17  1  0.19605369  0.57735094  0.92791166  1  0.105863  0  0.103487  0.121308  0  1.024039  0
H  H18  1  0.82735029  0.48186361  0.42790886  1  0.111481  0  0.103474  0.121332  0  1.024059  0
H  H19  1  0.73185741  0.35056116  0.92790755  1  0.109647  0  0.103506  0.121352  0  1.023998  0
H  H20  1  0.40978982  0.63707582  0.07085183  1  0.068528  0  0.104913  0.123997  0  1.008869  0
H  H21  1  0.88708373  0.41106146  0.57084823  1  0.078099  0  0.10492  0.124041  0  1.008804  0
H  H22  1  0.66106582  0.43377123  0.07084825  1  0.063236  0  0.104894  0.124  0  1.008775  0
H  H23  1  0.68376114  0.15977765  0.57083891  1  0.074154  0  0.104892  0.124  0  1.00883  0
H  H24  1  0.29179082  0.48055170  0.99092104  1  0.076507  0  0.105044  0.123129  0  1.013642  0
H  H25  1  0.73055534  0.44912501  0.49090930  1  0.09961  0  0.105049  0.123115  0  1.013708  0
H  H26  1  0.69913295  0.51036304  0.99091622  1  0.105849  0  0.105027  0.12307  0  1.013725  0
H  H27  1  0.76035782  0.04177949  0.49091155  1  0.07112  0  0.105019  0.123066  0  1.013674  0
H  H28  1  0.18834940  0.33641933  0.13794209  1  0.119287  0  0.101196  0.122728  0  1.036969  0
H  H29  1  0.58641646  0.69958656  0.63793177  1  0.108217  0  0.101219  0.12277  0  1.037034  0
H  H30  1  0.94959540  0.80151237  0.13793573  1  0.111318  0  0.101154  0.122688  0  1.036922  0
H  H31  1  0.05152279  0.93835267  0.63794155  1  0.080106  0  0.101152  0.122685  0  1.03698  0
H  H32  1  0.22901633  0.39255214  0.32057963  1  0.075113  0  0.101293  0.119363  0  1.028552  0
H  H33  1  0.64253910  0.84155445  0.82056394  1  0.082215  0  0.101233  0.119302  0  1.028585  0
H  H34  1  0.09156073  0.92802756  0.32057941  1  0.087455  0  0.101279  0.119355  0  1.028619  0
H  H35  1  0.17803784  0.97902916  0.82058528  1  0.082372  0  0.101245  0.119302  0  1.028532  0
H  H36  1  0.40974763  0.99839608  0.64911460  1  0.077324  0  0.099839  0.105527  0  1.023348  0
H  H37  1  0.24838390  0.98935324  0.14910520  1  0.081491  0  0.099845  0.10554  0  1.023426  0
H  H38  1  0.23936611  0.65072518  0.64911951  1  0.091379  0  0.099813  0.105495  0  1.023441  0
H  H39  1  0.90072522  0.15975896  0.14912461  1  0.062704  0  0.099814  0.105485  0  1.023597  0
H  H40  1  0.47437598  0.15112166  0.80573382  1  0.069838  0  0.098939  0.098256  0  1.003169  0
H  H41  1  0.40111422  0.08134188  0.30572084  1  0.068514  0  0.098921  0.098208  0  1.003118  0
H  H42  1  0.33136252  0.65463147  0.80574805  1  0.076231  0  0.098926  0.09822  0  1.003255  0
H  H43  1  0.90463717  0.22439364  0.30575659  1  0.070842  0  0.098932  0.098238  0  1.003211  0
H  H44  1  0.64211966  0.21407644  0.92929102  1  0.05738  0  0.098061  0.096474  0  1.013812  0
H  H45  1  0.46406845  0.03715815  0.42928160  1  0.083103  0  0.098023  0.096451  0  1.01376  0
H  H46  1  0.28716524  0.71522013  0.92929267  1  0.074617  0  0.098078  0.096544  0  1.013841  0
H  H47  1  0.96523160  0.39213667  0.42930532  1  0.068387  0  0.09804  0.096505  0  1.013759  0
H  H48  1  0.74337961  0.12409970  0.89749333  1  0.128936  0  0.106055  0.122235  0  1.042934  0
H  H49  1  0.37408642  0.90410199  0.39748088  1  0.133166  0  0.106111  0.122346  0  1.042798  0
H  H50  1  0.15410248  0.77339415  0.89749277  1  0.127682  0  0.106049  0.122248  0  1.04277  0
H  H51  1  0.02340124  0.49339016  0.39749601  1  0.128218  0  0.10608  0.122294  0  1.042702  0
H  H52  1  0.39962130  0.83679466  0.17329434  1  0.060949  0  0.096729  0.098565  0  1.032756  0
H  H53  1  0.08680073  0.52366625  0.67329311  1  0.066884  0  0.096757  0.098552  0  1.032799  0
H  H54  1  0.77368031  0.33649562  0.17329101  1  0.064301  0  0.096714  0.098583  0  1.032782  0
H  H55  1  0.58649858  0.14962581  0.67329516  1  0.059684  0  0.096727  0.098552  0  1.03279  0
H  H56  1  0.45592369  0.89010641  0.10026802  1  0.056313  0  0.096995  0.092191  0  1.033501  0
H  H57  1  0.14012040  0.39433657  0.60027140  1  0.050356  0  0.096995  0.092162  0  1.033411  0
H  H58  1  0.64435154  0.21016007  0.10027580  1  0.043  0  0.097019  0.092168  0  1.033461  0
H  H59  1  0.46015805  0.20593182  0.60027271  1  0.060894  0  0.096993  0.092176  0  1.033421  0
H  H60  1  0.60789559  0.88466423  0.12743770  1  0.055954  0  0.095721  0.091499  0  1.021264  0
H  H61  1  0.13467595  0.26953913  0.62744681  1  0.061088  0  0.095736  0.091512  0  1.021352  0
H  H62  1  0.51955666  0.24278015  0.12745730  1  0.057323  0  0.095759  0.091603  0  1.021239  0
H  H63  1  0.49277140  0.35790257  0.62744442  1  0.042141  0  0.095726  0.091506  0  1.02131  0
H  H64  1  0.70366938  0.82678203  0.23009295  1  0.068558  0  0.093472  0.089781  0  1.045665  0
H  H65  1  0.07677991  0.27641894  0.73009081  1  0.072684  0  0.093509  0.089825  0  1.045473  0
H  H66  1  0.52644016  0.40331962  0.23010465  1  0.071663  0  0.09345  0.089815  0  1.045558  0
H  H67  1  0.65331409  0.45367558  0.73010122  1  0.073392  0  0.0935  0.089814  0  1.045513  0
H  H68  1  0.64611321  0.77079113  0.30016689  1  0.047411  0  0.097839  0.099186  0  1.00702  0
H  H69  1  0.02078393  0.40404633  0.80015429  1  0.056776  0  0.097849  0.099156  0  1.007077  0
H  H70  1  0.65406736  0.52937746  0.30016682  1  0.040537  0  0.097827  0.099157  0  1.007103  0
H  H71  1  0.77937527  0.39611272  0.80017073  1  0.046757  0  0.097845  0.0992  0  1.007026  0
H  H72  1  0.08849605  0.39072959  0.00098202  1  0.059526  0  0.092649  0.091648  0  1.051478  0
H  H73  1  0.64072381  0.66248151  0.50097029  1  0.050796  0  0.09263  0.091591  0  1.051461  0
H  H74  1  0.91249169  0.61024263  0.00097417  1  0.051259  0  0.092645  0.091595  0  1.051411  0
H  H75  1  0.86025001  0.83849425  0.50098464  1  0.04655  0  0.092693  0.091599  0  1.051439  0
H  H76  1  0.01280885  0.24429832  0.83629417  1  0.076945  0  0.097183  0.09253  0  1.030037  0
H  H77  1  0.49429141  0.57348074  0.33628622  1  0.069223  0  0.097205  0.092548  0  1.030158  0
H  H78  1  0.82348022  0.59197829  0.83628132  1  0.083206  0  0.097208  0.092523  0  1.030104  0
H  H79  1  0.84199368  0.76280960  0.33629501  1  0.082441  0  0.097194  0.092512  0  1.030106  0
H  H80  1  0.10570437  0.15646989  0.78099630  1  0.097624  0  0.096201  0.092356  0  1.031445  0
H  H81  1  0.40646779  0.42529005  0.28099088  1  0.083789  0  0.096175  0.092322  0  1.031434  0
H  H82  1  0.67529183  0.62452321  0.78099872  1  0.073932  0  0.096176  0.092319  0  1.031504  0
H  H83  1  0.87452904  0.85570746  0.28100295  1  0.074353  0  0.096196  0.092369  0  1.031466  0
H  H84  1  0.27399179  0.21623000  0.89000853  1  0.052473  0  0.099762  0.096946  0  0.995922  0
H  H85  1  0.46622674  0.36601910  0.39000543  1  0.047272  0  0.099738  0.09692  0  0.995945  0
H  H86  1  0.61602691  0.67378388  0.89002139  1  0.067277  0  0.099678  0.096796  0  0.995882  0
H  H87  1  0.92377853  0.02399026  0.39001139  1  0.052516  0  0.099719  0.096859  0  0.995829  0
H  H88  1  0.34933713  0.36395220  0.05354710  1  0.067187  0  0.098565  0.098803  0  1.009494  0
H  H89  1  0.61395428  0.45421235  0.55354408  1  0.05404  0  0.098551  0.098738  0  1.009499  0
H  H90  1  0.70423063  0.68960013  0.05356043  1  0.059142  0  0.098545  0.098746  0  1.009508  0
H  H91  1  0.93959402  0.09933448  0.55355199  1  0.052914  0  0.098558  0.098778  0  1.009496  0
H  H92  1  0.46602075  0.56441158  0.60776564  1  0.072036  0  0.099388  0.10153  0  1.013853  0
H  H93  1  0.81439364  0.89173751  0.10775079  1  0.075248  0  0.099363  0.101448  0  1.013892  0
H  H94  1  0.14173785  0.04335489  0.60776427  1  0.074289  0  0.099419  0.101562  0  1.013838  0
H  H95  1  0.29336508  0.21602524  0.10776116  1  0.087153  0  0.099342  0.101485  0  1.013872  0
H  H96  1  0.45006514  0.49873315  0.69486894  1  0.036019  0  0.098815  0.094609  0  1.008538  0
H  H97  1  0.74872568  0.99480482  0.19486554  1  0.025888  0  0.098796  0.094599  0  1.008568  0
H  H98  1  0.24479464  0.19613808  0.69487166  1  0.034957  0  0.09882  0.094611  0  1.008429  0
H  H99  1  0.44614770  0.20007215  0.19487192  1  0.034382  0  0.098781  0.094597  0  1.008444  0
H  H100  1  0.29650122  0.43484017  0.64921442  1  0.049931  0  0.097591  0.092437  0  1.010689  0
H  H101  1  0.68484526  0.10272441  0.14922129  1  0.050446  0  0.097614  0.092458  0  1.010617  0
H  H102  1  0.35271327  0.21437887  0.64922354  1  0.064657  0  0.097611  0.092497  0  1.010609  0
H  H103  1  0.46438155  0.04650521  0.14922792  1  0.07651  0  0.097627  0.092501  0  1.010559  0
H  H104  1  0.15923806  0.43733501  0.51529142  1  0.048648  0  0.095227  0.090093  0  1.037483  0
H  H105  1  0.68734373  0.10606512  0.01530186  1  0.05457  0  0.095222  0.09008  0  1.037443  0
H  H106  1  0.35605829  0.07796394  0.51530537  1  0.041347  0  0.095236  0.09003  0  1.037492  0
H  H107  1  0.32796197  0.90924649  0.01531265  1  0.049883  0  0.095219  0.090017  0  1.037501  0
H  H108  1  0.17649228  0.50635759  0.43253067  1  0.079778  0  0.098325  0.102692  0  1.044466  0
H  H109  1  0.75634931  0.00603708  0.93252311  1  0.067088  0  0.098298  0.102703  0  1.044344  0
H  H110  1  0.25603703  0.92617990  0.43253296  1  0.075055  0  0.098358  0.102752  0  1.04444  0
H  H111  1  0.17617948  0.92650278  0.93253984  1  0.070781  0  0.098386  0.102781  0  1.044304  0
H  H112  1  0.92315767  0.92315977  0.84631696  1  0.108201  0  0.117866  0.12572  0  0.980847  0
H  H113  1  0.17315276  0.67315499  0.34630364  1  0.127371  0  0.117924  0.125779  0  0.980814  0
H  H114  1  0.68713786  0.85793006  0.56746328  1  0.11057  0  0.10231  0.101535  0  1.047289  0
H  H115  1  0.10792944  0.63031599  0.06744959  1  0.089908  0  0.102331  0.101543  0  1.047169  0
H  H116  1  0.88032262  0.70953088  0.56746372  1  0.100922  0  0.102346  0.101627  0  1.047198  0
H  H117  1  0.95952867  0.43713492  0.06745153  1  0.118042  0  0.102337  0.101543  0  1.047228  0
H  H118  1  0.73783219  0.73783037  0.47567227  1  0.059529  0  0.108359  0.106468  0  0.979949  0
H  H119  1  0.98783177  0.48782905  0.97566024  1  0.04595  0  0.108365  0.106422  0  0.980192  0
H  H120  1  0.64545144  0.89000980  0.67049371  1  0.469328  0  0.311843  0.256512  0  0.99019  0
H  H121  1  0.13999638  0.77503478  0.17048604  1  0.481754  0  0.311824  0.256426  0  0.990279  0
H  H122  1  0.02503711  0.78048877  0.67049426  1  0.46504  0  0.311852  0.256594  0  0.990065  0
H  H123  1  0.03047836  0.39545067  0.17048226  1  0.466511  0  0.311863  0.25657  0  0.990092  0
C  C124  1  0.38445125  0.67483608  0.52940561  1  0.405611  0  0.093844  0.188453  0  4.03749  0
C  C125  1  0.92482045  0.89494077  0.02940179  1  0.44948  0  0.093863  0.188581  0  4.037825  0
C  C126  1  0.14495115  0.85457617  0.52940912  1  0.445943  0  0.093852  0.18852  0  4.037798  0
C  C127  1  0.10458056  0.13446113  0.02941186  1  0.429404  0  0.093817  0.188489  0  4.037819  0
C  C128  1  0.45541156  0.81200663  0.58449126  1  0.421779  0  0.091239  0.192512  0  4.036335  0
C  C129  1  0.06198983  0.87906715  0.08448402  1  0.431286  0  0.091204  0.192445  0  4.03639  0
C  C130  1  0.12907754  0.77249443  0.58449583  1  0.432936  0  0.09131  0.192544  0  4.036333  0
C  C131  1  0.02249623  0.20542439  0.08449755  1  0.42161  0  0.091271  0.192459  0  4.036495  0
C  C132  1  0.51642827  0.87475654  0.51972438  1  0.455749  0  0.084732  0.169602  0  4.061914  0
C  C133  1  0.12474854  0.75328335  0.01971670  1  0.423129  0  0.084648  0.169494  0  4.061789  0
C  C134  1  0.00329559  0.64497369  0.51973139  1  0.425271  0  0.084707  0.169581  0  4.061883  0
C  C135  1  0.89496443  0.26643016  0.01972239  1  0.445007  0  0.084667  0.169442  0  4.061949  0
C  C136  1  0.51150160  0.81822223  0.38007977  1  0.456186  0  0.085643  0.174962  0  4.065463  0
C  C137  1  0.06821679  0.61857144  0.88007751  1  0.466836  0  0.085664  0.175025  0  4.065071  0
C  C138  1  0.86857924  0.56185829  0.38008000  1  0.447692  0  0.085641  0.174901  0  4.06544  0
C  C139  1  0.81185363  0.26149922  0.88007705  1  0.490676  0  0.085681  0.174999  0  4.065306  0
C  C140  1  0.41741422  0.67529896  0.21105517  1  0.398164  0  0.087084  0.184386  0  4.050087  0
C  C141  1  0.92530083  0.54363347  0.71105493  1  0.396794  0  0.086985  0.184285  0  4.050339  0
C  C142  1  0.79364670  0.53575119  0.21105558  1  0.420035  0  0.087055  0.184444  0  4.049775  0
C  C143  1  0.78574999  0.16741335  0.71105238  1  0.409256  0  0.087057  0.184376  0  4.050029  0
C  C144  1  0.32141874  0.54650924  0.14593549  1  0.407596  0  0.088603  0.184944  0  4.041945  0
C  C145  1  0.79650275  0.57450828  0.64592743  1  0.38656  0  0.088713  0.185021  0  4.041755  0
C  C146  1  0.82452275  0.59942171  0.14593193  1  0.417816  0  0.088581  0.184726  0  4.042467  0
C  C147  1  0.84942277  0.07141607  0.64593271  1  0.411872  0  0.088611  0.184849  0  4.0419  0
C  C148  1  0.26493314  0.48158002  0.21220111  1  0.416591  0  0.088361  0.179521  0  4.054017  0
C  C149  1  0.73157824  0.69726183  0.71219461  1  0.423893  0  0.088341  0.17948  0  4.053725  0
C  C150  1  0.94727148  0.73061535  0.21219936  1  0.407588  0  0.088369  0.179542  0  4.053771  0
C  C151  1  0.98062093  0.01493588  0.71220229  1  0.409717  0  0.088254  0.179341  0  4.053917  0
C  C152  1  0.29660085  0.52834512  0.36238982  1  0.437564  0  0.0909  0.185562  0  4.037066  0
C  C153  1  0.77833719  0.81577993  0.86238321  1  0.459335  0  0.090811  0.185574  0  4.036951  0
C  C154  1  0.06578820  0.83404949  0.36239459  1  0.381444  0  0.090923  0.185599  0  4.036956  0
C  C155  1  0.08405021  0.04660874  0.86239331  1  0.404661  0  0.090926  0.18559  0  4.036923  0
C  C156  1  0.40876205  0.73393326  0.63108723  1  -0.036796  0  -0.101598  -0.177955  0  3.970131  0
C  C157  1  0.98391552  0.97230882  0.13107818  1  -0.088255  0  -0.101721  -0.178217  0  3.970168  0
C  C158  1  0.22232227  0.89715874  0.63108969  1  -0.08361  0  -0.101626  -0.178024  0  3.970151  0
C  C159  1  0.14716153  0.15876878  0.13108907  1  -0.081283  0  -0.101656  -0.178228  0  3.970371  0
C  C160  1  0.45138750  0.81910350  0.66460259  1  -0.100804  0  -0.103667  -0.177734  0  3.968705  0
C  C161  1  0.06908689  0.96320319  0.16459633  1  -0.088047  0  -0.103475  -0.177391  0  3.968452  0
C  C162  1  0.21321225  0.84550425  0.66460593  1  -0.032818  0  -0.103597  -0.177644  0  3.968776  0
C  C163  1  0.09551090  0.20140168  0.16461045  1  -0.078719  0  -0.103523  -0.177513  0  3.968653  0
C  C164  1  0.57016419  0.94706668  0.53165872  1  -0.054217  0  -0.109225  -0.196066  0  3.982349  0
C  C165  1  0.19706024  0.71148947  0.03165609  1  -0.069978  0  -0.109201  -0.195946  0  3.982157  0
C  C166  1  0.96149366  0.58460111  0.53166629  1  -0.072735  0  -0.109235  -0.196156  0  3.982125  0
C  C167  1  0.83459242  0.32016966  0.03166191  1  -0.125978  0  -0.10932  -0.1962  0  3.982204  0
C  C168  1  0.56819505  0.91154566  0.44576774  1  -0.116288  0  -0.100684  -0.173635  0  3.972529  0
C  C169  1  0.16154494  0.62756694  0.94576681  1  -0.110871  0  -0.100599  -0.173537  0  3.972108  0
C  C170  1  0.87757309  0.53422870  0.44577116  1  -0.098217  0  -0.100633  -0.173511  0  3.972396  0
C  C171  1  0.78422214  0.31819850  0.94577080  1  -0.051159  0  -0.100623  -0.173562  0  3.972217  0
C  C172  1  0.38757364  0.61847451  0.10748497  1  -0.105303  0  -0.105133  -0.180588  0  3.981274  0
C  C173  1  0.86847674  0.46990820  0.60748199  1  -0.126615  0  -0.105152  -0.180665  0  3.98124  0
C  C174  1  0.71991676  0.48901048  0.10748283  1  -0.079741  0  -0.105157  -0.180746  0  3.981219  0
C  C175  1  0.73900335  0.13756750  0.60747740  1  -0.046048  0  -0.105146  -0.180669  0  3.981181  0
C  C176  1  0.32804417  0.53902620  0.06711597  1  -0.023497  0  -0.103746  -0.180034  0  3.977235  0
C  C177  1  0.78902656  0.48906496  0.56710636  1  -0.023858  0  -0.103727  -0.179956  0  3.977082  0
C  C178  1  0.73907619  0.52808825  0.06711194  1  -0.071223  0  -0.103715  -0.179826  0  3.977241  0
C  C179  1  0.77808146  0.07803659  0.56710772  1  -0.066914  0  -0.103715  -0.179891  0  3.977066  0
C  C180  1  0.22487456  0.40436768  0.20466252  1  -0.046161  0  -0.108735  -0.194763  0  3.980365  0
C  C181  1  0.65436126  0.72977569  0.70464879  1  -0.024572  0  -0.108769  -0.194805  0  3.980199  0
C  C182  1  0.97979089  0.80028980  0.20466398  1  -0.067356  0  -0.108676  -0.194712  0  3.980364  0
C  C183  1  0.05029698  0.97488145  0.70466479  1  -0.018633  0  -0.10869  -0.194683  0  3.980321  0
C  C184  1  0.24559215  0.43306039  0.29778989  1  -0.140388  0  -0.106289  -0.184231  0  3.98512  0
C  C185  1  0.68304923  0.80218583  0.79777852  1  -0.140734  0  -0.106176  -0.184161  0  3.984653  0
C  C186  1  0.05219833  0.86473413  0.29779524  1  -0.089177  0  -0.106373  -0.184393  0  3.985153  0
C  C187  1  0.11473890  0.99560463  0.79779387  1  -0.124491  0  -0.10619  -0.184141  0  3.984995  0
C  C188  1  0.50042419  0.88337547  0.59142941  1  -0.002425  0  -0.008895  -0.084209  0  3.950652  0
C  C189  1  0.13336258  0.84099256  0.09141845  1  -0.019322  0  -0.008746  -0.08416  0  3.9502  0
C  C190  1  0.09100273  0.70805978  0.59143456  1  -0.040692  0  -0.008919  -0.084275  0  3.950499  0
C  C191  1  0.95805501  0.25043092  0.09143176  1  -0.001215  0  -0.008844  -0.084122  0  3.950595  0
C  C192  1  0.48173686  0.76199868  0.27928420  1  0.019301  0  0.000483  -0.071764  0  3.93179  0
C  C193  1  0.01199865  0.54753567  0.77927806  1  0.021368  0  0.000487  -0.071726  0  3.931945  0
C  C194  1  0.79755235  0.51728168  0.27928199  1  -0.013227  0  0.000472  -0.071723  0  3.931766  0
C  C195  1  0.76727945  0.23173766  0.77928087  1  -0.048688  0  0.000466  -0.071779  0  3.931827  0
C  C196  1  0.26994732  0.47664548  0.13561474  1  0.036794  0  0.001843  -0.069375  0  3.917834  0
C  C197  1  0.72664323  0.61566294  0.63560406  1  0.033933  0  0.001846  -0.069372  0  3.917689  0
C  C198  1  0.86567004  0.65895892  0.13560703  1  0.063905  0  0.001888  -0.06924  0  3.91824  0
C  C199  1  0.90896541  0.01994462  0.63561360  1  0.042277  0  0.001938  -0.069138  0  3.917947  0
C  C200  1  0.33407321  0.58228141  0.46579062  1  0.034596  0  0.004845  -0.062824  0  3.904663  0
C  C201  1  0.83227026  0.88170682  0.96578662  1  -0.012123  0  0.004815  -0.06315  0  3.904772  0
C  C202  1  0.13171547  0.88351736  0.46579846  1  0.025948  0  0.00488  -0.062921  0  3.904864  0
C  C203  1  0.13352161  0.08408431  0.96579805  1  0.060873  0  0.004878  -0.062838  0  3.904726  0
C  C204  1  0.53868307  0.97477483  0.68516286  1  -0.044523  0  -0.009587  -0.009319  0  3.995514  0
C  C205  1  0.22476628  0.89647215  0.18515587  1  0.010441  0  -0.00962  -0.009139  0  3.995379  0
C  C206  1  0.14647824  0.71039518  0.68516557  1  0.040655  0  -0.00957  -0.00909  0  3.995394  0
C  C207  1  0.96039145  0.28868710  0.18516792  1  -0.026843  0  -0.009601  -0.009144  0  3.995578  0
C  C208  1  0.48258336  0.02599916  0.70453426  1  0.004651  0  -0.09075  -0.122242  0  3.997873  0
C  C209  1  0.27598988  0.97194161  0.20452706  1  -0.004925  0  -0.090805  -0.122419  0  3.998019  0
C  C210  1  0.22194888  0.67854217  0.70453684  1  -0.034507  0  -0.090789  -0.122356  0  3.998096  0
C  C211  1  0.92854026  0.23259120  0.20454014  1  -0.052513  0  -0.09078  -0.122361  0  3.998549  0
C  C212  1  0.51908533  0.11173129  0.79227231  1  -0.070927  0  -0.100219  -0.099852  0  4.047984  0
C  C213  1  0.36172091  0.02317315  0.29226084  1  -0.142885  0  -0.100228  -0.099714  0  4.04789  0
C  C214  1  0.27318721  0.68055284  0.79227886  1  -0.074348  0  -0.100194  -0.099777  0  4.047924  0
C  C215  1  0.93055527  0.26909460  0.29228071  1  0.008095  0  -0.100122  -0.099669  0  4.048112  0
C  C216  1  0.61274541  0.14674712  0.86120588  1  -0.032096  0  -0.092872  -0.07453  0  4.042554  0
C  C217  1  0.39673521  0.99844636  0.36119224  1  0.004221  0  -0.092796  -0.074581  0  4.042359  0
C  C218  1  0.24845739  0.71446583  0.86120953  1  -0.058977  0  -0.092918  -0.074713  0  4.042427  0
C  C219  1  0.96446974  0.36275313  0.36120927  1  -0.067557  0  -0.092883  -0.07469  0  4.042375  0
C  C220  1  0.67044048  0.09693356  0.84407320  1  0.00585  0  -0.094851  -0.170698  0  3.9559  0
C  C221  1  0.34692033  0.92362044  0.34406167  1  -0.016614  0  -0.094855  -0.170659  0  3.955623  0
C  C222  1  0.17362760  0.74714709  0.84407702  1  0.007528  0  -0.094791  -0.170597  0  3.955371  0
C  C223  1  0.99715147  0.42045169  0.34407757  1  0.01917  0  -0.094881  -0.170648  0  3.955239  0
C  C224  1  0.63335405  0.01057190  0.75641216  1  0.279153  0  0.097147  0.189917  0  3.989665  0
C  C225  1  0.26055990  0.87305053  0.25640280  1  0.285082  0  0.097185  0.189803  0  3.989557  0
C  C226  1  0.12305833  0.74585029  0.75641644  1  0.259668  0  0.097222  0.189947  0  3.989542  0
C  C227  1  0.99584855  0.38335726  0.25641126  1  0.266077  0  0.097222  0.18986  0  3.989482  0
C  C228  1  0.51808342  0.79820328  0.23978496  1  -0.057458  0  -0.00659  0.081101  0  4.012531  0
C  C229  1  0.04820382  0.47169509  0.73978285  1  -0.040033  0  -0.006604  0.081065  0  4.012862  0
C  C230  1  0.72170940  0.44157849  0.23978720  1  -0.033557  0  -0.006597  0.081017  0  4.012591  0
C  C231  1  0.69157894  0.26808543  0.73978513  1  -0.040901  0  -0.006616  0.081138  0  4.012688  0
C  C232  1  0.46559649  0.83301836  0.18409459  1  -0.024562  0  -0.093464  -0.136637  0  3.974714  0
C  C233  1  0.08302433  0.46849432  0.68409710  1  -0.045882  0  -0.093557  -0.136738  0  3.974709  0
C  C234  1  0.71851000  0.35107817  0.18409971  1  -0.030113  0  -0.093527  -0.136832  0  3.974651  0
C  C235  1  0.60107520  0.21560373  0.68409882  1  0.001879  0  -0.09352  -0.136744  0  3.974887  0
C  C236  1  0.49775425  0.86386019  0.14391267  1  -0.07317  0  -0.099528  -0.088787  0  4.044225  0
C  C237  1  0.11387171  0.39615410  0.64391727  1  -0.066531  0  -0.099503  -0.088716  0  4.044084  0
C  C238  1  0.64617258  0.28005234  0.14391984  1  -0.07811  0  -0.099553  -0.088628  0  4.043732  0
C  C239  1  0.53004926  0.24776039  0.64391730  1  -0.121362  0  -0.099468  -0.088676  0  4.044197  0
C  C240  1  0.58307400  0.86104384  0.15937972  1  -0.039403  0  -0.10147  -0.098688  0  4.040315  0
C  C241  1  0.11104880  0.32630432  0.65938607  1  -0.046037  0  -0.101478  -0.098731  0  4.040466  0
C  C242  1  0.57632395  0.29834192  0.15939400  1  -0.002337  0  -0.101483  -0.098848  0  4.040388  0
C  C243  1  0.54833652  0.33307859  0.65938634  1  -0.001396  0  -0.101502  -0.098752  0  4.04042  0
C  C244  1  0.63646236  0.82803953  0.21620766  1  -0.048394  0  -0.098219  -0.081294  0  4.033254  0
C  C245  1  0.07804214  0.32974540  0.71621125  1  -0.050559  0  -0.098171  -0.08127  0  4.033082  0
C  C246  1  0.57976363  0.38817274  0.21622079  1  -0.112082  0  -0.098101  -0.081241  0  4.033223  0
C  C247  1  0.63816778  0.38646679  0.71621515  1  -0.070105  0  -0.098238  -0.081308  0  4.033005  0
C  C248  1  0.60424303  0.79691382  0.25622090  1  -0.033314  0  -0.091705  -0.133778  0  3.969972  0
C  C249  1  0.04691051  0.40197445  0.75621618  1  -0.050233  0  -0.091667  -0.133615  0  3.970143  0
C  C250  1  0.65198997  0.45931136  0.25622590  1  0.001936  0  -0.091674  -0.133653  0  3.97  0
C  C251  1  0.70930754  0.35424404  0.75622495  1  -0.032057  0  -0.091625  -0.133715  0  3.969982  0
C  C252  1  0.22384428  0.38778659  0.03781461  1  -0.099748  0  -0.008277  0.079926  0  4.008947  0
C  C253  1  0.63778602  0.56397320  0.53780767  1  -0.029779  0  -0.008341  0.079829  0  4.009107  0
C  C254  1  0.81398204  0.65002812  0.03781980  1  -0.018765  0  -0.008396  0.079829  0  4.009456  0
C  C255  1  0.90003042  0.97384239  0.53782072  1  -0.079326  0  -0.008393  0.079753  0  4.009313  0
C  C256  1  0.12895644  0.35260746  0.97620900  1  0.010587  0  -0.094182  -0.134343  0  3.968117  0
C  C257  1  0.60260647  0.59725107  0.47620067  1  -0.045573  0  -0.094157  -0.134113  0  3.968171  0
C  C258  1  0.84725726  0.62359775  0.97620781  1  -0.048916  0  -0.094199  -0.13426  0  3.968087  0
C  C259  1  0.87360249  0.87895482  0.47621433  1  0.064723  0  -0.094238  -0.134233  0  3.967964  0
C  C260  1  0.08669806  0.27037778  0.88395540  1  -0.072008  0  -0.093103  -0.076484  0  4.011553  0
C  C261  1  0.52037570  0.54725702  0.38394873  1  -0.049332  0  -0.09319  -0.076747  0  4.011816  0
C  C262  1  0.79725989  0.61357140  0.88395165  1  -0.10514  0  -0.093081  -0.076519  0  4.011609  0
C  C263  1  0.86357867  0.83669540  0.38395973  1  -0.133922  0  -0.09309  -0.076473  0  4.011561  0
C  C264  1  0.13868232  0.22134606  0.85248030  1  -0.051219  0  -0.094639  -0.082123  0  4.014841  0
C  C265  1  0.47134394  0.46379806  0.35247445  1  -0.043299  0  -0.094573  -0.081979  0  4.014611  0
C  C266  1  0.71380171  0.63113230  0.85248268  1  -0.058396  0  -0.094608  -0.081987  0  4.014746  0
C  C267  1  0.88113609  0.88867907  0.35248544  1  -0.061991  0  -0.094658  -0.082104  0  4.014783  0
C  C268  1  0.23313753  0.25491970  0.91372010  1  -0.090181  0  -0.096113  -0.087893  0  4.037796  0
C  C269  1  0.50491927  0.43058527  0.41371636  1  -0.072527  0  -0.09608  -0.087914  0  4.037652  0
C  C270  1  0.68059673  0.65880437  0.91373441  1  -0.016347  0  -0.096152  -0.087896  0  4.037762  0
C  C271  1  0.90880299  0.98313601  0.41373044  1  -0.090456  0  -0.096128  -0.087947  0  4.037778  0
C  C272  1  0.27547225  0.33766817  0.00561793  1  -0.034063  0  -0.093198  -0.13952  0  3.989279  0
C  C273  1  0.58767104  0.48014904  0.50561425  1  -0.037182  0  -0.093154  -0.139373  0  3.989239  0
C  C274  1  0.73016483  0.66795415  0.00562990  1  -0.072307  0  -0.093032  -0.139361  0  3.989513  0
C  C275  1  0.91795067  0.02546798  0.50562689  1  0.00077  0  -0.093092  -0.139367  0  3.989524  0
C  C276  1  0.32218699  0.53926218  0.51374311  1  -0.030472  0  -0.005114  0.084439  0  4.000788  0
C  C277  1  0.78924615  0.94154624  0.01372997  1  -0.041787  0  -0.005018  0.084704  0  4.000404  0
C  C278  1  0.19154956  0.97448248  0.51373914  1  -0.025673  0  -0.005063  0.084611  0  4.000752  0
C  C279  1  0.22448825  0.07219468  0.01374229  1  -0.017213  0  -0.005042  0.084619  0  4.000804  0
C  C280  1  0.39895681  0.53684007  0.58831365  1  -0.075399  0  -0.091164  -0.134828  0  3.975894  0
C  C281  1  0.78682480  0.93934863  0.08830132  1  -0.093822  0  -0.091295  -0.134845  0  3.97572  0
C  C282  1  0.18935027  0.05147405  0.58831040  1  -0.062638  0  -0.09127  -0.134993  0  3.975897  0
C  C283  1  0.30148127  0.14896126  0.08830837  1  -0.077244  0  -0.091218  -0.134843  0  3.975858  0
C  C284  1  0.38974496  0.49941798  0.63662803  1  -0.033933  0  -0.097976  -0.090885  0  4.048445  0
C  C285  1  0.74940849  0.99688111  0.13662323  1  -0.009979  0  -0.09793  -0.090942  0  4.048251  0
C  C286  1  0.24687583  0.13721082  0.63662912  1  -0.05738  0  -0.097958  -0.090816  0  4.048214  0
C  C287  1  0.38721790  0.13975184  0.13662820  1  -0.077255  0  -0.097919  -0.090923  0  4.048318  0
C  C288  1  0.30361988  0.46321958  0.61071136  1  -0.049609  0  -0.098844  -0.098207  0  4.039388  0
C  C289  1  0.71321855  0.05709840  0.11071547  1  -0.041115  0  -0.098761  -0.098061  0  4.039081  0
C  C290  1  0.30709164  0.14749772  0.61072087  1  -0.055339  0  -0.098837  -0.098268  0  4.039089  0
C  C291  1  0.39750026  0.05362608  0.11072027  1  -0.068565  0  -0.098867  -0.098227  0  4.039107  0
C  C292  1  0.22695021  0.46458279  0.53608427  1  -0.046268  0  -0.095784  -0.084872  0  4.03206  0
C  C293  1  0.71458278  0.05913938  0.03608714  1  -0.059342  0  -0.095848  -0.08492  0  4.031933  0
C  C294  1  0.30913634  0.07150669  0.53609284  1  -0.038686  0  -0.095785  -0.084771  0  4.031723  0
C  C295  1  0.32150641  0.97695809  0.03609624  1  0.000681  0  -0.095736  -0.084741  0  4.031853  0
C  C296  1  0.23615974  0.50257242  0.48824902  1  -0.022798  0  -0.091781  -0.132278  0  3.957293  0
C  C297  1  0.75256332  0.00208546  0.98824313  1  -0.009605  0  -0.091726  -0.132355  0  3.956988  0
C  C298  1  0.25208790  0.98568280  0.48825292  1  -0.024325  0  -0.091846  -0.13244  0  3.95729  0
C  C299  1  0.23568451  0.98616937  0.98825615  1  -0.058159  0  -0.091892  -0.1325  0  3.95733  0
C  C300  1  0.77453893  0.97049885  0.77191319  1  1.420234  0  0.251328  0.482476  0  4.087074  0
C  C301  1  0.22049018  0.74736573  0.27189604  1  1.395718  0  0.251125  0.482181  0  4.087063  0
C  C302  1  0.99737374  0.80141883  0.77191629  1  1.391307  0  0.251282  0.482448  0  4.087014  0
C  C303  1  0.05141524  0.52453931  0.27191211  1  1.414536  0  0.251363  0.482528  0  4.086865  0
C  C304  1  0.80128013  0.89691511  0.71312570  1  0.084489  0  -0.011973  -0.035177  0  3.996184  0
C  C305  1  0.14691200  0.66183520  0.21311538  1  0.058983  0  -0.011963  -0.035209  0  3.996292  0
C  C306  1  0.91184248  0.81621353  0.71312779  1  0.050837  0  -0.012022  -0.035321  0  3.996256  0
C  C307  1  0.06620983  0.55127786  0.21311780  1  0.082376  0  -0.012046  -0.035369  0  3.996378  0
C  C308  1  0.88260166  0.88260392  0.76520744  1  -0.011832  0  -0.059678  -0.07934  0  3.911558  0
C  C309  1  0.13260049  0.63259739  0.26519854  1  -0.062923  0  -0.05973  -0.079407  0  3.911399  0
C  C310  1  0.74912635  0.84490075  0.60860851  1  -0.167883  0  -0.076637  -0.092931  0  3.931776  0
C  C311  1  0.09490012  0.60947120  0.10859965  1  -0.079276  0  -0.076554  -0.092776  0  3.931805  0
C  C312  1  0.85947905  0.76370855  0.60861195  1  -0.127879  0  -0.076612  -0.092962  0  3.931829  0
C  C313  1  0.01370542  0.49912531  0.10860211  1  -0.12576  0  -0.076589  -0.092798  0  3.93168  0
C  C314  1  0.77843157  0.77843227  0.55686853  1  -0.044084  0  -0.083704  -0.071877  0  4.00898  0
C  C315  1  0.02843074  0.52842687  0.05685726  1  -0.079376  0  -0.083851  -0.072021  0  4.009229  0
N  N316  1  0.41387665  0.72407328  0.50357836  1  -1.208821  0  -0.366642  -0.36813  0  3.460974  0
N  N317  1  0.97405556  0.83968611  0.00357260  1  -1.21554  0  -0.366689  -0.368146  0  3.460857  0
N  N318  1  0.08969693  0.77951388  0.50358340  1  -1.220192  0  -0.366692  -0.368157  0  3.46116  0
N  N319  1  0.02951796  0.16388926  0.00358466  1  -1.222152  0  -0.366713  -0.36816  0  3.461084  0
N  N320  1  0.48382792  0.79682814  0.42814862  1  -1.21533  0  -0.368118  -0.376096  0  3.445021  0
N  N321  1  0.04681963  0.69430858  0.92814046  1  -1.206272  0  -0.368149  -0.376143  0  3.445  0
N  N322  1  0.94432169  0.63132522  0.42815466  1  -1.197201  0  -0.368109  -0.376063  0  3.444995  0
N  N323  1  0.88131609  0.23382195  0.92814329  1  -1.217148  0  -0.368127  -0.376064  0  3.445153  0
N  N324  1  0.37523017  0.63049236  0.23218357  1  -1.2152  0  -0.365234  -0.381309  0  3.438391  0
N  N325  1  0.88048651  0.60694351  0.73218060  1  -1.226803  0  -0.365342  -0.381458  0  3.438393  0
N  N326  1  0.85696190  0.60168934  0.23218188  1  -1.217521  0  -0.365181  -0.381204  0  3.438218  0
N  N327  1  0.85168843  0.12523105  0.73218318  1  -1.215106  0  -0.365218  -0.381312  0  3.438312  0
N  N328  1  0.30621809  0.55637356  0.30812746  1  -1.206092  0  -0.361301  -0.381007  0  3.451096  0
N  N329  1  0.80636768  0.75190142  0.80812086  1  -1.200371  0  -0.361281  -0.380957  0  3.451216  0
N  N330  1  0.00191183  0.75175700  0.30813084  1  -1.205136  0  -0.361257  -0.380949  0  3.45111  0
N  N331  1  0.00175588  0.05622247  0.80813094  1  -1.193583  0  -0.361266  -0.380998  0  3.451105  0
N  N332  1  0.68429368  0.95354173  0.73210131  1  -1.293333  0  -0.39293  -0.358039  0  3.659265  0
N  N333  1  0.20352430  0.79779891  0.23208686  1  -1.283359  0  -0.392882  -0.357812  0  3.659087  0
N  N334  1  0.04780857  0.77857130  0.73210491  1  -1.280352  0  -0.392954  -0.35812  0  3.659166  0
N  N335  1  0.02856811  0.43429739  0.23210024  1  -1.295088  0  -0.392933  -0.358061  0  3.659152  0
O  O336  1  0.83209397  0.04220377  0.85213679  1  -1.163379  0  -0.279166  -0.464589  0  2.295637  0
O  O337  1  0.29219955  0.77003825  0.35212174  1  -1.15944  0  -0.279045  -0.464458  0  2.295576  0
O  O338  1  0.02004288  0.80993388  0.85214017  1  -1.151438  0  -0.279154  -0.464607  0  2.295525  0
O  O339  1  0.05993457  0.58209549  0.35214111  1  -1.16094  0  -0.27921  -0.464639  0  2.295504  0
