# generated using pymatgen
data_CoH22C24S2(N2O3)2
_symmetry_space_group_name_H-M   'P 1'
_cell_length_a   8.79857782
_cell_length_b   8.80828193
_cell_length_c   9.25386759
_cell_angle_alpha   86.86832613
_cell_angle_beta   72.56611433
_cell_angle_gamma   62.03215305
_symmetry_Int_Tables_number   1
_chemical_formula_structural   CoH22C24S2(N2O3)2
_chemical_formula_sum   'Co1 H22 C24 S2 N4 O6'
_cell_volume   601.17566818
_cell_formula_units_Z   1
loop_
 _symmetry_equiv_pos_site_id
 _symmetry_equiv_pos_as_xyz
  1  'x, y, z'
loop_
 _atom_site_type_symbol
 _atom_site_label
 _atom_site_symmetry_multiplicity
 _atom_site_fract_x
 _atom_site_fract_y
 _atom_site_fract_z
 _atom_site_occupancy
 _atom_site_hle17_ddec_charge
 _atom_site_hle17_ddec_spin_density
 _atom_site_hle17_ddec_sum_bond_order
 _atom_site_hle17_magmom
 _atom_site_hse06_10hf_ddec_charge
 _atom_site_hse06_10hf_ddec_spin_density
 _atom_site_hse06_10hf_ddec_sum_bond_order
 _atom_site_hse06_10hf_magmom
 _atom_site_hse06_ddec_charge
 _atom_site_hse06_ddec_spin_density
 _atom_site_hse06_ddec_sum_bond_order
 _atom_site_hse06_magmom
 _atom_site_pbe_cm5_charge
 _atom_site_pbe_ddec_charge
 _atom_site_pbe_ddec_spin_density
 _atom_site_pbe_ddec_sum_bond_order
 _atom_site_pbe_magmom
Co  Co0  1  0.50000154  0.00000003  0.50000027  1  1.017025  2.884109  1.978862  2.612  0.98505  2.862322  2.368398  2.669  1.046948  2.887268  2.306291  2.73  0.66267  0.937513  2.844826  2.416961  2.615
H  H1  1  0.30392858  0.15201394  0.76322235  1  0.396956  -0.000375  0.921493  0.0  0.365895  0.000126  0.991709  0.001  0.377518  -7.6e-05  0.974967  0.0  0.280534  0.357708  0.000325  1.003355  0.001
H  H2  1  0.69607206  0.84798469  0.23677696  1  0.396954  -0.000374  0.921531  0.0  0.365888  0.000126  0.991728  0.001  0.377509  -7.6e-05  0.974988  0.0  0.28054  0.3577  0.000326  1.003375  0.001
H  H3  1  0.40651360  0.26650942  0.71298786  1  0.396367  -0.00034  0.900203  0.0  0.363959  0.000127  0.982745  0.001  0.374725  2e-06  0.967346  0.0  0.286246  0.356339  0.000298  0.993574  0.001
H  H4  1  0.59348942  0.73348927  0.28701400  1  0.396388  -0.000339  0.900186  0.0  0.363984  0.000127  0.982703  0.001  0.374751  1e-06  0.967302  0.0  0.286283  0.356363  0.000298  0.993537  0.001
H  H5  1  0.09634393  0.14216964  0.65240646  1  0.084807  0.000231  0.947592  0.001  0.093573  0.00024  1.013098  0.001  0.09572  0.000139  1.011203  0.001  0.116559  0.09196  0.000309  1.014856  0.001
H  H6  1  0.90365725  0.85783034  0.34759692  1  0.084778  0.000236  0.94766  0.001  0.093572  0.00024  1.013119  0.001  0.095719  0.000139  1.011224  0.001  0.116541  0.091957  0.000309  1.01488  0.001
H  H7  1  0.41313831  0.04476719  0.20050733  1  0.075994  0.000232  0.952358  0.001  0.084295  0.000278  1.015601  0.001  0.086965  0.000162  1.012966  0.001  0.115151  0.082036  0.000326  1.018143  0.001
H  H8  1  0.58686181  0.95523019  0.79949653  1  0.075984  0.000231  0.952371  0.001  0.084284  0.000278  1.015613  0.001  0.086955  0.000161  1.012976  0.001  0.115135  0.082022  0.000326  1.018162  0.001
H  H9  1  0.14320384  0.15758868  0.11005597  1  0.113919  0.000215  0.982201  0.0  0.121033  0.000281  1.046307  0.0  0.124454  0.000195  1.045014  0.0  0.103806  0.11869  0.000355  1.04721  0.0
H  H10  1  0.85679864  0.84240870  0.88994504  1  0.113931  0.000217  0.982235  0.0  0.121053  0.000281  1.04632  0.0  0.124474  0.000195  1.045027  0.0  0.103818  0.118708  0.000355  1.04723  0.0
H  H11  1  0.83407550  0.27937956  0.30548106  1  0.09444  -1.4e-05  0.98319  0.0  0.104419  -0.000146  1.0457  0.0  0.106426  -9e-05  1.045285  0.0  0.100898  0.102796  -0.000242  1.046259  0.0
H  H12  1  0.16592461  0.72061781  0.69452173  1  0.094409  -1.6e-05  0.98325  0.0  0.104381  -0.000146  1.045771  0.0  0.106388  -9e-05  1.045356  0.0  0.100888  0.102755  -0.000243  1.046334  0.0
H  H13  1  0.77164723  0.23505058  0.72385348  1  0.098052  9e-06  0.962144  0.0  0.108852  1.8e-05  1.034265  0.0  0.109057  1.7e-05  1.035455  0.0  0.096289  0.108824  1.5e-05  1.033387  0.0
H  H14  1  0.22835158  0.76494934  0.27614736  1  0.098072  1e-05  0.962133  0.0  0.108869  1.8e-05  1.034263  0.0  0.109076  1.7e-05  1.035452  0.0  0.096301  0.108834  1.5e-05  1.033397  0.0
H  H15  1  0.68267651  0.22800750  0.57627485  1  0.112046  -0.000284  0.953124  0.0  0.124713  -0.000354  1.018789  0.0  0.125991  -0.000328  1.018314  0.0  0.103098  0.123829  -0.000364  1.019253  0.0
H  H16  1  0.31732413  0.77199112  0.42372338  1  0.112042  -0.000287  0.953134  0.0  0.124707  -0.000354  1.018808  0.0  0.125984  -0.000328  1.018336  0.0  0.103096  0.123821  -0.000364  1.019267  0.0
H  H17  1  0.09772689  0.87249933  0.05392084  1  0.101188  2.8e-05  0.945687  0.0  0.110396  6e-06  1.011953  0.0  0.113337  7e-06  1.009324  0.0  0.10818  0.108063  2e-05  1.014234  0.0
H  H18  1  0.90227416  0.12750319  0.94607702  1  0.101199  2.8e-05  0.945658  0.0  0.110382  6e-06  1.011953  0.0  0.11333  8e-06  1.009307  0.0  0.108156  0.108041  1.9e-05  1.014241  0.0
H  H19  1  0.06330400  0.61268932  0.15480558  1  0.108543  6e-05  0.949559  0.0  0.118965  0.000117  1.008646  0.0  0.122904  8.1e-05  1.007053  0.0  0.106066  0.115807  0.000142  1.010632  0.0
H  H20  1  0.93669586  0.38731319  0.84519263  1  0.108539  5.8e-05  0.949517  0.0  0.118969  0.000117  1.008599  0.0  0.122904  8.1e-05  1.007017  0.0  0.106068  0.115811  0.000142  1.010575  0.0
H  H21  1  0.27394093  0.32669944  0.00088395  1  0.069523  7e-05  0.944412  0.0  0.08144  5.8e-05  1.004292  0.0  0.083875  4.9e-05  1.001936  0.0  0.112168  0.079375  2.7e-05  1.006469  0.0
H  H22  1  0.72605828  0.67330438  0.99911653  1  0.069608  6.8e-05  0.944347  0.0  0.081473  5.8e-05  1.004276  0.0  0.083908  4.9e-05  1.001922  0.0  0.112197  0.079415  2.7e-05  1.006453  0.0
C  C23  1  0.09990863  0.15205942  0.53363876  1  0.083979  -0.014316  3.650515  -0.01  0.0502  -0.00365  3.901204  -0.002  0.057388  -0.002423  3.917531  -0.002  0.047073  0.044318  -0.00599  3.891614  -0.003
C  C24  1  0.90009202  0.84793923  0.46636271  1  0.08404  -0.014341  3.65058  -0.01  0.050216  -0.00365  3.901242  -0.002  0.057405  -0.002421  3.917569  -0.002  0.047094  0.044334  -0.00599  3.89165  -0.003
C  C25  1  0.27722794  0.09702945  0.28150310  1  0.123192  -0.014661  3.706734  -0.01  0.092359  -0.003624  3.966323  -0.002  0.100123  -0.002536  3.982733  -0.002  0.043468  0.086553  -0.005513  3.956126  -0.003
C  C26  1  0.72277152  0.90296920  0.71849871  1  0.123161  -0.014654  3.70674  -0.01  0.092343  -0.003625  3.966319  -0.002  0.100109  -0.002536  3.982726  -0.002  0.043475  0.086536  -0.005513  3.956117  -0.003
C  C27  1  0.12590629  0.16278030  0.23167205  1  -0.129228  0.006062  3.747512  0.009  -0.137504  0.00165  3.995544  0.002  -0.145415  0.001281  4.016907  0.002  -0.089302  -0.132384  0.002111  3.981889  0.003
C  C28  1  0.87409382  0.83721707  0.76833074  1  -0.129199  0.006054  3.747509  0.009  -0.137474  0.001651  3.995524  0.002  -0.145386  0.001281  4.016885  0.002  -0.08928  -0.132353  0.002111  3.981869  0.003
C  C29  1  0.95565515  0.22699311  0.33982983  1  -0.047922  -0.01427  3.678185  -0.009  -0.072994  -0.003845  3.916755  -0.002  -0.068953  -0.00182  3.934376  -0.001  -0.072565  -0.076349  -0.007766  3.905508  -0.004
C  C30  1  0.04434615  0.77300425  0.66017153  1  -0.047909  -0.014249  3.678078  -0.009  -0.073012  -0.003846  3.916634  -0.002  -0.06897  -0.001821  3.934255  -0.001  -0.072576  -0.076362  -0.007766  3.905374  -0.004
C  C31  1  0.94052407  0.22023244  0.49454941  1  0.055476  0.005799  3.757993  0.008  0.083655  0.001568  3.992338  0.002  0.079088  0.001232  4.015942  0.002  -0.009659  0.086692  0.001988  3.976418  0.003
C  C32  1  0.05947776  0.77976622  0.50545063  1  0.055441  0.005798  3.757932  0.008  0.083723  0.001568  3.992163  0.002  0.079156  0.001232  4.015768  0.002  -0.009659  0.08676  0.001989  3.976236  0.003
C  C33  1  0.75953529  0.27844226  0.61259382  1  -0.207067  0.000277  3.699443  0.0  -0.253  0.000336  3.957799  0.0  -0.251937  0.000185  3.969171  0.0  -0.153857  -0.253378  0.000533  3.949518  0.001
C  C34  1  0.24046470  0.72155768  0.38740668  1  -0.207109  0.000275  3.699485  0.0  -0.253071  0.000336  3.957809  0.0  -0.252012  0.000183  3.969185  0.0  -0.153869  -0.253441  0.000533  3.94953  0.001
C  C35  1  0.44856681  0.55154978  0.78840901  1  0.185239  -0.001971  3.75292  -0.001  0.177714  -0.000325  4.020295  0.0  0.191059  -0.000121  4.036048  0.0  0.12455  0.167254  -0.000763  4.011888  0.0
C  C36  1  0.55143436  0.44845015  0.21158898  1  0.185162  -0.001976  3.752958  -0.001  0.177667  -0.000325  4.020308  0.0  0.191001  -0.000123  4.03608  0.0  0.124536  0.167212  -0.000763  4.0119  0.0
C  C37  1  0.32792134  0.72179644  0.86277644  1  -0.164463  0.003498  3.73484  0.005  -0.142767  0.00171  3.971187  0.003  -0.156491  0.001224  3.99167  0.002  -0.02375  -0.133884  0.002161  3.958473  0.004
C  C38  1  0.67207865  0.27820347  0.13722189  1  -0.164513  0.003503  3.734888  0.005  -0.142839  0.001709  3.971228  0.003  -0.156563  0.001224  3.991716  0.002  -0.023782  -0.133963  0.002161  3.95852  0.004
C  C39  1  0.19110996  0.74254759  0.99689971  1  0.003203  -0.002218  3.699165  -0.001  -0.029094  -0.00026  3.955794  0.0  -0.021441  3.4e-05  3.970807  0.0  -0.065588  -0.035011  -0.000963  3.94691  0.0
C  C40  1  0.80889056  0.25745363  0.00309947  1  0.00323  -0.002226  3.699242  -0.001  -0.02904  -0.00026  3.955853  0.0  -0.021383  3.4e-05  3.970868  0.0  -0.065526  -0.034947  -0.000963  3.946962  0.0
C  C41  1  0.17070446  0.60030745  0.05197781  1  -0.143049  0.000982  3.754705  0.001  -0.159419  0.000272  4.017818  0.0  -0.167422  0.000182  4.037769  0.0  -0.097313  -0.154559  0.000411  4.006202  0.001
C  C42  1  0.82929540  0.39969507  0.94802148  1  -0.143001  0.000989  3.754706  0.001  -0.159368  0.000272  4.01779  0.0  -0.167372  0.000183  4.037738  0.0  -0.097304  -0.154506  0.000411  4.006161  0.001
C  C43  1  0.28881299  0.44092059  0.96713021  1  0.142042  -0.002534  3.736422  -0.002  0.111299  -0.000442  3.994384  0.0  0.1203  -2.6e-05  4.009794  0.0  0.044684  0.105341  -0.001423  3.984783  -0.001
C  C44  1  0.71118569  0.55908193  0.03287050  1  0.141875  -0.002529  3.736387  -0.002  0.111167  -0.000442  3.994363  0.0  0.120169  -2.5e-05  4.009773  0.0  0.044602  0.105201  -0.001423  3.984768  -0.001
C  C45  1  0.33405394  0.87684476  0.79345614  1  0.641244  -0.007855  3.917828  -0.005  0.591652  -0.002713  4.216765  -0.001  0.628691  -0.001016  4.207991  0.0  0.204843  0.565844  -0.004815  4.221464  -0.002
C  C46  1  0.66594788  0.12315384  0.20653959  1  0.641377  -0.007855  3.917597  -0.005  0.591808  -0.002714  4.216512  -0.001  0.628849  -0.001015  4.207732  0.0  0.204932  0.566005  -0.004815  4.22121  -0.002
S  S47  1  0.63533905  0.51405292  0.62889764  1  0.051816  0.00059  2.414573  0.001  0.045282  0.000175  2.759503  0.0  0.039364  -1.5e-05  2.762049  0.0  0.039386  0.049999  0.000443  2.762341  0.001
S  S48  1  0.36466159  0.48594570  0.37110059  1  0.051873  0.000597  2.41453  0.001  0.045333  0.000175  2.759457  0.0  0.039425  -1.2e-05  2.762001  0.0  0.0394  0.050049  0.000443  2.762296  0.001
N  N49  1  0.26511074  0.09184844  0.43006499  1  -0.31386  0.035008  3.324897  0.064  -0.267316  0.024524  3.608147  0.041  -0.287241  0.019884  3.621703  0.034  -0.327208  -0.253213  0.02853  3.599673  0.048
N  N50  1  0.73488990  0.90815020  0.56993539  1  -0.313853  0.035011  3.324945  0.064  -0.267334  0.024525  3.608236  0.041  -0.28726  0.019884  3.621792  0.034  -0.327224  -0.25323  0.028531  3.599755  0.048
N  N51  1  0.42430133  0.41573213  0.83912973  1  -0.369818  0.000773  3.148752  0.001  -0.315943  0.000319  3.402855  0.0  -0.331095  0.000215  3.416678  0.0  -0.320659  -0.305856  0.00049  3.394117  0.001
N  N52  1  0.57569800  0.58426908  0.16086979  1  -0.36973  0.00077  3.148716  0.001  -0.315871  0.000319  3.402796  0.0  -0.33102  0.000214  3.416623  0.0  -0.320624  -0.305786  0.00049  3.394062  0.001
O  O53  1  0.41645751  0.85262301  0.65008205  1  -0.623317  0.034353  2.161343  0.063  -0.581071  0.025981  2.443658  0.044  -0.615061  0.019698  2.433924  0.033  -0.305577  -0.554171  0.033176  2.448118  0.056
O  O54  1  0.58354680  0.14737303  0.34991419  1  -0.62337  0.034355  2.161172  0.063  -0.581143  0.025981  2.443492  0.044  -0.615134  0.019699  2.433755  0.033  -0.305602  -0.554244  0.033177  2.447955  0.056
O  O55  1  0.25530861  0.02034530  0.87495096  1  -0.626839  -0.001766  1.959789  -0.001  -0.573327  -0.001394  2.184419  -0.001  -0.598597  -0.000791  2.174228  0.0  -0.320013  -0.554601  -0.001354  2.190426  0.0
O  O56  1  0.74468900  0.97965455  0.12504483  1  -0.6269  -0.001766  1.959795  -0.001  -0.573403  -0.001394  2.184423  -0.001  -0.598673  -0.000793  2.174231  0.0  -0.32006  -0.554675  -0.001354  2.190428  0.0
O  O57  1  0.35146391  0.20756567  0.67490586  1  -0.820971  0.030362  1.979812  0.052  -0.789785  0.027807  2.202072  0.044  -0.816806  0.021022  2.1691  0.034  -0.578846  -0.766768  0.035121  2.223963  0.054
O  O58  1  0.64854028  0.79243300  0.32509241  1  -0.820998  0.030359  1.979848  0.052  -0.789795  0.027806  2.202091  0.044  -0.816815  0.021021  2.169122  0.034  -0.578888  -0.766782  0.035119  2.223996  0.054
