# generated using pymatgen
data_DyH19C21NO8
_symmetry_space_group_name_H-M   'P 1'
_cell_length_a   12.10794728
_cell_length_b   12.11736452
_cell_length_c   18.30958116
_cell_angle_alpha   102.17772681
_cell_angle_beta   107.50757955
_cell_angle_gamma   103.04870465
_symmetry_Int_Tables_number   1
_chemical_formula_structural   DyH19C21NO8
_chemical_formula_sum   'Dy4 H76 C84 N4 O32'
_cell_volume   2380.64400921
_cell_formula_units_Z   4
loop_
 _symmetry_equiv_pos_site_id
 _symmetry_equiv_pos_as_xyz
  1  'x, y, z'
loop_
 _atom_site_type_symbol
 _atom_site_label
 _atom_site_symmetry_multiplicity
 _atom_site_fract_x
 _atom_site_fract_y
 _atom_site_fract_z
 _atom_site_occupancy
 _atom_site_pbe_bader_charge
 _atom_site_pbe_bader_spin_density
 _atom_site_pbe_cm5_charge
 _atom_site_pbe_ddec_charge
 _atom_site_pbe_ddec_spin_density
 _atom_site_pbe_ddec_sum_bond_order
 _atom_site_pbe_magmom
Dy  Dy0  1  0.58474372  0.16027866  0.98763327  1  2.157954  0  1.504889  2.02459  0  2.134918  0
Dy  Dy1  1  0.67269563  0.59695180  0.51228287  1  2.161078  0  1.505488  2.024708  0  2.134903  0
Dy  Dy2  1  0.41525689  0.83971933  0.01236913  1  2.157989  0  1.504872  2.024586  0  2.134912  0
Dy  Dy3  1  0.32730278  0.40304425  0.48771645  1  2.160818  0  1.505535  2.024924  0  2.134678  0
H  H4  1  0.68032691  0.01165974  0.89141604  1  0.627612  0  0.335499  0.426776  0  0.85451  0
H  H5  1  0.62091743  0.78871275  0.60852357  1  0.608673  0  0.335348  0.426651  0  0.85465  0
H  H6  1  0.31967008  0.98833636  0.10858275  1  0.62754  0  0.335464  0.426726  0  0.854578  0
H  H7  1  0.37908431  0.21128186  0.39147465  1  0.608613  0  0.335336  0.426648  0  0.854662  0
H  H8  1  0.56587529  0.91312239  0.89342066  1  0.648403  0  0.303047  0.405594  0  0.930447  0
H  H9  1  0.52008655  0.67261754  0.60675065  1  0.664011  0  0.302858  0.405308  0  0.930923  0
H  H10  1  0.43412149  0.08687178  0.10657792  1  0.647973  0  0.303057  0.40564  0  0.930371  0
H  H11  1  0.47991048  0.32738094  0.39324906  1  0.664028  0  0.302861  0.405314  0  0.93093  0
H  H12  1  0.31657415  0.72376894  0.45475819  1  0.042765  0  0.107139  0.108855  0  0.995974  0
H  H13  1  0.76856771  0.86140496  0.04537719  1  0.10955  0  0.107397  0.108958  0  0.996875  0
H  H14  1  0.68341393  0.27622574  0.54523880  1  0.042696  0  0.107137  0.108863  0  0.996002  0
H  H15  1  0.23143288  0.13859352  0.95462342  1  0.109455  0  0.107398  0.108935  0  0.996872  0
H  H16  1  0.14397798  0.78333889  0.37958096  1  0.037966  0  0.098759  0.094403  0  1.031585  0
H  H17  1  0.90318211  0.76397233  0.12057115  1  0.073674  0  0.09836  0.093747  0  1.031905  0
H  H18  1  0.85601647  0.21665666  0.62041439  1  0.038252  0  0.098764  0.094465  0  1.031539  0
H  H19  1  0.09681961  0.23603012  0.87942967  1  0.073679  0  0.098352  0.093736  0  1.031876  0
H  H20  1  0.06729935  0.72034326  0.22886854  1  0.060734  0  0.09792  0.090213  0  1.037711  0
H  H21  1  0.99141045  0.83847869  0.27128845  1  0.04901  0  0.097856  0.089942  0  1.037054  0
H  H22  1  0.93270855  0.27966125  0.77112868  1  0.060652  0  0.097945  0.09026  0  1.037676  0
H  H23  1  0.00859144  0.16152307  0.72871254  1  0.048979  0  0.097858  0.089962  0  1.037086  0
H  H24  1  0.16101554  0.59812508  0.15744692  1  0.067018  0  0.097097  0.093234  0  1.061302  0
H  H25  1  0.94088682  0.00384307  0.34263953  1  0.064681  0  0.096927  0.093246  0  1.061007  0
H  H26  1  0.83899176  0.40188409  0.84255232  1  0.067007  0  0.097061  0.09323  0  1.061264  0
H  H27  1  0.05911293  0.99615888  0.65736020  1  0.064651  0  0.09692  0.093237  0  1.060973  0
H  H28  1  0.35685660  0.39825377  0.29122875  1  0.111033  0  0.109527  0.117429  0  1.028243  0
H  H29  1  0.60676453  0.06540062  0.20880562  1  0.125119  0  0.10947  0.117872  0  1.029263  0
H  H30  1  0.64313962  0.60175130  0.70876832  1  0.110943  0  0.109547  0.11744  0  1.028268  0
H  H31  1  0.39324260  0.93460901  0.79119435  1  0.125002  0  0.109561  0.11799  0  1.02914  0
H  H32  1  0.43501559  0.26901937  0.20949915  1  0.058872  0  0.100833  0.097889  0  1.032362  0
H  H33  1  0.55881111  0.22479778  0.29050915  1  0.066561  0  0.10112  0.09869  0  1.031566  0
H  H34  1  0.56498263  0.73098546  0.79050170  1  0.058955  0  0.100828  0.097873  0  1.032326  0
H  H35  1  0.44119604  0.77521135  0.70949263  1  0.066548  0  0.101083  0.09866  0  1.031606  0
H  H36  1  0.40720088  0.47717166  0.04514685  1  0.091375  0  0.110387  0.120296  0  0.994194  0
H  H37  1  0.93137119  0.36174027  0.45488388  1  0.132685  0  0.110143  0.118995  0  0.994663  0
H  H38  1  0.59279891  0.52282557  0.95484851  1  0.091393  0  0.110419  0.120331  0  0.994095  0
H  H39  1  0.06863210  0.63825856  0.54511853  1  0.132828  0  0.110143  0.118973  0  0.994667  0
H  H40  1  0.33595076  0.61182644  0.12953215  1  0.081661  0  0.105355  0.106006  0  1.025918  0
H  H41  1  0.98220848  0.20667528  0.37045237  1  0.0688  0  0.105636  0.106357  0  1.02528  0
H  H42  1  0.66404822  0.38817688  0.87046237  1  0.081764  0  0.10538  0.106028  0  1.026025  0
H  H43  1  0.01780051  0.79332696  0.62954861  1  0.068628  0  0.105649  0.106376  0  1.025306  0
H  H44  1  0.84805219  0.56103269  0.05174813  1  0.09412  0  0.104953  0.10746  0  1.013873  0
H  H45  1  0.01003712  0.79669568  0.44835023  1  0.094012  0  0.10515  0.107758  0  1.013645  0
H  H46  1  0.15194498  0.43896584  0.94824906  1  0.09415  0  0.104924  0.10743  0  1.013777  0
H  H47  1  0.98995988  0.20330753  0.55165386  1  0.094101  0  0.105153  0.107779  0  1.013628  0
H  H48  1  0.97103022  0.28419812  0.94799149  1  0.12291  0  0.105159  0.109313  0  1.004966  0
H  H49  1  0.83574548  0.02240946  0.55189864  1  0.09785  0  0.105684  0.110054  0  1.005416  0
H  H50  1  0.02896153  0.71580467  0.05200557  1  0.122451  0  0.105191  0.109361  0  1.00504  0
H  H51  1  0.16425235  0.97759077  0.44810451  1  0.09796  0  0.105618  0.109947  0  1.005429  0
H  H52  1  0.44075094  0.10377857  0.72164776  1  0.080981  0  0.112094  0.134614  0  0.998419  0
H  H53  1  0.88204922  0.71866294  0.77809919  1  0.099038  0  0.111822  0.13456  0  0.998541  0
H  H54  1  0.55925061  0.89621722  0.27834848  1  0.081196  0  0.112142  0.134644  0  0.99844  0
H  H55  1  0.11795002  0.28133375  0.22189562  1  0.098998  0  0.111804  0.134544  0  0.998607  0
H  H56  1  0.42895111  0.20668252  0.66331695  1  0.11097  0  0.106558  0.137845  0  1.016498  0
H  H57  1  0.04335009  0.76514248  0.83638615  1  0.105493  0  0.106489  0.137664  0  1.017296  0
H  H58  1  0.57104845  0.79331701  0.33668438  1  0.110942  0  0.106578  0.137824  0  1.016489  0
H  H59  1  0.95664598  0.23485520  0.16360905  1  0.10534  0  0.106477  0.137683  0  1.017315  0
H  H60  1  0.29501458  0.09851381  0.65561027  1  0.066758  0  0.100845  0.114192  0  1.001439  0
H  H61  1  0.94283547  0.63912999  0.84421336  1  0.043828  0  0.100719  0.11415  0  1.00073  0
H  H62  1  0.70498623  0.90148660  0.34439053  1  0.066735  0  0.100843  0.11419  0  1.001453  0
H  H63  1  0.05716294  0.36086991  0.15578149  1  0.043727  0  0.100709  0.114131  0  1.000617  0
H  H64  1  0.30795809  0.37907410  0.79665169  1  0.056655  0  0.109803  0.122135  0  0.990749  0
H  H65  1  0.08261625  0.51104026  0.70312997  1  0.062174  0  0.109803  0.122724  0  0.990323  0
H  H66  1  0.69204801  0.62091840  0.20335534  1  0.056696  0  0.109803  0.122132  0  0.99068  0
H  H67  1  0.91738741  0.48895981  0.29687281  1  0.062134  0  0.109842  0.122772  0  0.990316  0
H  H68  1  0.21821769  0.27627844  0.69902226  1  0.089953  0  0.101564  0.116629  0  1.004958  0
H  H69  1  0.07733824  0.51883324  0.80077210  1  0.060523  0  0.101996  0.117507  0  1.003201  0
H  H70  1  0.78178615  0.72371733  0.30098426  1  0.089828  0  0.101581  0.116656  0  1.004988  0
H  H71  1  0.92265994  0.48116872  0.19922963  1  0.060511  0  0.101959  0.117425  0  1.00323  0
H  H72  1  0.35884146  0.38112646  0.71432230  1  0.082978  0  0.113086  0.14169  0  0.987106  0
H  H73  1  0.16688605  0.64414002  0.78548349  1  0.117771  0  0.112947  0.141908  0  0.98625  0
H  H74  1  0.64116257  0.61887149  0.28568353  1  0.082959  0  0.113062  0.141644  0  0.987119  0
H  H75  1  0.83311246  0.35586080  0.21451768  1  0.117745  0  0.112937  0.141915  0  0.986256  0
H  H76  1  0.41271411  0.31087827  0.88247532  1  0.11054  0  0.129145  0.059357  0  1.018373  0
H  H77  1  0.92811815  0.52970757  0.61726380  1  0.107163  0  0.129006  0.058908  0  1.019752  0
H  H78  1  0.58729430  0.68912031  0.11752689  1  0.110962  0  0.129123  0.059329  0  1.018393  0
H  H79  1  0.07188044  0.47029115  0.38273302  1  0.1072  0  0.129024  0.058894  0  1.019717  0
C  C80  1  0.29538297  0.59391821  0.26408168  1  -0.073206  0  0.003101  0.05358  0  3.958469  0
C  C81  1  0.82991789  0.03143447  0.23594912  1  0.067829  0  0.00267  0.051972  0  3.958511  0
C  C82  1  0.70461496  0.40608280  0.73591625  1  -0.073071  0  0.003005  0.053398  0  3.958701  0
C  C83  1  0.17008329  0.96856719  0.76405205  1  0.067598  0  0.002675  0.051956  0  3.958556  0
C  C84  1  0.33916816  0.63093450  0.34874227  1  0.045911  0  -0.005095  -0.066536  0  3.920005  0
C  C85  1  0.78223531  0.99040373  0.15129393  1  -0.093734  0  -0.00466  -0.065922  0  3.920387  0
C  C86  1  0.66083042  0.36906086  0.65125722  1  0.045869  0  -0.00507  -0.066574  0  3.920064  0
C  C87  1  0.21776675  0.00959733  0.84870724  1  -0.093734  0  -0.004672  -0.066007  0  3.920443  0
C  C88  1  0.28313278  0.69760303  0.38938639  1  0.013248  0  -0.081775  -0.092805  0  3.977463  0
C  C89  1  0.80790749  0.89346251  0.11072140  1  -0.085366  0  -0.082163  -0.093215  0  3.979671  0
C  C90  1  0.71686261  0.30239406  0.61061078  1  0.013582  0  -0.081744  -0.092752  0  3.977704  0
C  C91  1  0.19209523  0.10653627  0.88927865  1  -0.084985  0  -0.082146  -0.093099  0  3.979755  0
C  C92  1  0.18610475  0.73095023  0.34706206  1  -0.04342  0  -0.094078  -0.092839  0  4.029979  0
C  C93  1  0.88349580  0.83873222  0.15307250  1  -0.056876  0  -0.09355  -0.091702  0  4.02931  0
C  C94  1  0.81388881  0.26904617  0.65293241  1  -0.044104  0  -0.094135  -0.092975  0  4.030115  0
C  C95  1  0.11650550  0.16126636  0.84692792  1  -0.057136  0  -0.093568  -0.091736  0  4.029396  0
C  C96  1  0.14367121  0.69634696  0.26332850  1  -0.04223  0  -0.093151  -0.082574  0  4.044749  0
C  C97  1  0.93286892  0.88030328  0.23680540  1  -0.020779  0  -0.093068  -0.082622  0  4.039753  0
C  C98  1  0.85632877  0.30364908  0.73666883  1  -0.042102  0  -0.093139  -0.082587  0  4.04469  0
C  C99  1  0.06712774  0.11969396  0.76319393  1  -0.020684  0  -0.09311  -0.082753  0  4.039963  0
C  C100  1  0.19739740  0.62820413  0.22276758  1  -0.051675  0  -0.088246  -0.12343  0  3.97943  0
C  C101  1  0.90550642  0.97480310  0.27731894  1  -0.055347  0  -0.087885  -0.122554  0  3.976394  0
C  C102  1  0.80260428  0.37179930  0.77722964  1  -0.051574  0  -0.088155  -0.123343  0  3.979415  0
C  C103  1  0.09449204  0.02519533  0.72268130  1  -0.055384  0  -0.087811  -0.122408  0  3.976405  0
C  C104  1  0.34327801  0.51601207  0.21691195  1  -0.004898  0  -0.000723  0.076597  0  3.987476  0
C  C105  1  0.79898428  0.12644562  0.28299482  1  -0.066081  0  4.8e-05  0.079371  0  3.984754  0
C  C106  1  0.65672337  0.48399537  0.78308495  1  -0.005499  0  -0.00067  0.076839  0  3.987277  0
C  C107  1  0.20101508  0.87355173  0.71700722  1  -0.066158  0  -1e-06  0.079394  0  3.984664  0
C  C108  1  0.37084156  0.41824583  0.23877199  1  -0.017176  0  -0.083699  -0.120515  0  3.942519  0
C  C109  1  0.67918778  0.13194660  0.26115767  1  -0.035325  0  -0.08377  -0.12274  0  3.944141  0
C  C110  1  0.62915640  0.58175805  0.76122506  1  -0.0167  0  -0.083714  -0.120595  0  3.94253  0
C  C111  1  0.32081570  0.86805441  0.73884404  1  -0.034963  0  -0.083893  -0.12299  0  3.944192  0
C  C112  1  0.41261318  0.34415196  0.19218189  1  -0.018232  0  -0.081686  -0.081115  0  3.972549  0
C  C113  1  0.65144742  0.22011938  0.30772188  1  0.031336  0  -0.08205  -0.081525  0  3.972114  0
C  C114  1  0.58738480  0.65585167  0.80781607  1  -0.018392  0  -0.081694  -0.081109  0  3.972492  0
C  C115  1  0.34855467  0.77988479  0.69227751  1  0.03129  0  -0.081988  -0.081475  0  3.972261  0
C  C116  1  0.39638530  0.46069124  0.09928016  1  -0.032678  0  -0.081931  -0.091141  0  3.969728  0
C  C117  1  0.86095848  0.29695141  0.40062518  1  -0.07446  0  -0.081097  -0.088464  0  3.967868  0
C  C118  1  0.60361240  0.53930833  0.90071577  1  -0.033019  0  -0.082003  -0.091178  0  3.969845  0
C  C119  1  0.13904674  0.70304889  0.59937470  1  -0.074709  0  -0.081029  -0.088385  0  3.968098  0
C  C120  1  0.35586257  0.53543842  0.14635799  1  -0.078823  0  -0.088319  -0.132652  0  3.97414  0
C  C121  1  0.88887610  0.20960319  0.35354938  1  0.000786  0  -0.08915  -0.134449  0  3.973391  0
C  C122  1  0.64413611  0.46456531  0.85363978  1  -0.07852  0  -0.088299  -0.132784  0  3.974233  0
C  C123  1  0.11112891  0.79039518  0.64645031  1  0.001213  0  -0.089165  -0.13447  0  3.973477  0
C  C124  1  0.44900086  0.60747157  0.39898477  1  1.54674  0  0.221592  0.621766  0  4.196953  0
C  C125  1  0.70865522  0.04991023  0.10094285  1  1.57606  0  0.220878  0.621566  0  4.195311  0
C  C126  1  0.55099490  0.39252315  0.60101635  1  1.546841  0  0.221693  0.622085  0  4.196469  0
C  C127  1  0.29134576  0.95008925  0.89905902  1  1.576056  0  0.220832  0.621615  0  4.195269  0
C  C128  1  0.47373730  0.28733619  0.07376328  1  1.51583  0  0.196843  0.57202  0  4.220732  0
C  C129  1  0.71297190  0.39956421  0.42613972  1  1.528778  0  0.197079  0.571745  0  4.222108  0
C  C130  1  0.52626147  0.71266159  0.92623461  1  1.515997  0  0.196771  0.571815  0  4.220735  0
C  C131  1  0.28702924  0.60043843  0.57385786  1  1.528584  0  0.197086  0.571768  0  4.222239  0
C  C132  1  0.90088568  0.41485097  0.00040027  1  -0.03248  0  -0.012129  -0.022806  0  3.960982  0
C  C133  1  0.91453633  0.90037952  0.49949922  1  -0.061551  0  -0.012431  -0.021862  0  3.959668  0
C  C134  1  0.09911895  0.58515351  0.99960346  1  -0.032797  0  -0.012175  -0.022973  0  3.96083  0
C  C135  1  0.08546171  0.09962265  0.50050413  1  -0.061498  0  -0.012409  -0.02185  0  3.95946  0
C  C136  1  0.91583554  0.53609433  0.02964225  1  -0.022904  0  -0.082026  -0.103604  0  3.977987  0
C  C137  1  0.00682016  0.88640312  0.47036904  1  -0.030228  0  -0.082447  -0.104677  0  3.97764  0
C  C138  1  0.08416538  0.46391061  0.97036130  1  -0.022977  0  -0.082019  -0.103537  0  3.977781  0
C  C139  1  0.99317645  0.11359910  0.52963377  1  -0.030174  0  -0.082414  -0.104678  0  3.977503  0
C  C140  1  0.98557137  0.37911111  0.97086859  1  -0.112126  0  -0.080959  -0.09729  0  3.970234  0
C  C141  1  0.90800075  0.01438157  0.52908641  1  -0.054462  0  -0.080929  -0.097634  0  3.971176  0
C  C142  1  0.01442727  0.62089374  0.02913713  1  -0.111699  0  -0.080961  -0.097268  0  3.97001  0
C  C143  1  0.09199515  0.98562054  0.47091659  1  -0.054694  0  -0.080866  -0.097567  0  3.971166  0
C  C144  1  0.79192303  0.32397267  0.99759963  1  1.539347  0  0.185799  0.564116  0  4.246797  0
C  C145  1  0.82672903  0.79414083  0.50238834  1  1.536309  0  0.186182  0.564602  0  4.2496  0
C  C146  1  0.20807324  0.67603093  0.00240284  1  1.539481  0  0.185934  0.564336  0  4.246881  0
C  C147  1  0.17327010  0.20586242  0.49761610  1  1.536292  0  0.186248  0.564645  0  4.249566  0
C  C148  1  0.38626315  0.15694862  0.69657500  1  0.232853  0  -0.135687  -0.270252  0  3.849337  0
C  C149  1  0.96032605  0.68926180  0.80316892  1  0.243686  0  -0.13517  -0.271015  0  3.849365  0
C  C150  1  0.61373849  0.84304857  0.30342577  1  0.232744  0  -0.135732  -0.270186  0  3.849377  0
C  C151  1  0.03967128  0.31073652  0.19682664  1  0.243854  0  -0.135173  -0.27106  0  3.849263  0
C  C152  1  0.31136700  0.32422732  0.74198314  1  0.244278  0  -0.128464  -0.276947  0  3.893676  0
C  C153  1  0.08233408  0.56901251  0.75779960  1  0.231684  0  -0.128455  -0.279401  0  3.891131  0
C  C154  1  0.68863863  0.67576988  0.25802340  1  0.244395  0  -0.128477  -0.276958  0  3.893852  0
C  C155  1  0.91766532  0.43098747  0.24220247  1  0.232096  0  -0.128428  -0.279379  0  3.891174  0
C  C156  1  0.42864914  0.24532378  0.83845273  1  1.380595  0  0.181254  0.31146  0  4.103339  0
C  C157  1  0.90669345  0.58966651  0.66133552  1  1.385872  0  0.181478  0.309985  0  4.104092  0
C  C158  1  0.57135607  0.75467317  0.16154983  1  1.37967  0  0.181192  0.311491  0  4.103476  0
C  C159  1  0.09330547  0.41033107  0.33866074  1  1.385921  0  0.181472  0.310064  0  4.103891  0
C  C160  1  0.42624423  0.36466938  0.12241363  1  -0.058378  0  -0.022779  -0.045744  0  3.999444  0
C  C161  1  0.74167276  0.30352446  0.37747662  1  -0.118208  0  -0.022803  -0.045736  0  4.000679  0
C  C162  1  0.57375294  0.63532939  0.87758265  1  -0.058279  0  -0.022778  -0.045656  0  3.99948  0
C  C163  1  0.25833140  0.69647739  0.62252220  1  -0.118253  0  -0.02282  -0.045697  0  4.000829  0
N  N164  1  0.37533491  0.24004244  0.76225555  1  -1.211835  0  -0.273804  0.038094  0  3.721346  0
N  N165  1  0.97775216  0.61262249  0.73750905  1  -1.210449  0  -0.273858  0.041662  0  3.717825  0
N  N166  1  0.62466993  0.75995302  0.23774754  1  -1.211618  0  -0.273685  0.038076  0  3.721655  0
N  N167  1  0.02224748  0.38737494  0.26248794  1  -1.210739  0  -0.273779  0.041773  0  3.717639  0
O  O168  1  0.55253157  0.65004493  0.39649100  1  -1.163612  0  -0.339647  -0.596498  0  2.227919  0
O  O169  1  0.75381643  0.15578353  0.10334028  1  -1.170088  0  -0.339181  -0.596186  0  2.227028  0
O  O170  1  0.44746682  0.34995535  0.60351450  1  -1.163168  0  -0.339738  -0.596683  0  2.227755  0
O  O171  1  0.24618404  0.84421803  0.89666108  1  -1.170124  0  -0.339176  -0.596183  0  2.227009  0
O  O172  1  0.43791656  0.54927416  0.44899294  1  -1.21128  0  -0.433398  -0.741946  0  2.43162  0
O  O173  1  0.60035070  0.98890633  0.05099614  1  -1.225868  0  -0.432971  -0.742422  0  2.428973  0
O  O174  1  0.56207827  0.45071143  0.55100285  1  -1.211876  0  -0.433374  -0.742042  0  2.43139  0
O  O175  1  0.39964832  0.01109241  0.94900556  1  -1.225905  0  -0.432905  -0.742429  0  2.42906  0
O  O176  1  0.51782437  0.20970350  0.10059495  1  -1.188674  0  -0.37346  -0.642399  0  2.260124  0
O  O177  1  0.60858546  0.41703452  0.39933246  1  -1.191502  0  -0.374028  -0.642564  0  2.262372  0
O  O178  1  0.48217637  0.79030213  0.89940843  1  -1.188754  0  -0.373421  -0.642288  0  2.260094  0
O  O179  1  0.39141451  0.58296537  0.60066040  1  -1.191495  0  -0.374006  -0.642613  0  2.262505  0
O  O180  1  0.47276275  0.29805329  0.00610809  1  -1.170506  0  -0.371306  -0.618437  0  2.282185  0
O  O181  1  0.79143716  0.46614633  0.49378211  1  -1.181857  0  -0.371235  -0.618156  0  2.280542  0
O  O182  1  0.52723277  0.70194024  0.99389013  1  -1.170432  0  -0.371261  -0.618356  0  2.282144  0
O  O183  1  0.20856096  0.53385709  0.50621422  1  -1.181618  0  -0.37128  -0.618219  0  2.280521  0
O  O184  1  0.72397183  0.35675990  0.03365794  1  -1.170875  0  -0.387962  -0.623518  0  2.174297  0
O  O185  1  0.82383476  0.69028768  0.46648031  1  -1.167226  0  -0.387234  -0.623653  0  2.171797  0
O  O186  1  0.27602598  0.64324057  0.96634432  1  -1.170667  0  -0.388042  -0.623646  0  2.174347  0
O  O187  1  0.17616831  0.30971681  0.53352541  1  -1.167297  0  -0.387277  -0.623732  0  2.171891  0
O  O188  1  0.76648924  0.21552728  0.95730096  1  -1.180081  0  -0.392575  -0.640485  0  2.17442  0
O  O189  1  0.75830981  0.80882988  0.54257981  1  -1.176867  0  -0.392976  -0.641817  0  2.178197  0
O  O190  1  0.23351190  0.78447935  0.04270369  1  -1.180156  0  -0.39261  -0.640558  0  2.17443  0
O  O191  1  0.24168495  0.19116877  0.45742117  1  -1.176667  0  -0.39298  -0.641784  0  2.178137  0
O  O192  1  0.49332505  0.18149415  0.86085798  1  -1.188284  0  -0.384654  -0.571226  0  2.36921  0
O  O193  1  0.82043711  0.63196264  0.63901528  1  -1.190883  0  -0.384945  -0.571035  0  2.372232  0
O  O194  1  0.50668195  0.81850423  0.13914459  1  -1.18808  0  -0.384663  -0.571278  0  2.369207  0
O  O195  1  0.17956345  0.36803658  0.36098262  1  -1.19091  0  -0.384999  -0.57116  0  2.372084  0
O  O196  1  0.59934486  0.99683773  0.89368118  1  -1.248625  0  -0.62544  -0.831377  0  2.069921  0
O  O197  1  0.60360136  0.70557497  0.60639261  1  -1.244874  0  -0.625871  -0.831305  0  2.070587  0
O  O198  1  0.40065515  0.00315758  0.10631885  1  -1.248182  0  -0.625416  -0.831369  0  2.06994  0
O  O199  1  0.39639539  0.29441970  0.39360418  1  -1.244786  0  -0.625866  -0.831355  0  2.070578  0
