# generated using pymatgen
data_CuH8(C4O3)2
_symmetry_space_group_name_H-M   'P 1'
_cell_length_a   5.65767952
_cell_length_b   7.08573941
_cell_length_c   10.86074214
_cell_angle_alpha   89.99889836
_cell_angle_beta   89.99939696
_cell_angle_gamma   89.99137983
_symmetry_Int_Tables_number   1
_chemical_formula_structural   CuH8(C4O3)2
_chemical_formula_sum   'Cu2 H16 C16 O12'
_cell_volume   435.39457888
_cell_formula_units_Z   2
loop_
 _symmetry_equiv_pos_site_id
 _symmetry_equiv_pos_as_xyz
  1  'x, y, z'
loop_
 _atom_site_type_symbol
 _atom_site_label
 _atom_site_symmetry_multiplicity
 _atom_site_fract_x
 _atom_site_fract_y
 _atom_site_fract_z
 _atom_site_occupancy
 _atom_site_hle17_ddec_charge
 _atom_site_hle17_ddec_spin_density
 _atom_site_hle17_ddec_sum_bond_order
 _atom_site_hle17_magmom
 _atom_site_hse06_10hf_ddec_charge
 _atom_site_hse06_10hf_ddec_spin_density
 _atom_site_hse06_10hf_ddec_sum_bond_order
 _atom_site_hse06_10hf_magmom
 _atom_site_hse06_ddec_charge
 _atom_site_hse06_ddec_spin_density
 _atom_site_hse06_ddec_sum_bond_order
 _atom_site_hse06_magmom
 _atom_site_pbe_cm5_charge
 _atom_site_pbe_ddec_charge
 _atom_site_pbe_ddec_spin_density
 _atom_site_pbe_ddec_sum_bond_order
 _atom_site_pbe_magmom
Cu  Cu0  1  0.44779172  0.66996876  0.99999938  1  1.036949  0.712918  1.648037  0.548  1.041691  0.80547  2.027026  0.67  1.121157  0.860897  1.96902  0.748  0.710579  0.981645  0.765273  2.080192  0.618
Cu  Cu1  1  0.94767595  0.33000818  0.99999965  1  1.036635  0.712844  1.648407  0.548  1.041305  0.805368  2.02747  0.67  1.120866  0.860794  1.969397  0.748  0.710453  0.981288  0.765187  2.08066  0.618
H  H2  1  0.61141241  0.62573392  0.38507707  1  0.101974  0.000384  0.962642  0.0  0.109162  0.000293  1.027554  0.0  0.112007  0.000191  1.026827  0.0  0.103981  0.107052  0.000389  1.028304  0.0
H  H3  1  0.11155470  0.37430621  0.61490746  1  0.101825  0.000385  0.962727  0.0  0.10905  0.000294  1.027601  0.0  0.111895  0.000192  1.026877  0.0  0.103859  0.106943  0.00039  1.028354  0.0
H  H4  1  0.61142714  0.62572922  0.61491956  1  0.101939  0.000378  0.962491  0.0  0.109157  0.000294  1.027377  0.0  0.112002  0.000192  1.026651  0.0  0.103961  0.107048  0.00039  1.028128  0.0
H  H5  1  0.11153644  0.37430102  0.38508062  1  0.101818  0.000383  0.962865  0.0  0.109052  0.000293  1.027735  0.0  0.111895  0.000191  1.027016  0.0  0.103837  0.106945  0.000389  1.028478  0.0
H  H6  1  0.91770649  0.87229299  0.38475076  1  0.100044  0.000261  0.965482  0.0  0.106654  0.000192  1.031714  0.0  0.109266  0.000117  1.031162  0.0  0.10287  0.104687  0.000266  1.032394  0.0
H  H7  1  0.41790225  0.12777487  0.61525924  1  0.10004  0.000258  0.966061  0.0  0.106611  0.000191  1.032253  0.0  0.109294  0.000117  1.031607  0.0  0.102789  0.104594  0.000266  1.032981  0.0
H  H8  1  0.91771591  0.87229393  0.61524330  1  0.100097  0.000262  0.965674  0.0  0.106685  0.000191  1.031896  0.0  0.109299  0.000116  1.031349  0.0  0.102886  0.104714  0.000266  1.032591  0.0
H  H9  1  0.41788576  0.12776970  0.38475750  1  0.100118  0.000259  0.965854  0.0  0.106625  0.000192  1.032111  0.0  0.109306  0.000117  1.031465  0.0  0.102783  0.104608  0.000267  1.032842  0.0
H  H10  1  0.44326001  0.32862149  0.07367151  1  0.427955  -0.000585  0.876058  -0.001  0.397501  -5e-06  0.943772  0.0  0.409998  -0.000204  0.92561  0.0  0.296395  0.388662  0.000166  0.956481  0.0
H  H11  1  0.94327069  0.67131708  0.92631445  1  0.428008  -0.000586  0.875955  -0.001  0.397469  -6e-06  0.943812  0.0  0.40998  -0.000205  0.92563  0.0  0.296318  0.388626  0.000165  0.956533  0.0
H  H12  1  0.44327028  0.32862624  0.92632779  1  0.427946  -0.000583  0.876045  -0.001  0.397502  -5e-06  0.943769  0.0  0.41  -0.000205  0.925605  0.0  0.29642  0.388664  0.000166  0.956477  0.0
H  H13  1  0.94326395  0.67131656  0.07368671  1  0.428023  -0.000587  0.875976  -0.001  0.397445  -5e-06  0.943855  0.0  0.409957  -0.000204  0.925672  0.0  0.296313  0.388597  0.000166  0.956586  0.0
H  H14  1  0.54100603  0.01205904  0.92703401  1  0.442063  6.7e-05  0.846154  0.001  0.416482  0.000563  0.90606  0.001  0.427291  0.000363  0.89054  0.001  0.305893  0.40868  0.000709  0.917241  0.002
H  H15  1  0.04101993  0.98790196  0.07295724  1  0.44195  7.1e-05  0.846721  0.001  0.416372  0.000564  0.906308  0.001  0.427178  0.000365  0.890799  0.001  0.305888  0.408573  0.000711  0.917482  0.002
H  H16  1  0.54099577  0.01205431  0.07296899  1  0.442093  6.7e-05  0.846125  0.001  0.416496  0.000563  0.906052  0.001  0.427306  0.000364  0.890531  0.001  0.305917  0.408695  0.000709  0.917227  0.002
H  H17  1  0.04103018  0.98790668  0.92704529  1  0.441943  7e-05  0.846678  0.001  0.41637  0.000564  0.906306  0.001  0.427177  0.000365  0.890791  0.001  0.305858  0.40857  0.000711  0.917484  0.002
C  C18  1  0.25653856  0.74071111  0.23361870  1  0.665429  -0.007546  3.847655  -0.007  0.619969  -0.001481  4.145206  -0.002  0.658557  -0.002181  4.135956  -0.002  0.221967  0.593685  -0.000823  4.150087  -0.002
C  C19  1  0.75663235  0.25927567  0.76637169  1  0.665279  -0.00755  3.84712  -0.007  0.619943  -0.001485  4.144568  -0.002  0.658518  -0.002185  4.135335  -0.002  0.221698  0.593694  -0.000826  4.149462  -0.002
C  C20  1  0.25654940  0.74071337  0.76637695  1  0.665355  -0.007543  3.847423  -0.007  0.620026  -0.001484  4.144887  -0.002  0.658615  -0.002178  4.135638  -0.002  0.221971  0.593751  -0.000823  4.149793  -0.002
C  C21  1  0.75661797  0.25926776  0.23363186  1  0.665448  -0.007553  3.847158  -0.007  0.620088  -0.001482  4.144608  -0.002  0.658664  -0.002184  4.135372  -0.002  0.221868  0.593815  -0.000825  4.149499  -0.002
C  C22  1  0.26351175  0.74758076  0.37123815  1  -0.062718  0.00722  3.745114  0.008  -0.041235  0.004247  3.975293  0.005  -0.048807  0.002933  3.996345  0.004  -0.01257  -0.036308  0.005256  3.961298  0.006
C  C23  1  0.76372675  0.25246968  0.62875682  1  -0.062615  0.007214  3.745259  0.008  -0.041029  0.004249  3.975253  0.005  -0.048591  0.002938  3.996299  0.004  -0.012528  -0.036159  0.00526  3.961335  0.006
C  C24  1  0.26353672  0.74757285  0.62876015  1  -0.062566  0.007183  3.745521  0.008  -0.041052  0.004247  3.975571  0.005  -0.048627  0.002936  3.996629  0.004  -0.012534  -0.036135  0.005256  3.961599  0.006
C  C25  1  0.76369471  0.25245219  0.37124771  1  -0.062664  0.007208  3.745437  0.008  -0.041112  0.004247  3.975445  0.005  -0.048677  0.002935  3.996496  0.004  -0.012638  -0.036215  0.005259  3.961482  0.006
C  C26  1  0.46032287  0.67955799  0.43599252  1  -0.06619  -0.001056  3.713504  -0.001  -0.087759  -0.000182  3.960996  0.0  -0.088466  -0.000248  3.98161  0.0  -0.079403  -0.087236  -9e-05  3.94713  0.0
C  C27  1  0.96041088  0.32046279  0.56402376  1  -0.066201  -0.001031  3.714388  -0.001  -0.087827  -0.000182  3.961882  0.0  -0.088519  -0.000258  3.982478  0.0  -0.079266  -0.0873  -9.1e-05  3.948044  0.0
C  C28  1  0.46030355  0.67956463  0.56400587  1  -0.066293  -0.000942  3.714181  -0.001  -0.087861  -0.000179  3.961635  0.0  -0.088569  -0.000256  3.982259  0.0  -0.079323  -0.087336  -8.9e-05  3.947769  0.0
C  C29  1  0.96041782  0.32046462  0.43596806  1  -0.066034  -0.001008  3.713938  -0.001  -0.087651  -0.000181  3.961366  0.0  -0.08834  -0.000253  3.981954  0.0  -0.079174  -0.087123  -9.2e-05  3.947503  0.0
C  C30  1  0.06893416  0.81898597  0.43591690  1  -0.065836  0.001334  3.717932  0.002  -0.089511  0.000954  3.968407  0.002  -0.090791  0.000445  3.990211  0.001  -0.079529  -0.088583  0.001451  3.953678  0.002
C  C31  1  0.56906702  0.18104336  0.56406596  1  -0.06591  0.001378  3.717918  0.002  -0.089561  0.000957  3.968263  0.002  -0.090902  0.000442  3.990028  0.001  -0.07939  -0.08856  0.001455  3.95356  0.002
C  C32  1  0.06892368  0.81899119  0.56408217  1  -0.066094  0.001382  3.717768  0.002  -0.089769  0.000955  3.96828  0.002  -0.091052  0.000438  3.990084  0.001  -0.079642  -0.088844  0.001452  3.953563  0.002
C  C33  1  0.56907927  0.18104520  0.43593935  1  -0.066102  0.001367  3.718466  0.002  -0.08969  0.000957  3.968864  0.002  -0.091029  0.000447  3.990633  0.001  -0.079439  -0.088696  0.001454  3.954138  0.002
O  O34  1  0.07423273  0.80269219  0.17826517  1  -0.637419  0.002364  2.005276  0.005  -0.582954  0.000635  2.227998  0.002  -0.608693  -0.000717  2.214212  0.0  -0.314657  -0.564613  0.002067  2.236708  0.004
O  O35  1  0.57436645  0.19727234  0.82169188  1  -0.637374  0.002352  2.004846  0.005  -0.5831  0.000633  2.227632  0.002  -0.608838  -0.000717  2.213871  0.0  -0.314676  -0.564751  0.002063  2.236337  0.004
O  O36  1  0.07426690  0.80268581  0.82173317  1  -0.637255  0.002346  2.005253  0.005  -0.582943  0.000633  2.228022  0.002  -0.608677  -0.000718  2.21424  0.0  -0.314595  -0.564598  0.002063  2.236739  0.004
O  O37  1  0.57433229  0.19724626  0.17831136  1  -0.637583  0.002366  2.004589  0.005  -0.583254  0.000636  2.227343  0.002  -0.608999  -0.000715  2.213584  0.0  -0.314784  -0.564901  0.002068  2.236045  0.004
O  O38  1  0.43822734  0.66923081  0.18007273  1  -0.57549  0.088839  2.017338  0.125  -0.548788  0.052356  2.28966  0.08  -0.591036  0.03858  2.281591  0.064  -0.319414  -0.518861  0.061828  2.294439  0.09
O  O39  1  0.93826036  0.33077539  0.81992982  1  -0.575287  0.088902  2.016892  0.125  -0.548684  0.052395  2.289228  0.081  -0.590965  0.038612  2.281196  0.064  -0.319285  -0.518762  0.061857  2.293998  0.09
O  O40  1  0.43825802  0.66923719  0.81992864  1  -0.575494  0.088903  2.016905  0.125  -0.548928  0.052383  2.289301  0.08  -0.591188  0.038596  2.281238  0.064  -0.319493  -0.518993  0.061849  2.29407  0.09
O  O41  1  0.93821731  0.33077184  0.18006839  1  -0.575417  0.088844  2.017488  0.125  -0.548766  0.052369  2.289805  0.08  -0.591037  0.038594  2.281764  0.064  -0.319368  -0.518848  0.061836  2.294591  0.09
O  O42  1  0.37091396  0.39417597  0.99999947  1  -0.857372  0.052354  2.056494  0.077  -0.836788  0.039098  2.31423  0.062  -0.866298  0.029166  2.268494  0.051  -0.573753  -0.813355  0.046338  2.345761  0.068
O  O43  1  0.87082108  0.60578522  0.00000079  1  -0.857441  0.052411  2.05656  0.078  -0.836614  0.039129  2.31452  0.062  -0.866177  0.029191  2.268812  0.051  -0.573467  -0.813092  0.04637  2.345882  0.069
O  O44  1  0.47531886  0.94579631  0.00000123  1  -0.838866  0.052029  2.031483  0.074  -0.803455  0.040297  2.260917  0.061  -0.833036  0.031405  2.224522  0.051  -0.587755  -0.782198  0.045964  2.286974  0.065
O  O45  1  0.97539761  0.05419675  0.00000230  1  -0.838708  0.051969  2.032622  0.074  -0.803323  0.040268  2.261736  0.061  -0.832916  0.031389  2.225344  0.051  -0.587823  -0.782067  0.045922  2.287798  0.065
