# generated using pymatgen
data_CuH14C20(N3O2)2
_symmetry_space_group_name_H-M   'P 1'
_cell_length_a   9.17170172
_cell_length_b   10.14144144
_cell_length_c   10.77462311
_cell_angle_alpha   72.00735976
_cell_angle_beta   85.70920627
_cell_angle_gamma   76.28694665
_symmetry_Int_Tables_number   1
_chemical_formula_structural   CuH14C20(N3O2)2
_chemical_formula_sum   'Cu2 H28 C40 N12 O8'
_cell_volume   926.01096917
_cell_formula_units_Z   2
loop_
 _symmetry_equiv_pos_site_id
 _symmetry_equiv_pos_as_xyz
  1  'x, y, z'
loop_
 _atom_site_type_symbol
 _atom_site_label
 _atom_site_symmetry_multiplicity
 _atom_site_fract_x
 _atom_site_fract_y
 _atom_site_fract_z
 _atom_site_occupancy
 _atom_site_pbe_cm5_charge
 _atom_site_pbe_ddec_charge
 _atom_site_pbe_ddec_spin_density
 _atom_site_pbe_ddec_sum_bond_order
 _atom_site_pbe_magmom
Cu  Cu0  1  0.67806497  0.58750750  0.56439344  1  0.744626  0.792351  -0.753877  2.19627  -0.565
Cu  Cu1  1  0.32193169  0.41249033  0.43560828  1  0.74465  0.792353  0.753879  2.196318  0.565
H  H2  1  0.58506014  0.84484407  0.36415095  1  0.127437  0.110294  -0.001027  1.026549  -0.002
H  H3  1  0.41494507  0.15515993  0.63584672  1  0.127436  0.110315  0.001027  1.026518  0.002
H  H4  1  0.05837106  0.75744598  0.72144899  1  0.097072  0.095761  -8e-06  1.040712  0.0
H  H5  1  0.94161930  0.24254994  0.27855724  1  0.097048  0.095822  8e-06  1.040452  0.0
H  H6  1  0.16683611  0.96390661  0.72159150  1  0.090039  0.087599  -0.000142  1.032628  0.0
H  H7  1  0.83315476  0.03608535  0.27842430  1  0.09005  0.087541  0.000142  1.032727  0.0
H  H8  1  0.64311562  0.04513733  0.57363904  1  0.107406  0.1174  -0.000437  1.012794  0.0
H  H9  1  0.35688486  0.95486101  0.42634754  1  0.107421  0.117425  0.000437  1.012808  0.0
H  H10  1  0.86285567  0.05871908  0.01144808  1  0.305324  0.262778  -1e-06  0.974866  0.0
H  H11  1  0.13714293  0.94129281  0.98855851  1  0.305337  0.262762  1e-06  0.974902  0.0
H  H12  1  0.77462162  0.06711071  0.87781025  1  0.308409  0.278629  7e-06  0.96505  0.0
H  H13  1  0.22538750  0.93289445  0.12219159  1  0.308355  0.278573  -7e-06  0.965083  0.0
H  H14  1  0.85247435  0.82370388  0.01971423  1  0.105759  0.099277  -9.5e-05  1.026214  0.0
H  H15  1  0.14753089  0.17629485  0.98028601  1  0.105749  0.099283  9.5e-05  1.026238  0.0
H  H16  1  0.92222624  0.48511260  0.38310491  1  0.124421  0.112419  -0.000821  1.012253  -0.001
H  H17  1  0.07777510  0.51488841  0.61689754  1  0.124439  0.11246  0.000821  1.012255  0.001
H  H18  1  0.99885903  0.58519386  0.15543129  1  0.115502  0.136059  -0.000532  0.980539  -0.001
H  H19  1  0.00114718  0.41480929  0.84457312  1  0.115508  0.136081  0.000532  0.980589  0.001
H  H20  1  0.00424162  0.21027954  0.65284536  1  0.096386  0.09958  -0.000429  1.05239  0.0
H  H21  1  0.99576399  0.78971279  0.34715591  1  0.096336  0.099517  0.000429  1.052463  0.0
H  H22  1  0.68625445  0.33091008  0.79130254  1  0.119799  0.092405  -0.000808  1.05694  -0.001
H  H23  1  0.31373897  0.66908776  0.20869835  1  0.119797  0.092401  0.000808  1.056991  0.001
H  H24  1  0.23913592  0.67815639  0.86019098  1  0.108946  0.115292  -0.000616  1.001655  -0.001
H  H25  1  0.76086195  0.32185003  0.13981176  1  0.108976  0.115341  0.000616  1.001698  0.001
H  H26  1  0.42243146  0.73853009  0.67588011  1  0.126885  0.110724  -0.00086  0.98422  -0.001
H  H27  1  0.57755797  0.26147190  0.32411498  1  0.126912  0.110777  0.00086  0.984269  0.001
H  H28  1  0.28573769  0.42855708  0.01329929  1  0.118103  0.124783  -5.7e-05  0.983337  0.0
H  H29  1  0.71426333  0.57144938  0.98670613  1  0.118108  0.124779  5.7e-05  0.983338  0.0
C  C30  1  0.79145948  0.76115770  0.64560284  1  0.189334  0.553385  2.7e-05  4.225816  0.004
C  C31  1  0.20853820  0.23884289  0.35438592  1  0.189472  0.553558  -2.8e-05  4.225489  -0.004
C  C32  1  0.84471569  0.88855783  0.65049984  1  -0.018301  -0.021017  -0.006304  3.950336  -0.007
C  C33  1  0.15528371  0.11144485  0.34948822  1  -0.018392  -0.021059  0.006303  3.950302  0.007
C  C34  1  0.67496960  0.79128371  0.31337286  1  0.06041  0.07859  6.4e-05  3.85795  0.001
C  C35  1  0.32503126  0.20871508  0.68662750  1  0.060405  0.078541  -6.4e-05  3.857969  -0.001
C  C36  1  0.51527699  0.21598795  0.00618694  1  0.218436  0.173732  -0.000574  4.030895  -0.001
C  C37  1  0.48472115  0.78401304  0.99381375  1  0.218401  0.173642  0.000574  4.030898  0.001
C  C38  1  0.70783592  0.85604216  0.18262868  1  -0.006188  -0.026316  -0.00385  4.030732  -0.005
C  C39  1  0.29216781  0.14395869  0.81737002  1  -0.006208  -0.026237  0.00385  4.030847  0.005
C  C40  1  0.60919035  0.99413029  0.12154076  1  0.214148  0.16283  -0.000434  4.043896  0.0
C  C41  1  0.39081228  0.00587057  0.87845798  1  0.214201  0.162848  0.000434  4.043956  0.0
C  C42  1  0.99159557  0.86632736  0.69326628  1  -0.087732  -0.091727  -8e-05  3.979312  0.0
C  C43  1  0.00840073  0.13366293  0.30673407  1  -0.087651  -0.091739  8e-05  3.978965  0.0
C  C44  1  0.05021659  0.98093658  0.69407085  1  -0.110097  -0.115198  -0.000572  4.06227  -0.001
C  C45  1  0.94978034  0.01905835  0.30594013  1  -0.110141  -0.115192  0.000572  4.062396  0.001
C  C46  1  0.75654349  0.02695672  0.60857740  1  -0.072406  -0.093324  -0.000626  3.925421  -0.001
C  C47  1  0.24345733  0.97304482  0.39140910  1  -0.072444  -0.093453  0.000626  3.925415  0.001
C  C48  1  0.82639376  0.78148708  0.12266038  1  -0.070824  -0.0894  0.002386  3.969728  0.002
C  C49  1  0.17361230  0.21851273  0.87734043  1  -0.070828  -0.089469  -0.002386  3.969822  -0.002
C  C50  1  0.86373153  0.59002883  0.32459756  1  0.059839  0.111187  0.000116  3.868189  0.001
C  C51  1  0.13627091  0.40997216  0.67540486  1  0.059767  0.111116  -0.000116  3.868373  -0.001
C  C52  1  0.90542866  0.64804160  0.19567909  1  -0.077796  -0.110242  -0.003787  3.945308  -0.004
C  C53  1  0.09458150  0.35195924  0.80432219  1  -0.077759  -0.110259  0.003787  3.945526  0.004
C  C54  1  0.96124169  0.11887590  0.65368659  1  -0.091523  -0.091901  0.000368  3.970042  0.001
C  C55  1  0.03875773  0.88111970  0.34631387  1  -0.091449  -0.091795  -0.000368  3.969934  -0.001
C  C56  1  0.81364210  0.14251237  0.61133427  1  -0.026024  -0.048916  -0.006746  3.965321  -0.007
C  C57  1  0.18636220  0.85748718  0.38865830  1  -0.026001  -0.048854  0.006745  3.965271  0.007
C  C58  1  0.71512688  0.29080878  0.57106154  1  0.198893  0.567076  -0.000476  4.225229  0.003
C  C59  1  0.28487278  0.70919010  0.42894069  1  0.198936  0.567122  0.000476  4.225169  -0.003
C  C60  1  0.48951797  0.35900833  0.91446261  1  0.001078  -0.009627  -0.003199  4.007128  -0.004
C  C61  1  0.51047904  0.64099614  0.08554541  1  0.001135  -0.009507  0.003199  4.007061  0.004
C  C62  1  0.58473113  0.40266558  0.80964008  1  0.054432  0.06539  0.000754  3.873075  0.002
C  C63  1  0.41526577  0.59733552  0.19036341  1  0.054394  0.065336  -0.000754  3.873146  -0.002
C  C64  1  0.33568697  0.59721023  0.84701234  1  -0.083631  -0.129137  -0.003689  3.989276  -0.004
C  C65  1  0.66430479  0.40279072  0.15298486  1  -0.083698  -0.129361  0.00369  3.989225  0.004
C  C66  1  0.43593521  0.63237567  0.74516637  1  0.056322  0.108269  0.000141  3.885574  0.001
C  C67  1  0.56405567  0.36761900  0.25483466  1  0.056349  0.108371  -0.000141  3.885465  -0.001
C  C68  1  0.36102645  0.45962957  0.93182516  1  -0.057451  -0.058448  0.002601  3.918637  0.002
C  C69  1  0.63897133  0.54037782  0.06817449  1  -0.057517  -0.058476  -0.002601  3.918447  -0.002
N  N70  1  0.74967622  0.66123230  0.38147348  1  -0.341046  -0.212437  -0.055388  3.596891  -0.069
N  N71  1  0.25032407  0.33876868  0.61852808  1  -0.341002  -0.212377  0.05539  3.596881  0.069
N  N72  1  0.46956890  0.03315045  0.16248740  1  -0.214736  -0.228486  -0.000652  3.254806  -0.001
N  N73  1  0.53043104  0.96684733  0.83751423  1  -0.214771  -0.228528  0.000652  3.255074  0.001
N  N74  1  0.64209639  0.10701051  0.02213618  1  -0.142269  0.079845  -0.000364  3.748243  0.0
N  N75  1  0.35790171  0.89299051  0.97786543  1  -0.142266  0.079853  0.000364  3.748174  0.0
N  N76  1  0.41121799  0.17008678  0.09064321  1  -0.218198  -0.237618  -0.000468  3.249589  -0.001
N  N77  1  0.58878091  0.82991099  0.90935753  1  -0.218185  -0.237571  0.000468  3.249691  0.001
N  N78  1  0.77486236  0.11405015  0.94971093  1  -0.489221  -0.497552  -8.5e-05  3.171224  0.0
N  N79  1  0.22513732  0.88595306  0.05029275  1  -0.48919  -0.497487  8.5e-05  3.171287  0.0
N  N80  1  0.55665731  0.53509034  0.72663304  1  -0.339162  -0.204831  -0.052328  3.607111  -0.065
N  N81  1  0.44333887  0.46490962  0.27336804  1  -0.339138  -0.204828  0.052331  3.607016  0.065
O  O82  1  0.66798264  0.78427384  0.58315521  1  -0.322599  -0.53684  -0.080944  2.2608  -0.108
O  O83  1  0.33201031  0.21572613  0.41684504  1  -0.322674  -0.536937  0.080942  2.260574  0.108
O  O84  1  0.87053723  0.63866431  0.69634629  1  -0.331008  -0.584668  -0.001313  2.187597  -0.003
O  O85  1  0.12945944  0.36133533  0.30364558  1  -0.331036  -0.584699  0.001313  2.187502  0.003
O  O86  1  0.58133138  0.30874302  0.54096616  1  -0.31632  -0.58616  -0.000336  2.299618  -0.001
O  O87  1  0.41867565  0.69126302  0.45902897  1  -0.316356  -0.58619  0.000336  2.299556  0.001
O  O88  1  0.78016584  0.38987584  0.57524296  1  -0.332478  -0.561804  -0.072159  2.379997  -0.098
O  O89  1  0.21983724  0.61011675  0.42476482  1  -0.332472  -0.561805  0.072159  2.379989  0.098
