# generated using pymatgen
data_Cd3H34C48(N4O9)2
_symmetry_space_group_name_H-M   'P 1'
_cell_length_a   8.91719958
_cell_length_b   10.04728242
_cell_length_c   14.39345994
_cell_angle_alpha   75.76126255
_cell_angle_beta   92.00661809
_cell_angle_gamma   70.77425139
_symmetry_Int_Tables_number   1
_chemical_formula_structural   Cd3H34C48(N4O9)2
_chemical_formula_sum   'Cd3 H34 C48 N8 O18'
_cell_volume   1170.71494293
_cell_formula_units_Z   1
loop_
 _symmetry_equiv_pos_site_id
 _symmetry_equiv_pos_as_xyz
  1  'x, y, z'
loop_
 _atom_site_type_symbol
 _atom_site_label
 _atom_site_symmetry_multiplicity
 _atom_site_fract_x
 _atom_site_fract_y
 _atom_site_fract_z
 _atom_site_occupancy
 _atom_site_hle17_bader_spin_density
 _atom_site_hle17_ddec_charge
 _atom_site_hle17_ddec_spin_density
 _atom_site_hle17_ddec_sum_bond_order
 _atom_site_hle17_magmom
 _atom_site_hse06_10hf_bader_spin_density
 _atom_site_hse06_10hf_ddec_charge
 _atom_site_hse06_10hf_ddec_spin_density
 _atom_site_hse06_10hf_ddec_sum_bond_order
 _atom_site_hse06_10hf_magmom
 _atom_site_hse06_bader_spin_density
 _atom_site_hse06_ddec_charge
 _atom_site_hse06_ddec_spin_density
 _atom_site_hse06_ddec_sum_bond_order
 _atom_site_hse06_magmom
 _atom_site_pbe_bader_spin_density
 _atom_site_pbe_cm5_charge
 _atom_site_pbe_ddec_charge
 _atom_site_pbe_ddec_spin_density
 _atom_site_pbe_ddec_sum_bond_order
 _atom_site_pbe_magmom
Cd  Cd0  1  0.99998996  0.99999904  0.99999689  1  0  1.193564  0  1.605655  0  0  0.993901  0  2.053674  0  0  1.052189  0  2.000866  0  0  0.803194  0.952329  0  2.089952  0
Cd  Cd1  1  0.38142891  0.43800687  0.09512729  1  0  1.184703  0  1.71086  0  0  0.996798  0  2.170274  0  0  1.052881  0  2.114895  0  0  0.794967  0.956634  0  2.208017  0
Cd  Cd2  1  0.61856179  0.56197868  0.90487479  1  0  1.18462  0  1.711275  0  0  0.996691  0  2.170736  0  0  1.052762  0  2.115357  0  0  0.794982  0.956528  0  2.208487  0
H  H3  1  0.99156225  0.16928862  0.75014308  1  0  0.38735  0  0.923219  0  0  0.356512  0  1.000069  0  0  0.368543  0  0.983401  0  0  0.296501  0.348011  0  1.011323  0
H  H4  1  0.00843650  0.83071413  0.24984423  1  0  0.387362  0  0.923328  0  0  0.356553  0  1.000025  0  0  0.368586  0  0.983356  0  0  0.296499  0.348059  0  1.011374  0
H  H5  1  0.69540319  0.35092265  0.13544339  1  0  0.408796  0  0.855779  0  0  0.384852  0  0.921539  0  0  0.392323  0  0.914578  0  0  0.301894  0.379589  0  0.926405  0
H  H6  1  0.30459026  0.64907146  0.86456137  1  0  0.408714  0  0.855882  0  0  0.384769  0  0.921628  0  0  0.39224  0  0.914676  0  0  0.30185  0.379504  0  0.926488  0
H  H7  1  0.69009057  0.19831461  0.12273054  1  0  0.430196  0  0.87842  0  0  0.393076  0  0.951005  0  0  0.406082  0  0.932581  0  0  0.285867  0.38399  0  0.963759  0
H  H8  1  0.30990074  0.80168177  0.87726826  1  0  0.430311  0  0.87827  0  0  0.393172  0  0.950876  0  0  0.40618  0  0.932451  0  0  0.285933  0.384085  0  0.963632  0
H  H9  1  0.08495154  0.03634140  0.21873948  1  0  0.112227  0  0.948543  0  0  0.121295  0  1.009989  0  0  0.124498  0  1.007841  0  0  0.111492  0.118874  0  1.011689  0
H  H10  1  0.91504527  0.96366032  0.78124660  1  0  0.112266  0  0.948436  0  0  0.121306  0  1.009914  0  0  0.124512  0  1.007761  0  0  0.111465  0.118882  0  1.011616  0
H  H11  1  0.02147848  0.49346970  0.10372198  1  0  0.097352  0  0.965223  0  0  0.104203  0  1.034046  0  0  0.106355  0  1.03355  0  0  0.101298  0.102769  0  1.034214  0
H  H12  1  0.97851443  0.50653530  0.89627879  1  0  0.097336  0  0.965315  0  0  0.104234  0  1.034067  0  0  0.106382  0  1.033573  0  0  0.101319  0.102796  0  1.034241  0
H  H13  1  0.83976545  0.55546816  0.22601402  1  0  0.107328  0  0.943992  0  0  0.118376  0  1.000834  0  0  0.120964  0  1.001175  0  0  0.104967  0.116023  0  1.001399  0
H  H14  1  0.16023303  0.44453123  0.77399333  1  0  0.107332  0  0.944176  0  0  0.118457  0  1.000901  0  0  0.121043  0  1.001244  0  0  0.10502  0.116104  0  1.001468  0
H  H15  1  0.63653486  0.47876622  0.31496543  1  0  0.127065  0  0.949684  0  0  0.145675  0  1.013502  0  0  0.147762  0  1.012715  0  0  0.094419  0.14372  0  1.014462  0
H  H16  1  0.36348629  0.52120978  0.68504267  1  0  0.126973  0  0.949463  0  0  0.145615  0  1.013261  0  0  0.147706  0  1.012476  0  0  0.094414  0.14366  0  1.014221  0
H  H17  1  0.78450243  0.39335506  0.41827686  1  0  0.148136  0  0.965497  0  0  0.167964  0  1.026909  0  0  0.170277  0  1.025694  0  0  0.103681  0.166136  0  1.027857  0
H  H18  1  0.21549820  0.60661725  0.58171925  1  0  0.148062  0  0.965286  0  0  0.167934  0  1.026688  0  0  0.170252  0  1.025473  0  0  0.103652  0.166106  0  1.027637  0
H  H19  1  0.67858464  0.29082279  0.37780866  1  0  0.104252  0  0.966073  0  0  0.123904  0  1.03247  0  0  0.125058  0  1.03296  0  0  0.087847  0.123019  0  1.032247  0
H  H20  1  0.32142379  0.70917207  0.62218425  1  0  0.104241  0  0.965918  0  0  0.123835  0  1.032414  0  0  0.125007  0  1.03289  0  0  0.087876  0.122958  0  1.03218  0
H  H21  1  0.90508832  0.09805439  0.34045273  1  0  0.109521  0  0.935137  0  0  0.121157  0  0.991544  0  0  0.125003  0  0.989538  0  0  0.10781  0.118265  0  0.993345  0
H  H22  1  0.09492231  0.90192520  0.65954772  1  0  0.109512  0  0.935252  0  0  0.121138  0  0.991647  0  0  0.124988  0  0.989645  0  0  0.107811  0.118244  0  0.993453  0
H  H23  1  0.48084205  0.82188835  0.74131758  1  0  0.113916  0  0.982758  0  0  0.12224  0  1.048095  0  0  0.126229  0  1.044994  0  0  0.107189  0.11928  0  1.050341  0
H  H24  1  0.51917694  0.17810395  0.25869252  1  0  0.113892  0  0.982793  0  0  0.122256  0  1.048076  0  0  0.126253  0  1.044966  0  0  0.107224  0.119299  0  1.050319  0
H  H25  1  0.79658260  0.81356171  0.51790364  1  0  0.12463  0  0.952608  0  0  0.128235  0  1.020808  0  0  0.133048  0  1.016673  0  0  0.113134  0.124601  0  1.023894  0
H  H26  1  0.20343445  0.18644907  0.48210531  1  0  0.124573  0  0.952611  0  0  0.128208  0  1.020772  0  0  0.133027  0  1.016633  0  0  0.113123  0.124578  0  1.023852  0
H  H27  1  0.72922845  0.08201926  0.48675494  1  0  0.100574  0  0.952757  0  0  0.113889  0  1.008537  0  0  0.117186  0  1.007911  0  0  0.105611  0.111541  0  1.009266  0
H  H28  1  0.27076884  0.91799420  0.51325967  1  0  0.100512  0  0.952816  0  0  0.113833  0  1.008582  0  0  0.117133  0  1.007951  0  0  0.105601  0.111501  0  1.009297  0
H  H29  1  0.41300049  0.08804752  0.70790914  1  0  0.125676  0  0.926077  0  0  0.135277  0  0.980856  0  0  0.139636  0  0.978294  0  0  0.115412  0.131874  0  0.983207  0
H  H30  1  0.58701569  0.91194375  0.29210599  1  0  0.125449  0  0.926155  0  0  0.135136  0  0.980847  0  0  0.139496  0  0.97828  0  0  0.115333  0.131735  0  0.983195  0
H  H31  1  0.51239452  0.29184212  0.64947598  1  0  0.140505  0  0.934459  0  0  0.162589  0  0.99089  0  0  0.164815  0  0.990052  0  0  0.103901  0.160358  0  0.991549  0
H  H32  1  0.48759394  0.70815529  0.35054417  1  0  0.140442  0  0.93458  0  0  0.16254  0  0.990995  0  0  0.164733  0  0.990187  0  0  0.103838  0.160316  0  0.99165  0
H  H33  1  0.41394738  0.32886379  0.53233025  1  0  0.138334  0  0.951703  0  0  0.156049  0  1.019662  0  0  0.157878  0  1.01979  0  0  0.102802  0.154023  0  1.020218  0
H  H34  1  0.58603530  0.67115227  0.46767825  1  0  0.138317  0  0.951961  0  0  0.156017  0  1.019914  0  0  0.157834  0  1.020046  0  0  0.102772  0.153995  0  1.020467  0
H  H35  1  0.62175691  0.30182185  0.54668823  1  0  0.117494  0  0.953178  0  0  0.139127  0  1.011914  0  0  0.140544  0  1.012548  0  0  0.094171  0.138156  0  1.010872  0
H  H36  1  0.37824380  0.69818826  0.45332698  1  0  0.117433  0  0.953274  0  0  0.139118  0  1.011953  0  0  0.140534  0  1.01258  0  0  0.094171  0.138146  0  1.010912  0
C  C37  1  0.27684509  0.12031825  0.97280436  1  0  0.102521  0  3.612386  0  0  0.091001  0  3.87151  0  0  0.101905  0  3.876514  0  0  0.1241  0.081269  0  3.871503  0
C  C38  1  0.72314238  0.87968155  0.02718408  1  0  0.102292  0  3.611907  0  0  0.090633  0  3.871099  0  0  0.10165  0  3.875987  0  0  0.123977  0.080897  0  3.871115  0
C  C39  1  0.32482052  0.24475146  0.97102755  1  0  0.106329  0  3.596744  0  0  0.096226  0  3.852413  0  0  0.107425  0  3.857918  0  0  0.129264  0.086159  0  3.851797  0
C  C40  1  0.67517239  0.75523625  0.02896443  1  0  0.106664  0  3.596261  0  0  0.096388  0  3.852045  0  0  0.107619  0  3.857493  0  0  0.129322  0.086369  0  3.851405  0
C  C41  1  0.03125606  0.14955619  0.22105948  1  0  -0.05177  0  3.672925  0  0  -0.078524  0  3.927575  0  0  -0.07487  0  3.945241  0  0  -0.073199  -0.080823  0  3.916264  0
C  C42  1  0.96874778  0.85044428  0.77892339  1  0  -0.0519  0  3.672817  0  0  -0.078668  0  3.927441  0  0  -0.074997  0  3.945092  0  0  -0.073168  -0.080947  0  3.916122  0
C  C43  1  0.06330509  0.26088931  0.15229099  1  0  -0.010945  0  3.771658  0  0  0.004089  0  4.011954  0  0  -0.002787  0  4.035246  0  0  -0.001795  0.007931  0  3.997485  0
C  C44  1  0.93669621  0.73910683  0.84770305  1  0  -0.01101  0  3.771223  0  0  0.004018  0  4.01155  0  0  -0.002843  0  4.03482  0  0  -0.001824  0.007876  0  3.997063  0
C  C45  1  0.99773571  0.40752609  0.15705633  1  0  -0.069624  0  3.726335  0  0  -0.096315  0  3.987376  0  0  -0.094722  0  4.008853  0  0  -0.081861  -0.097671  0  3.97352  0
C  C46  1  0.00227202  0.59246120  0.84293790  1  0  -0.069688  0  3.726063  0  0  -0.096481  0  3.987201  0  0  -0.094863  0  4.008654  0  0  -0.081963  -0.09782  0  3.973335  0
C  C47  1  0.89650557  0.44179185  0.22498743  1  0  -0.138768  0  3.700576  0  0  -0.157664  0  3.949028  0  0  -0.165024  0  3.971742  0  0  -0.090955  -0.153006  0  3.934963  0
C  C48  1  0.10350875  0.55819632  0.77501085  1  0  -0.138662  0  3.700519  0  0  -0.157613  0  3.949017  0  0  -0.164965  0  3.971704  0  0  -0.09089  -0.152956  0  3.934948  0
C  C49  1  0.85695982  0.33232677  0.29050673  1  0  0.22029  0  3.658011  0  0  0.243593  0  3.890879  0  0  0.25127  0  3.910044  0  0  0.028159  0.237651  0  3.87871  0
C  C50  1  0.14303181  0.66766631  0.70949959  1  0  0.220421  0  3.658175  0  0  0.243596  0  3.891109  0  0  0.25131  0  3.910246  0  0  0.028065  0.237686  0  3.878921  0
C  C51  1  0.73158240  0.37571269  0.35389732  1  0  -0.366097  0  3.691392  0  0  -0.446258  0  3.920243  0  0  -0.450474  0  3.927925  0  0  -0.243208  -0.442806  0  3.915599  0
C  C52  1  0.26841096  0.62427597  0.64611395  1  0  -0.366124  0  3.690681  0  0  -0.446281  0  3.919575  0  0  -0.450523  0  3.927245  0  0  -0.243259  -0.442828  0  3.914913  0
C  C53  1  0.42529967  0.31588440  0.90886290  1  0  0.633414  0  3.934359  0  0  0.580311  0  4.241622  0  0  0.611918  0  4.235457  0  0  0.207719  0.558616  0  4.243278  0
C  C54  1  0.57469380  0.68411843  0.09113339  1  0  0.63329  0  3.934707  0  0  0.580218  0  4.241902  0  0  0.611824  0  4.235737  0  0  0.207758  0.558527  0  4.243551  0
C  C55  1  0.32488377  0.00457615  0.92143518  1  0  0.61321  0  3.929122  0  0  0.559438  0  4.229405  0  0  0.590583  0  4.225961  0  0  0.210404  0.537848  0  4.23109  0
C  C56  1  0.67510231  0.99541176  0.07855603  1  0  0.613217  0  3.92936  0  0  0.559473  0  4.229582  0  0  0.590574  0  4.226174  0  0  0.210316  0.537916  0  4.231228  0
C  C57  1  0.70415630  0.64168708  0.65993168  1  0  0.327918  0  3.709961  0  0  0.304574  0  3.981076  0  0  0.309954  0  4.003546  0  0  0.221998  0.299723  0  3.967169  0
C  C58  1  0.29585571  0.35830544  0.34007417  1  0  0.327957  0  3.710928  0  0  0.304773  0  3.981852  0  0  0.310068  0  4.004374  0  0  0.222101  0.299881  0  3.967977  0
C  C59  1  0.84642826  0.42249648  0.65819444  1  0  0.027431  0  3.678234  0  0  0.025517  0  3.938575  0  0  0.022864  0  3.957023  0  0  0.112342  0.027104  0  3.925282  0
C  C60  1  0.15358456  0.57752104  0.34179523  1  0  0.027333  0  3.678408  0  0  0.025483  0  3.938643  0  0  0.022748  0  3.957169  0  0  0.112275  0.027024  0  3.92536  0
C  C61  1  0.79388828  0.41999760  0.75288053  1  0  0.042632  0  3.690347  0  0  0.036913  0  3.94248  0  0  0.037572  0  3.961322  0  0  0.109634  0.035785  0  3.929807  0
C  C62  1  0.20609506  0.58001200  0.24711729  1  0  0.042588  0  3.690997  0  0  0.036931  0  3.943013  0  0  0.037478  0  3.96196  0  0  0.10962  0.035824  0  3.930283  0
C  C63  1  0.84184211  0.30240636  0.84602187  1  0  0.636386  0  3.910548  0  0  0.582184  0  4.207181  0  0  0.616469  0  4.200387  0  0  0.21459  0.559055  0  4.211323  0
C  C64  1  0.15815453  0.69759643  0.15396889  1  0  0.636365  0  3.910347  0  0  0.582179  0  4.206968  0  0  0.616461  0  4.200198  0  0  0.214595  0.559033  0  4.211104  0
C  C65  1  0.95131537  0.30293965  0.61961281  1  0  0.616244  0  3.862268  0  0  0.569168  0  4.163842  0  0  0.60079  0  4.156109  0  0  0.227851  0.547722  0  4.168154  0
C  C66  1  0.04869041  0.69707263  0.38037982  1  0  0.616132  0  3.86187  0  0  0.569074  0  4.163432  0  0  0.600692  0  4.155716  0  0  0.2278  0.547623  0  4.167749  0
C  C67  1  0.64428717  0.79832117  0.63235912  1  0  0.028625  0  3.717228  0  0  0.046204  0  3.955757  0  0  0.048295  0  3.978609  0  0  0.023344  0.044623  0  3.940844  0
C  C68  1  0.35571922  0.20168450  0.36764787  1  0  0.028819  0  3.717663  0  0  0.046328  0  3.956175  0  0  0.048377  0  3.979072  0  0  0.023406  0.044726  0  3.941288  0
C  C69  1  0.93187201  0.18505759  0.28971077  1  0  -0.113773  0  3.679788  0  0  -0.133278  0  3.927358  0  0  -0.139642  0  3.946482  0  0  -0.078216  -0.129451  0  3.915242  0
C  C70  1  0.06814698  0.81492615  0.71028206  1  0  -0.113498  0  3.680095  0  0  -0.132976  0  3.927591  0  0  -0.139345  0  3.946712  0  0  -0.078051  -0.129144  0  3.915473  0
C  C71  1  0.53473924  0.87869520  0.68550036  1  0  -0.070759  0  3.67326  0  0  -0.098449  0  3.928764  0  0  -0.100411  0  3.947871  0  0  -0.072314  -0.097275  0  3.916552  0
C  C72  1  0.46526548  0.12131915  0.31451136  1  0  -0.070721  0  3.673441  0  0  -0.098444  0  3.928988  0  0  -0.100452  0  3.948126  0  0  -0.07235  -0.097283  0  3.916784  0
C  C73  1  0.70859235  0.87574714  0.55653228  1  0  -0.052378  0  3.658334  0  0  -0.077074  0  3.909753  0  0  -0.077439  0  3.930272  0  0  -0.060428  -0.075669  0  3.895481  0
C  C74  1  0.29141842  0.12427144  0.44347109  1  0  -0.052437  0  3.65856  0  0  -0.077126  0  3.909985  0  0  -0.077554  0  3.930544  0  0  -0.060444  -0.075736  0  3.895724  0
C  C75  1  0.56496229  0.10510094  0.59386388  1  0  0.228336  0  3.638345  0  0  0.250302  0  3.872953  0  0  0.259405  0  3.892228  0  0  0.040657  0.245256  0  3.859421  0
C  C76  1  0.43503542  0.89489841  0.40615181  1  0  0.228316  0  3.63792  0  0  0.250073  0  3.872825  0  0  0.259078  0  3.892163  0  0  0.040817  0.245002  0  3.859301  0
C  C77  1  0.67181639  0.02509387  0.54041187  1  0  -0.145855  0  3.721597  0  0  -0.163507  0  3.967578  0  0  -0.172569  0  3.992675  0  0  -0.084193  -0.158513  0  3.951056  0
C  C78  1  0.32818220  0.97493150  0.45959789  1  0  -0.145816  0  3.721534  0  0  -0.163388  0  3.967559  0  0  -0.172436  0  3.992675  0  0  -0.084262  -0.158406  0  3.951026  0
C  C79  1  0.49496241  0.02805279  0.66569974  1  0  -0.08776  0  3.627761  0  0  -0.104627  0  3.869525  0  0  -0.108495  0  3.887223  0  0  -0.06465  -0.1028  0  3.858583  0
C  C80  1  0.50503347  0.97195750  0.33430847  1  0  -0.087647  0  3.627486  0  0  -0.104516  0  3.869299  0  0  -0.108381  0  3.887021  0  0  -0.064703  -0.102694  0  3.858358  0
C  C81  1  0.52860854  0.26483551  0.58010573  1  0  -0.368724  0  3.683783  0  0  -0.444481  0  3.90724  0  0  -0.449775  0  3.916246  0  0  -0.234758  -0.440688  0  3.901067  0
C  C82  1  0.47138955  0.73515950  0.41991002  1  0  -0.368538  0  3.684025  0  0  -0.444278  0  3.907525  0  0  -0.449536  0  3.916565  0  0  -0.23471  -0.440502  0  3.90134  0
C  C83  1  0.15883354  0.22782477  0.07733037  1  0  0.396122  0  3.709289  0  0  0.369197  0  3.972216  0  0  0.38971  0  3.983709  0  0  0.236919  0.354323  0  3.965456  0
C  C84  1  0.84115108  0.77217725  0.92266183  1  0  0.396196  0  3.708665  0  0  0.369112  0  3.971716  0  0  0.389661  0  3.983194  0  0  0.236857  0.354282  0  3.964925  0
N  N85  1  0.17311377  0.11423306  0.03863681  1  0  -0.437956  0  3.114472  0  0  -0.378862  0  3.386166  0  0  -0.399944  0  3.395381  0  0  -0.339698  -0.364064  0  3.380844  0
N  N86  1  0.82688095  0.88578495  0.96135336  1  0  -0.437797  0  3.113981  0  0  -0.378663  0  3.385656  0  0  -0.399759  0  3.394847  0  0  -0.339655  -0.363856  0  3.380347  0
N  N87  1  0.24766097  0.30986061  0.03552428  1  0  -0.467792  0  3.163512  0  0  -0.403599  0  3.438196  0  0  -0.426182  0  3.449202  0  0  -0.347742  -0.387607  0  3.431283  0
N  N88  1  0.75232789  0.69011636  0.96447025  1  0  -0.467702  0  3.163075  0  0  -0.403485  0  3.437788  0  0  -0.426055  0  3.448781  0  0  -0.347624  -0.387484  0  3.430857  0
N  N89  1  0.70142982  0.55653014  0.75109567  1  0  -0.441827  0  3.143477  0  0  -0.379227  0  3.412401  0  0  -0.397999  0  3.431686  0  0  -0.332588  -0.366058  0  3.399915  0
N  N90  1  0.29854849  0.44346104  0.24892549  1  0  -0.44202  0  3.144115  0  0  -0.379495  0  3.413009  0  0  -0.398302  0  3.432354  0  0  -0.332757  -0.366344  0  3.400513  0
N  N91  1  0.79013308  0.56085598  0.60270995  1  0  -0.329488  0  2.929101  0  0  -0.307847  0  3.194173  0  0  -0.314906  0  3.20868  0  0  -0.293714  -0.301946  0  3.183695  0
N  N92  1  0.20990325  0.43915443  0.39727346  1  0  -0.329532  0  2.929461  0  0  -0.307967  0  3.194517  0  0  -0.315049  0  3.209052  0  0  -0.293784  -0.30206  0  3.184055  0
O  O93  1  0.46057645  0.28546585  0.83207788  1  0  -0.551531  0  1.864929  0  0  -0.517256  0  2.079699  0  0  -0.540022  0  2.07405  0  0  -0.301699  -0.495882  0  2.080019  0
O  O94  1  0.53944002  0.71454178  0.16791772  1  0  -0.551445  0  1.864881  0  0  -0.517196  0  2.079608  0  0  -0.53996  0  2.073958  0  0  -0.301694  -0.495815  0  2.079929  0
O  O95  1  0.45768842  0.41439828  0.94146838  1  0  -0.707882  0  2.117595  0  0  -0.621722  0  2.384295  0  0  -0.654612  0  2.372134  0  0  -0.343751  -0.596713  0  2.39048  0
O  O96  1  0.54229158  0.58561141  0.05853079  1  0  -0.707866  0  2.117807  0  0  -0.621706  0  2.38448  0  0  -0.654586  0  2.372298  0  0  -0.343758  -0.596695  0  2.390665  0
O  O97  1  0.96645234  0.32316416  0.53346503  1  0  -0.497138  0  1.959885  0  0  -0.464975  0  2.178769  0  0  -0.484356  0  2.170784  0  0  -0.267069  -0.450665  0  2.18336  0
O  O98  1  0.03356179  0.67686305  0.46652852  1  0  -0.497141  0  1.959811  0  0  -0.46497  0  2.178664  0  0  -0.484356  0  2.170679  0  0  -0.267133  -0.450652  0  2.183255  0
O  O99  1  0.02973321  0.17350365  0.68310940  1  0  -0.547335  0  2.070194  0  0  -0.499768  0  2.278861  0  0  -0.521661  0  2.261137  0  0  -0.341201  -0.484427  0  2.290308  0
O  O100  1  0.97025882  0.82651227  0.31687973  1  0  -0.547352  0  2.070098  0  0  -0.499833  0  2.278693  0  0  -0.521731  0  2.260964  0  0  -0.341171  -0.484499  0  2.290212  0
O  O101  1  0.91992882  0.17159178  0.84297232  1  0  -0.620389  0  2.09925  0  0  -0.551727  0  2.341395  0  0  -0.581617  0  2.331107  0  0  -0.304352  -0.531062  0  2.347924  0
O  O102  1  0.08006687  0.82841648  0.15701401  1  0  -0.620246  0  2.099027  0  0  -0.551607  0  2.341142  0  0  -0.581511  0  2.330863  0  0  -0.304292  -0.530953  0  2.347702  0
O  O103  1  0.81155016  0.33520084  0.92433511  1  0  -0.596827  0  2.004094  0  0  -0.537693  0  2.257455  0  0  -0.565006  0  2.247017  0  0  -0.311412  -0.518914  0  2.264163  0
O  O104  1  0.18845553  0.66480169  0.07565575  1  0  -0.596814  0  2.003918  0  0  -0.537728  0  2.257291  0  0  -0.565046  0  2.246855  0  0  -0.311448  -0.518949  0  2.264001  0
O  O105  1  0.22672406  0.93579759  0.91593363  1  0  -0.637033  0  2.038956  0  0  -0.559963  0  2.274529  0  0  -0.592617  0  2.265823  0  0  -0.315465  -0.536706  0  2.27961  0
O  O106  1  0.77326155  0.06419245  0.08406415  1  0  -0.637024  0  2.038933  0  0  -0.559917  0  2.274413  0  0  -0.592566  0  2.265726  0  0  -0.315401  -0.536667  0  2.27948  0
O  O107  1  0.45914647  0.97451315  0.89167858  1  0  -0.516071  0  1.900657  0  0  -0.465554  0  2.118981  0  0  -0.495012  0  2.12066  0  0  -0.260984  -0.443041  0  2.116323  0
O  O108  1  0.54084209  0.02546815  0.10831796  1  0  -0.516124  0  1.900837  0  0  -0.465554  0  2.119051  0  0  -0.495014  0  2.12076  0  0  -0.260897  -0.44305  0  2.116373  0
O  O109  1  0.63690206  0.28337623  0.15140260  1  0  -0.82657  0  1.938638  0  0  -0.758319  0  2.149663  0  0  -0.782822  0  2.121587  0  0  -0.576206  -0.740138  0  2.168491  0
O  O110  1  0.36309443  0.71661461  0.84859372  1  0  -0.82662  0  1.938597  0  0  -0.758346  0  2.14967  0  0  -0.782845  0  2.121593  0  0  -0.57623  -0.740153  0  2.168494  0
