# generated using pymatgen
data_CdH14C24N4(O2F)2
_symmetry_space_group_name_H-M   'P 1'
_cell_length_a   7.95788616
_cell_length_b   13.87036440
_cell_length_c   21.70210193
_cell_angle_alpha   107.13816471
_cell_angle_beta   89.99990295
_cell_angle_gamma   90.00120087
_symmetry_Int_Tables_number   1
_chemical_formula_structural   CdH14C24N4(O2F)2
_chemical_formula_sum   'Cd4 H56 C96 N16 O16 F8'
_cell_volume   2289.08618202
_cell_formula_units_Z   4
loop_
 _symmetry_equiv_pos_site_id
 _symmetry_equiv_pos_as_xyz
  1  'x, y, z'
loop_
 _atom_site_type_symbol
 _atom_site_label
 _atom_site_symmetry_multiplicity
 _atom_site_fract_x
 _atom_site_fract_y
 _atom_site_fract_z
 _atom_site_occupancy
 _atom_site_pbe_bader_charge
 _atom_site_pbe_bader_spin_density
 _atom_site_pbe_cm5_charge
 _atom_site_pbe_ddec_charge
 _atom_site_pbe_ddec_spin_density
 _atom_site_pbe_ddec_sum_bond_order
 _atom_site_pbe_magmom
Cd  Cd0  1  0.97566560  0.79491394  0.51169135  1  1.237927  0  0.770212  0.814733  0  2.185446  0
Cd  Cd1  1  0.47565321  0.70509204  0.98831008  1  1.237927  0  0.770238  0.814736  0  2.185503  0
Cd  Cd2  1  0.02432691  0.20509613  0.48830649  1  1.237862  0  0.770215  0.814709  0  2.185493  0
Cd  Cd3  1  0.52434559  0.29490585  0.01169043  1  1.237958  0  0.770222  0.814748  0  2.185493  0
H  H4  1  0.57961071  0.79698759  0.51134967  1  0.104803  0  0.117053  0.093903  0  1.004657  0
H  H5  1  0.07961961  0.70302090  0.98864885  1  0.104611  0  0.117006  0.093791  0  1.004698  0
H  H6  1  0.42037174  0.20302849  0.48865027  1  0.104291  0  0.117042  0.093874  0  1.004662  0
H  H7  1  0.92039301  0.29697626  0.01135059  1  0.104763  0  0.117012  0.093848  0  1.004638  0
H  H8  1  0.90682351  0.93831743  0.41518712  1  0.173811  0  0.126002  0.133372  0  1.018206  0
H  H9  1  0.40681278  0.56169043  0.08481732  1  0.173892  0  0.125942  0.133095  0  1.018348  0
H  H10  1  0.09316900  0.06168582  0.58481076  1  0.17372  0  0.125986  0.133317  0  1.01834  0
H  H11  1  0.59319104  0.43829842  0.91518096  1  0.174207  0  0.125952  0.133164  0  1.018363  0
H  H12  1  0.36960724  0.96281798  0.39011185  1  0.155394  0  0.120437  0.150259  0  0.998716  0
H  H13  1  0.86959472  0.53718514  0.10987924  1  0.155123  0  0.120421  0.150305  0  0.998701  0
H  H14  1  0.63038528  0.03720258  0.60989127  1  0.155845  0  0.120407  0.150322  0  0.998563  0
H  H15  1  0.13040031  0.46282111  0.89012015  1  0.155188  0  0.120433  0.150266  0  0.998714  0
H  H16  1  0.00777842  0.92489739  0.77686641  1  0.108087  0  0.10551  0.074488  0  1.033763  0
H  H17  1  0.50780195  0.57507907  0.72313372  1  0.108223  0  0.105525  0.074501  0  1.034045  0
H  H18  1  0.99223294  0.07508026  0.22312414  1  0.108236  0  0.105467  0.074482  0  1.033975  0
H  H19  1  0.49223455  0.42491054  0.27686425  1  0.108228  0  0.105518  0.074502  0  1.033887  0
H  H20  1  0.87647104  0.22459385  0.86535672  1  0.102142  0  0.104835  0.086091  0  1.058291  0
H  H21  1  0.37647288  0.27538613  0.63465101  1  0.102063  0  0.104831  0.086005  0  1.058376  0
H  H22  1  0.12353027  0.77538433  0.13464408  1  0.101886  0  0.104806  0.085861  0  1.058368  0
H  H23  1  0.62352717  0.72461161  0.36535639  1  0.102048  0  0.104854  0.086007  0  1.058277  0
H  H24  1  0.86113242  0.10876274  0.65740525  1  0.157188  0  0.112725  0.142946  0  1.042635  0
H  H25  1  0.36106841  0.39124133  0.84260076  1  0.156924  0  0.11274  0.142915  0  1.042736  0
H  H26  1  0.13889151  0.89124038  0.34259859  1  0.157124  0  0.112721  0.142858  0  1.042683  0
H  H27  1  0.63889143  0.60877163  0.15740363  1  0.157065  0  0.112688  0.142771  0  1.042825  0
H  H28  1  0.11761875  0.71211277  0.35778862  1  0.115138  0  0.112766  0.086052  0  1.02272  0
H  H29  1  0.61763657  0.78789073  0.14220873  1  0.115096  0  0.112697  0.085945  0  1.022776  0
H  H30  1  0.88236371  0.28789960  0.64220782  1  0.115246  0  0.112773  0.086085  0  1.022777  0
H  H31  1  0.38237731  0.21209520  0.85778391  1  0.115244  0  0.112766  0.085932  0  1.022792  0
H  H32  1  0.11702048  0.55557259  0.26305958  1  0.112724  0  0.104536  0.114022  0  1.026075  0
H  H33  1  0.61702723  0.94442706  0.23694070  1  0.112708  0  0.104527  0.113985  0  1.026078  0
H  H34  1  0.88296826  0.44443288  0.73694104  1  0.112713  0  0.104514  0.11402  0  1.025973  0
H  H35  1  0.38297282  0.05555731  0.76305394  1  0.112639  0  0.104467  0.113926  0  1.026076  0
H  H36  1  0.97606358  0.39984846  0.27490061  1  0.082184  0  0.116956  0.119142  0  0.962164  0
H  H37  1  0.47605486  0.10014784  0.22510408  1  0.08255  0  0.116917  0.119176  0  0.962132  0
H  H38  1  0.02393772  0.60015834  0.72510856  1  0.08231  0  0.116907  0.119175  0  0.962094  0
H  H39  1  0.52392383  0.89983190  0.77489472  1  0.08227  0  0.116925  0.119121  0  0.96221  0
H  H40  1  0.82261912  0.31502663  0.34576092  1  0.124183  0  0.110514  0.130099  0  0.994636  0
H  H41  1  0.32263015  0.18496541  0.15424350  1  0.124195  0  0.110515  0.130071  0  0.994765  0
H  H42  1  0.17738973  0.68497652  0.65424154  1  0.124008  0  0.110543  0.130132  0  0.994625  0
H  H43  1  0.67736111  0.81501873  0.84576214  1  0.124205  0  0.110644  0.130307  0  0.994501  0
H  H44  1  0.68480863  0.32669503  0.44964493  1  0.130885  0  0.106466  0.125739  0  1.021137  0
H  H45  1  0.18483981  0.17331039  0.05035900  1  0.131301  0  0.106481  0.1258  0  1.021218  0
H  H46  1  0.31517760  0.67331561  0.55036131  1  0.131142  0  0.106576  0.125919  0  1.02122  0
H  H47  1  0.81515270  0.82668661  0.94964779  1  0.130778  0  0.106535  0.125802  0  1.021149  0
H  H48  1  0.60101163  0.43051828  0.56172178  1  0.129324  0  0.109294  0.111086  0  1.006294  0
H  H49  1  0.10101212  0.06947955  0.93827674  1  0.12939  0  0.109318  0.111106  0  1.006216  0
H  H50  1  0.39897837  0.56949405  0.43827650  1  0.129562  0  0.109313  0.11114  0  1.006277  0
H  H51  1  0.89897662  0.93052133  0.06172574  1  0.129429  0  0.109372  0.111215  0  1.00614  0
H  H52  1  0.61379671  0.59497061  0.64734311  1  0.09274  0  0.10888  0.112954  0  1.027201  0
H  H53  1  0.11378216  0.90502232  0.85265925  1  0.092385  0  0.108913  0.112948  0  1.027084  0
H  H54  1  0.38620585  0.40503713  0.35265703  1  0.092639  0  0.108902  0.113022  0  1.027103  0
H  H55  1  0.88622040  0.09498316  0.14734045  1  0.092849  0  0.108913  0.112985  0  1.027078  0
H  H56  1  0.77021907  0.73946855  0.62627205  1  0.133979  0  0.118179  0.095842  0  1.002446  0
H  H57  1  0.27020168  0.76053243  0.87373223  1  0.134081  0  0.118187  0.09591  0  1.002516  0
H  H58  1  0.22979355  0.26054289  0.37373250  1  0.134187  0  0.118149  0.095858  0  1.00255  0
H  H59  1  0.72980089  0.23947461  0.12626547  1  0.134236  0  0.118203  0.095926  0  1.002471  0
C  C60  1  0.28123225  0.84805697  0.46904482  1  1.603568  0  0.190231  0.547679  0  4.256913  0
C  C61  1  0.78122679  0.65193875  0.03095503  1  1.60375  0  0.190174  0.547806  0  4.257074  0
C  C62  1  0.71876152  0.15194933  0.53095228  1  1.602913  0  0.190181  0.547576  0  4.256978  0
C  C63  1  0.21877829  0.34805530  0.96904750  1  1.603843  0  0.190214  0.547774  0  4.256989  0
C  C64  1  0.45398469  0.87504015  0.45200948  1  -3e-05  0  -0.010473  -0.044941  0  3.989417  0
C  C65  1  0.95397942  0.62495949  0.04798271  1  0.000448  0  -0.010515  -0.045075  0  3.989833  0
C  C66  1  0.54600154  0.12496917  0.54798774  1  -0.000295  0  -0.010507  -0.044992  0  3.989575  0
C  C67  1  0.04602189  0.37504070  0.95201641  1  0.000176  0  -0.010512  -0.044979  0  3.9897  0
C  C68  1  0.59524767  0.84202494  0.47818780  1  0.475465  0  0.044372  0.045107  0  3.940304  0
C  C69  1  0.09524199  0.65797233  0.02180419  1  0.475179  0  0.044572  0.045455  0  3.939841  0
C  C70  1  0.40473730  0.15798137  0.52180838  1  0.476033  0  0.044382  0.045115  0  3.940014  0
C  C71  1  0.90476435  0.34202034  0.97819253  1  0.475372  0  0.044633  0.045391  0  3.939936  0
C  C72  1  0.77769213  0.91960501  0.42417359  1  0.551723  0  0.046352  -0.024124  0  3.888961  0
C  C73  1  0.27767583  0.58039601  0.07582454  1  0.551857  0  0.046423  -0.023969  0  3.8889  0
C  C74  1  0.22229410  0.08039448  0.57582309  1  0.551834  0  0.046356  -0.02412  0  3.889108  0
C  C75  1  0.72232171  0.41959585  0.92417433  1  0.551662  0  0.046329  -0.024085  0  3.889208  0
C  C76  1  0.64100451  0.95426569  0.39657771  1  0.456711  0  0.107099  0.251274  0  4.066269  0
C  C77  1  0.14098557  0.54573876  0.10342533  1  0.456846  0  0.10716  0.251467  0  4.066311  0
C  C78  1  0.35898926  0.04574059  0.60342030  1  0.456713  0  0.107024  0.25134  0  4.066548  0
C  C79  1  0.85900694  0.45426510  0.89657912  1  0.456669  0  0.107143  0.251376  0  4.066189  0
C  C80  1  0.47703468  0.93343235  0.41004047  1  -0.002788  0  -0.068937  -0.179332  0  3.924501  0
C  C81  1  0.97702835  0.56657058  0.08995328  1  -0.002832  0  -0.069018  -0.179587  0  3.925085  0
C  C82  1  0.52295532  0.06657549  0.58995509  1  -0.002746  0  -0.068901  -0.179455  0  3.924754  0
C  C83  1  0.02297044  0.43343184  0.91004766  1  -0.002893  0  -0.069055  -0.179538  0  3.924888  0
C  C84  1  0.96097887  0.91407718  0.65308431  1  1.586521  0  0.188421  0.553506  0  4.283742  0
C  C85  1  0.46098667  0.58591734  0.84691257  1  1.58678  0  0.188544  0.553582  0  4.283741  0
C  C86  1  0.03902872  0.08592243  0.34690640  1  1.586735  0  0.188535  0.553503  0  4.283759  0
C  C87  1  0.53903349  0.41408437  0.15308639  1  1.586849  0  0.188542  0.553718  0  4.283775  0
C  C88  1  0.93748738  0.00566672  0.71091520  1  0.014701  0  -0.014125  -0.043569  0  3.961377  0
C  C89  1  0.43750905  0.49431650  0.78908437  1  0.014586  0  -0.014123  -0.043743  0  3.961702  0
C  C90  1  0.06252398  0.99432825  0.28908014  1  0.014917  0  -0.014127  -0.043716  0  3.961704  0
C  C91  1  0.56251865  0.50567464  0.21091298  1  0.015033  0  -0.014146  -0.043758  0  3.961832  0
C  C92  1  0.96722550  0.99791022  0.77278617  1  0.503131  0  0.036351  0.042975  0  3.987022  0
C  C93  1  0.46726975  0.50206460  0.72721422  1  0.503923  0  0.036293  0.043046  0  3.987502  0
C  C94  1  0.03278084  0.00206967  0.22720574  1  0.503261  0  0.036375  0.043089  0  3.987316  0
C  C95  1  0.53277931  0.49792196  0.27278453  1  0.502882  0  0.036322  0.043009  0  3.987027  0
C  C96  1  0.89486937  0.16270947  0.82138279  1  0.582283  0  0.024277  -0.042752  0  4.010057  0
C  C97  1  0.39487075  0.33727605  0.67862554  1  0.582577  0  0.024287  -0.04259  0  4.009833  0
C  C98  1  0.10514702  0.83727633  0.17861627  1  0.582207  0  0.024398  -0.042119  0  4.00934  0
C  C99  1  0.60513810  0.66272102  0.32137804  1  0.58213  0  0.024243  -0.042547  0  4.009484  0
C  C100  1  0.86292911  0.17606954  0.76137501  1  0.350499  0  0.092996  0.240252  0  4.071117  0
C  C101  1  0.36292596  0.32391936  0.73863309  1  0.350146  0  0.093273  0.2407  0  4.070664  0
C  C102  1  0.13709482  0.82392230  0.23862524  1  0.350501  0  0.09312  0.240335  0  4.070816  0
C  C103  1  0.63709043  0.67607697  0.26136942  1  0.350247  0  0.093196  0.240535  0  4.071004  0
C  C104  1  0.88438453  0.09857456  0.70472887  1  -0.014586  0  -0.082297  -0.195796  0  3.941836  0
C  C105  1  0.38438143  0.40141843  0.79527772  1  -0.014679  0  -0.082373  -0.195891  0  3.941859  0
C  C106  1  0.11563186  0.90142409  0.29527133  1  -0.014411  0  -0.082266  -0.195695  0  3.941863  0
C  C107  1  0.61562994  0.59858169  0.20472462  1  -0.014457  0  -0.082222  -0.195553  0  3.942127  0
C  C108  1  0.05629970  0.64326868  0.36062366  1  0.527998  0  0.053369  0.10933  0  3.943219  0
C  C109  1  0.55631250  0.85673103  0.13937252  1  0.528536  0  0.053496  0.109485  0  3.94315  0
C  C110  1  0.94369407  0.35673979  0.63937801  1  0.52816  0  0.053313  0.109258  0  3.943354  0
C  C111  1  0.44368881  0.14325644  0.86061949  1  0.528389  0  0.053494  0.109639  0  3.943261  0
C  C112  1  0.05564729  0.55531337  0.30782707  1  0.003958  0  -0.083018  -0.127026  0  3.980261  0
C  C113  1  0.55566179  0.94468475  0.19217203  1  0.003754  0  -0.083019  -0.126949  0  3.980359  0
C  C114  1  0.94434774  0.44469054  0.69217509  1  0.003263  0  -0.083031  -0.127078  0  3.980286  0
C  C115  1  0.44433826  0.05530263  0.80782411  1  0.003466  0  -0.083019  -0.127092  0  3.980305  0
C  C116  1  0.97754003  0.46994084  0.31446216  1  -0.085538  0  -0.058356  -0.066858  0  3.919027  0
C  C117  1  0.47754025  0.03005321  0.18554208  1  -0.085757  0  -0.058271  -0.06694  0  3.918991  0
C  C118  1  0.02246881  0.53006445  0.68554625  1  -0.08514  0  -0.058286  -0.066795  0  3.919024  0
C  C119  1  0.52244472  0.96993181  0.81445775  1  -0.085406  0  -0.058309  -0.066807  0  3.918977  0
C  C120  1  0.89869238  0.47286182  0.37329195  1  0.014634  0  0.000743  0.047912  0  4.009478  0
C  C121  1  0.39870282  0.02713511  0.12670693  1  0.014532  0  0.000654  0.047938  0  4.00916  0
C  C122  1  0.10131521  0.52715035  0.62671367  1  0.014748  0  0.000709  0.047633  0  4.009861  0
C  C123  1  0.60128467  0.97285065  0.87329397  1  0.014801  0  0.000747  0.048037  0  4.009449  0
C  C124  1  0.90366890  0.56573006  0.42363953  1  0.463895  0  0.116984  0.121694  0  3.978235  0
C  C125  1  0.40367678  0.93426727  0.07635916  1  0.463683  0  0.117079  0.121741  0  3.978279  0
C  C126  1  0.09633116  0.43427840  0.57636260  1  0.463786  0  0.116896  0.121646  0  3.97838  0
C  C127  1  0.59630693  0.06572159  0.92363866  1  0.46329  0  0.116969  0.121422  0  3.978546  0
C  C128  1  0.81778489  0.38690567  0.38371143  1  -0.025119  0  -0.078922  -0.111929  0  3.955081  0
C  C129  1  0.31779473  0.11309544  0.11629109  1  -0.025045  0  -0.078867  -0.111872  0  3.955206  0
C  C130  1  0.18221517  0.61310580  0.61629129  1  -0.025543  0  -0.078799  -0.111714  0  3.955058  0
C  C131  1  0.68219025  0.88689476  0.88371482  1  -0.025453  0  -0.078933  -0.112094  0  3.954988  0
C  C132  1  0.74246713  0.39302968  0.44126486  1  -0.034869  0  -0.083854  -0.120379  0  3.968038  0
C  C133  1  0.24247575  0.10696896  0.05873677  1  -0.035284  0  -0.083853  -0.120373  0  3.96836  0
C  C134  1  0.25752790  0.60698333  0.55873678  1  -0.034876  0  -0.084113  -0.120734  0  3.968497  0
C  C135  1  0.75750797  0.89302350  0.94126959  1  -0.03465  0  -0.084035  -0.12055  0  3.968273  0
C  C136  1  0.74226889  0.48543623  0.49276006  1  0.00213  0  -0.001767  0.043511  0  4.000373  0
C  C137  1  0.24227815  0.01456470  0.00724064  1  0.001897  0  -0.001745  0.043414  0  4.000525  0
C  C138  1  0.25772111  0.51458132  0.50724201  1  0.001684  0  -0.001671  0.043628  0  4.000407  0
C  C139  1  0.75771687  0.98543092  0.99275989  1  0.002103  0  -0.001698  0.04351  0  4.000448  0
C  C140  1  0.82315880  0.57235047  0.48454796  1  0.489533  0  0.116271  0.121273  0  3.960785  0
C  C141  1  0.32315919  0.92765179  0.01545498  1  0.489467  0  0.116317  0.121283  0  3.960923  0
C  C142  1  0.17683622  0.42766176  0.51545491  1  0.489677  0  0.116409  0.12143  0  3.960586  0
C  C143  1  0.67682327  0.07233853  0.98454497  1  0.489634  0  0.116446  0.12159  0  3.960588  0
C  C144  1  0.66518312  0.49462275  0.55284361  1  -0.032167  0  -0.058542  -0.062599  0  3.915186  0
C  C145  1  0.16517999  0.00537506  0.94715948  1  -0.032099  0  -0.058538  -0.062521  0  3.915104  0
C  C146  1  0.33481065  0.50539028  0.44715758  1  -0.032574  0  -0.058646  -0.062793  0  3.915265  0
C  C147  1  0.83480750  0.99462430  0.05284317  1  -0.032298  0  -0.058636  -0.062709  0  3.915177  0
C  C148  1  0.67193144  0.58580680  0.60071732  1  -0.051698  0  -0.082741  -0.125543  0  3.988476  0
C  C149  1  0.17193334  0.91418913  0.89928651  1  -0.051745  0  -0.082777  -0.125514  0  3.988312  0
C  C150  1  0.32806359  0.41420242  0.39928449  1  -0.051442  0  -0.082652  -0.125445  0  3.988226  0
C  C151  1  0.82806545  0.08581027  0.10071430  1  -0.052259  0  -0.082788  -0.125604  0  3.988211  0
C  C152  1  0.75610103  0.66744540  0.58892597  1  0.498621  0  0.055383  0.10607  0  3.944911  0
C  C153  1  0.25608735  0.83254861  0.91107695  1  0.499203  0  0.055434  0.10591  0  3.945144  0
C  C154  1  0.24390531  0.33256077  0.41107663  1  0.498761  0  0.055347  0.105909  0  3.945164  0
C  C155  1  0.74390391  0.16745164  0.08891987  1  0.499094  0  0.055424  0.105973  0  3.944969  0
N  N156  1  0.75262908  0.86330376  0.46426088  1  -1.230139  0  -0.320342  -0.198913  0  3.516106  0
N  N157  1  0.25262633  0.63669245  0.03573447  1  -1.230129  0  -0.320445  -0.198976  0  3.51581  0
N  N158  1  0.24735464  0.13669495  0.53573657  1  -1.230358  0  -0.320262  -0.198769  0  3.515966  0
N  N159  1  0.74738504  0.36330248  0.96426269  1  -1.230172  0  -0.320377  -0.19889  0  3.51607  0
N  N160  1  0.94792580  0.07397655  0.82718030  1  -1.20479  0  -0.318873  -0.238119  0  3.360074  0
N  N161  1  0.44797316  0.42599541  0.67282119  1  -1.205239  0  -0.318891  -0.238271  0  3.359796  0
N  N162  1  0.05207927  0.92600168  0.17281866  1  -1.204964  0  -0.318993  -0.238494  0  3.359896  0
N  N163  1  0.55207087  0.57399114  0.32717847  1  -1.204621  0  -0.318878  -0.238282  0  3.359391  0
N  N164  1  0.98300178  0.64821186  0.41662838  1  -1.224379  0  -0.321263  -0.279913  0  3.495851  0
N  N165  1  0.48301920  0.85179331  0.08337087  1  -1.22451  0  -0.321415  -0.280056  0  3.495978  0
N  N166  1  0.01699199  0.35179963  0.58337388  1  -1.224222  0  -0.321224  -0.279866  0  3.495867  0
N  N167  1  0.51697582  0.14819638  0.91662343  1  -1.22408  0  -0.321423  -0.27995  0  3.496042  0
N  N168  1  0.82878743  0.66094505  0.53253322  1  -1.251564  0  -0.324761  -0.274666  0  3.527858  0
N  N169  1  0.32877749  0.83905752  0.96746764  1  -1.251711  0  -0.324931  -0.274682  0  3.528099  0
N  N170  1  0.17120509  0.33906724  0.46746689  1  -1.251504  0  -0.324847  -0.274674  0  3.527937  0
N  N171  1  0.67120999  0.16093966  0.03253043  1  -1.251644  0  -0.324949  -0.274824  0  3.528155  0
O  O172  1  0.26928474  0.80586279  0.51393281  1  -1.154772  0  -0.328562  -0.546322  0  2.219322  0
O  O173  1  0.76926365  0.69413972  0.98607039  1  -1.15468  0  -0.328531  -0.546333  0  2.219336  0
O  O174  1  0.73072034  0.19414505  0.48606320  1  -1.154103  0  -0.328562  -0.546278  0  2.21945  0
O  O175  1  0.23073138  0.30586485  0.01393650  1  -1.154929  0  -0.328607  -0.546425  0  2.219426  0
O  O176  1  0.15696979  0.86803387  0.43854330  1  -1.171855  0  -0.315341  -0.534922  0  2.205869  0
O  O177  1  0.65697476  0.63197751  0.06146431  1  -1.172137  0  -0.315269  -0.534904  0  2.205893  0
O  O178  1  0.84301519  0.13197534  0.56145943  1  -1.171883  0  -0.315261  -0.534852  0  2.205801  0
O  O179  1  0.34303283  0.36802180  0.93854063  1  -1.172062  0  -0.31525  -0.534866  0  2.205898  0
O  O180  1  0.92020836  0.92719078  0.59854191  1  -1.153001  0  -0.340636  -0.554812  0  2.270637  0
O  O181  1  0.42021040  0.57281076  0.90145638  1  -1.152914  0  -0.340704  -0.554801  0  2.270568  0
O  O182  1  0.07978541  0.07281625  0.40145625  1  -1.15271  0  -0.340754  -0.554878  0  2.270213  0
O  O183  1  0.57980096  0.42719253  0.09853966  1  -1.153091  0  -0.340718  -0.554883  0  2.270461  0
O  O184  1  0.01380124  0.83376316  0.66140928  1  -1.181228  0  -0.336143  -0.571789  0  2.132907  0
O  O185  1  0.51379237  0.66622726  0.83857929  1  -1.181528  0  -0.336183  -0.571786  0  2.133021  0
O  O186  1  0.98622143  0.16622905  0.33857352  1  -1.181553  0  -0.336123  -0.571669  0  2.133308  0
O  O187  1  0.48621271  0.33377534  0.16141339  1  -1.18142  0  -0.336193  -0.571874  0  2.133094  0
F  F188  1  0.66998382  0.00994187  0.35562929  1  -0.627478  0  -0.085347  -0.125404  0  1.362638  0
F  F189  1  0.16996955  0.49007687  0.14438048  1  -0.627445  0  -0.085343  -0.125403  0  1.36272  0
F  F190  1  0.33001372  0.99007117  0.64437097  1  -0.627516  0  -0.085291  -0.125377  0  1.362889  0
F  F191  1  0.83003553  0.50992778  0.85562274  1  -0.627381  0  -0.085353  -0.125394  0  1.362682  0
F  F192  1  0.80835977  0.26853329  0.75887981  1  -0.639907  0  -0.102915  -0.151563  0  1.34743  0
F  F193  1  0.30832057  0.23146099  0.74112662  1  -0.639878  0  -0.103148  -0.151875  0  1.347153  0
F  F194  1  0.19166792  0.73146750  0.24112680  1  -0.640174  0  -0.103051  -0.151739  0  1.347291  0
F  F195  1  0.69168199  0.76853908  0.25887801  1  -0.639882  0  -0.103103  -0.151821  0  1.347209  0
