# generated using pymatgen
data_ZnH23C23NO7
_symmetry_space_group_name_H-M   'P 1'
_cell_length_a   10.81387623
_cell_length_b   13.91326260
_cell_length_c   15.28050455
_cell_angle_alpha   90.03070433
_cell_angle_beta   90.07109936
_cell_angle_gamma   90.79624019
_symmetry_Int_Tables_number   1
_chemical_formula_structural   ZnH23C23NO7
_chemical_formula_sum   'Zn2 H46 C46 N2 O14'
_cell_volume   2298.82405192
_cell_formula_units_Z   2
loop_
 _symmetry_equiv_pos_site_id
 _symmetry_equiv_pos_as_xyz
  1  'x, y, z'
loop_
 _atom_site_type_symbol
 _atom_site_label
 _atom_site_symmetry_multiplicity
 _atom_site_fract_x
 _atom_site_fract_y
 _atom_site_fract_z
 _atom_site_occupancy
 _atom_site_pbe_bader_charge
 _atom_site_pbe_bader_spin_density
 _atom_site_pbe_cm5_charge
 _atom_site_pbe_ddec_charge
 _atom_site_pbe_ddec_spin_density
 _atom_site_pbe_ddec_sum_bond_order
 _atom_site_pbe_magmom
Zn  Zn0  1  0.50562442  0.40150739  0.49420192  1  1.269552  0  0.666832  0.805138  0  2.458171  0
Zn  Zn1  1  0.50195534  0.59988781  0.49599328  1  1.297928  0  0.66645  0.805217  0  2.462482  0
H  H2  1  0.40246657  0.34918983  0.93256688  1  0.047898  0  0.096489  0.094179  0  1.011037  0
H  H3  1  0.37439984  0.63705838  0.05980117  1  0.038477  0  0.096997  0.095077  0  1.009238  0
H  H4  1  0.53959611  0.35732824  0.05050278  1  0.057904  0  0.096887  0.095386  0  1.012086  0
H  H5  1  0.50408260  0.64946146  0.93844665  1  0.062248  0  0.096889  0.094931  0  1.012559  0
H  H6  1  0.42001389  0.35054024  0.76939228  1  0.091053  0  0.101126  0.105462  0  1.003435  0
H  H7  1  0.39909024  0.63837807  0.22256690  1  0.095738  0  0.102278  0.106064  0  1.008621  0
H  H8  1  0.55779140  0.35839846  0.21364002  1  0.099535  0  0.101856  0.105643  0  1.006107  0
H  H9  1  0.51797838  0.64964507  0.77516209  1  0.098973  0  0.101895  0.105602  0  1.003445  0
H  H10  1  0.69773793  0.93452655  0.53193910  1  0.108444  0  0.108869  0.109902  0  1.018469  0
H  H11  1  0.30977640  0.06813202  0.53114746  1  0.074209  0  0.108739  0.110405  0  1.018052  0
H  H12  1  0.30956946  0.92934238  0.46164441  1  0.071603  0  0.109735  0.113673  0  1.005329  0
H  H13  1  0.69713254  0.07128648  0.45931812  1  0.109532  0  0.10972  0.113357  0  1.005748  0
H  H14  1  0.69160096  0.75447669  0.52643044  1  0.175931  0  0.129129  0.109647  0  0.997079  0
H  H15  1  0.31663051  0.24806970  0.52349436  1  0.162163  0  0.129174  0.109443  0  0.997432  0
H  H16  1  0.31848304  0.74932914  0.46628061  1  0.134537  0  0.128212  0.102576  0  0.998061  0
H  H17  1  0.68904541  0.25136732  0.46181550  1  0.167803  0  0.128238  0.101821  0  0.997805  0
H  H18  1  0.95536883  0.57547204  0.72878936  1  0.035434  0  0.099513  0.06058  0  0.988411  0
H  H19  1  0.98546975  0.69064376  0.68262700  1  0.015165  0  0.092885  0.050321  0  0.988503  0
H  H20  1  0.18115861  0.70520551  0.77308807  1  0.045556  0  0.090129  0.123757  0  0.997128  0
H  H21  1  0.04866463  0.68760608  0.84114823  1  0.010796  0  0.089592  0.11907  0  1.002377  0
H  H22  1  0.15026420  0.59053822  0.81964175  1  0.051459  0  0.091428  0.125776  0  1.002976  0
H  H23  1  0.02527496  0.31139575  0.32586395  1  0.015664  0  0.094988  0.053838  0  0.984836  0
H  H24  1  0.04865423  0.42611613  0.27727378  1  0.040236  0  0.101312  0.063711  0  0.987015  0
H  H25  1  0.85083944  0.40399227  0.19041047  1  0.005697  0  0.092694  0.127062  0  0.998786  0
H  H26  1  0.95702650  0.31028641  0.16781764  1  0.031339  0  0.091479  0.121597  0  0.999499  0
H  H27  1  0.82814900  0.28893652  0.23842996  1  0.023361  0  0.088751  0.120295  0  1.000013  0
H  H28  1  0.04534224  0.42952011  0.74049769  1  0.051895  0  0.097884  0.057109  0  0.995113  0
H  H29  1  0.04562110  0.32149246  0.67844548  1  0.038892  0  0.095665  0.055499  0  0.986925  0
H  H30  1  0.84975973  0.26624312  0.75341544  1  0.028524  0  0.088867  0.119607  0  1.001207  0
H  H31  1  0.96670842  0.29315517  0.83266012  1  0.038468  0  0.090238  0.119305  0  1.003404  0
H  H32  1  0.84514907  0.37578175  0.81304399  1  0.061461  0  0.094405  0.130589  0  0.990482  0
H  H33  1  0.96224147  0.67952213  0.33014979  1  0.037056  0  0.0976  0.058747  0  0.98334  0
H  H34  1  0.95986464  0.57028031  0.26999848  1  0.047923  0  0.099611  0.060331  0  0.990916  0
H  H35  1  0.15685456  0.62100915  0.19266085  1  0.046912  0  0.09134  0.127552  0  1.009289  0
H  H36  1  0.03639467  0.70503735  0.17499084  1  0.022721  0  0.091449  0.121187  0  0.99959  0
H  H37  1  0.15732653  0.73143984  0.25121698  1  0.015397  0  0.086818  0.115812  0  1.003841  0
H  H38  1  0.92185724  0.24945199  0.44422221  1  0.042567  0  0.09556  0.053047  0  0.999234  0
H  H39  1  0.91484439  0.25610575  0.56027739  1  0.079045  0  0.100121  0.063413  0  0.991286  0
H  H40  1  0.08288874  0.13299594  0.57181069  1  0.048938  0  0.089441  0.120419  0  1.001346  0
H  H41  1  0.95604853  0.08691843  0.50959625  1  0.011273  0  0.086944  0.116096  0  1.017547  0
H  H42  1  0.09248546  0.12801015  0.45517535  1  0.048205  0  0.08891  0.119747  0  1.003373  0
H  H43  1  0.08135353  0.75180758  0.44146557  1  0.071911  0  0.096116  0.054869  0  0.997441  0
H  H44  1  0.09578738  0.74365420  0.55711597  1  0.069085  0  0.100067  0.063268  0  0.991316  0
H  H45  1  0.92708370  0.86561374  0.57494829  1  0.03054  0  0.089498  0.119951  0  1.002088  0
H  H46  1  0.05053968  0.91342050  0.51061342  1  0.004627  0  0.087102  0.116047  0  1.018047  0
H  H47  1  0.91168550  0.87276579  0.45875518  1  0.031554  0  0.088784  0.119035  0  1.004676  0
C  C48  1  0.48814533  0.49935099  0.66574203  1  1.583597  0  0.212221  0.594174  0  4.177085  0
C  C49  1  0.49714736  0.50096794  0.32467767  1  1.59539  0  0.210362  0.590027  0  4.181751  0
C  C50  1  0.61176448  0.89694988  0.51544395  1  0.00867  0  -0.079536  -0.177196  0  3.946652  0
C  C51  1  0.39574874  0.10520703  0.51394456  1  -0.009025  0  -0.07962  -0.178997  0  3.945889  0
C  C52  1  0.39582154  0.89414652  0.47838524  1  -0.010592  0  -0.08031  -0.177774  0  3.949546  0
C  C53  1  0.61125898  0.10698267  0.47598390  1  -0.013996  0  -0.080153  -0.177405  0  3.950125  0
C  C54  1  0.60914088  0.79705235  0.51422623  1  0.394476  0  0.065642  0.110732  0  3.888702  0
C  C55  1  0.39872090  0.20505844  0.51148084  1  0.503833  0  0.065629  0.11246  0  3.886781  0
C  C56  1  0.39979884  0.79444605  0.47952245  1  0.506946  0  0.063296  0.10686  0  3.908066  0
C  C57  1  0.60766998  0.20670420  0.47590272  1  0.430788  0  0.063466  0.108069  0  3.911195  0
C  C58  1  0.50368344  0.94783097  0.49678005  1  -0.069893  0  0.013084  0.10429  0  3.989856  0
C  C59  1  0.50356865  0.05383233  0.49580355  1  -0.014294  0  0.01318  0.105144  0  3.990034  0
C  C60  1  0.74199196  0.50468008  0.50174696  1  1.636802  0  0.221402  0.638597  0  4.142035  0
C  C61  1  0.26499153  0.49597562  0.49687172  1  1.629852  0  0.219252  0.636306  0  4.146669  0
C  C62  1  0.95818924  0.45563351  0.57758621  1  0.550607  0  0.072053  0.103003  0  3.757153  0
C  C63  1  0.04852358  0.54453674  0.43039095  1  0.547519  0  0.074996  0.10542  0  3.75208  0
C  C64  1  0.03771812  0.40416129  0.50377700  1  0.527732  0  0.069386  0.101237  0  3.738558  0
C  C65  1  0.96965669  0.59591594  0.50437625  1  0.52451  0  0.069245  0.1024  0  3.733138  0
C  C66  1  0.05204912  0.54454200  0.57678014  1  0.549947  0  0.072201  0.103529  0  3.753737  0
C  C67  1  0.95588038  0.45534244  0.43118714  1  0.542606  0  0.074811  0.106896  0  3.748812  0
C  C68  1  0.12769225  0.49321437  0.50303545  1  -0.039351  0  -0.013221  -0.163688  0  3.687472  0
C  C69  1  0.87957744  0.50683644  0.50529044  1  -0.054049  0  -0.013697  -0.164456  0  3.683016  0
C  C70  1  0.42910430  0.41507630  0.89833074  1  -0.053435  0  -0.098543  -0.145949  0  4.010785  0
C  C71  1  0.41650504  0.57633360  0.09313571  1  -0.051104  0  -0.097395  -0.146019  0  4.008191  0
C  C72  1  0.50624803  0.41834589  0.08816800  1  -0.021143  0  -0.097451  -0.143627  0  4.003644  0
C  C73  1  0.48325429  0.58409280  0.90148900  1  -0.036738  0  -0.096301  -0.143303  0  4.005234  0
C  C74  1  0.43794841  0.41547065  0.80752512  1  -0.010597  0  -0.086863  -0.089781  0  3.998679  0
C  C75  1  0.42922686  0.57734011  0.18372859  1  -0.015146  0  -0.086711  -0.090751  0  3.999711  0
C  C76  1  0.51797271  0.41893342  0.17882634  1  -0.108562  0  -0.086921  -0.089295  0  3.998078  0
C  C77  1  0.49226675  0.58453577  0.81073005  1  -0.096256  0  -0.085844  -0.086101  0  3.995928  0
C  C78  1  0.47168807  0.49984802  0.76301307  1  -0.000408  0  -0.017887  -0.029536  0  3.961817  0
C  C79  1  0.48108860  0.49900638  0.22732825  1  0.043609  0  -0.018971  -0.030335  0  3.964815  0
C  C80  1  0.45389626  0.49898204  0.94707697  1  -0.01047  0  -0.008506  0.069292  0  4.01707  0
C  C81  1  0.45660798  0.49744742  0.04356073  1  -0.160251  0  -0.00928  0.069333  0  4.014855  0
C  C82  1  0.02974212  0.62716591  0.71177504  1  0.441469  0  -0.070453  0.082654  0  3.915906  0
C  C83  1  0.10697366  0.65423757  0.79104975  1  -0.061913  0  -0.245322  -0.396619  0  3.992768  0
C  C84  1  0.97716847  0.37286387  0.29627100  1  0.435617  0  -0.069694  0.081844  0  3.912151  0
C  C85  1  0.89873155  0.34218999  0.21869234  1  -0.012401  0  -0.244318  -0.39516  0  3.990864  0
C  C86  1  0.98516171  0.37283785  0.71222896  1  0.410324  0  -0.070459  0.081215  0  3.915978  0
C  C87  1  0.90712528  0.32406608  0.78194075  1  -0.093141  0  -0.244603  -0.394678  0  3.994106  0
C  C88  1  0.02131278  0.62717971  0.29641538  1  0.410302  0  -0.069994  0.080975  0  3.912135  0
C  C89  1  0.09752197  0.67391264  0.22466411  1  -0.040926  0  -0.244632  -0.392225  0  3.987614  0
C  C90  1  0.97663485  0.24115503  0.50469457  1  0.393666  0  -0.072706  0.075497  0  3.921798  0
C  C91  1  0.03050401  0.14148612  0.51067751  1  -0.093946  0  -0.246097  -0.396512  0  3.999102  0
C  C92  1  0.03041928  0.75911751  0.50362463  1  0.368109  0  -0.073393  0.072617  0  3.925215  0
C  C93  1  0.97652119  0.85854258  0.51251803  1  -0.051895  0  -0.246726  -0.395459  0  3.999516  0
N  N94  1  0.50456239  0.74708718  0.49684839  1  -1.252972  0  -0.313035  -0.180155  0  3.497042  0
N  N95  1  0.50334557  0.25448362  0.49328704  1  -1.238644  0  -0.313333  -0.18122  0  3.501194  0
O  O96  1  0.47049978  0.41947629  0.62646854  1  -1.168089  0  -0.322866  -0.554796  0  2.311515  0
O  O97  1  0.47759587  0.58062738  0.36306374  1  -1.169025  0  -0.321326  -0.551304  0  2.318363  0
O  O98  1  0.52901736  0.42298143  0.36152224  1  -1.167984  0  -0.323491  -0.553357  0  2.315231  0
O  O99  1  0.51928852  0.57860061  0.62971550  1  -1.17057  0  -0.324203  -0.555368  0  2.30935  0
O  O100  1  0.69103199  0.42289351  0.51420906  1  -1.153301  0  -0.312605  -0.538284  0  2.319445  0
O  O101  1  0.31532751  0.57772796  0.51082426  1  -1.154237  0  -0.311907  -0.537866  0  2.325836  0
O  O102  1  0.31886872  0.41862118  0.47666921  1  -1.163885  0  -0.312853  -0.536796  0  2.323363  0
O  O103  1  0.68827341  0.58306559  0.48466531  1  -1.162184  0  -0.312203  -0.536093  0  2.330395  0
O  O104  1  0.11182136  0.58468305  0.64834588  1  -1.065254  0  -0.2062  -0.224035  0  2.501397  0
O  O105  1  0.89508464  0.41463801  0.36027379  1  -1.064257  0  -0.206968  -0.22873  0  2.493996  0
O  O106  1  0.90095680  0.41471117  0.64973489  1  -1.059341  0  -0.207035  -0.226987  0  2.504443  0
O  O107  1  0.10652943  0.58580152  0.35866080  1  -1.06539  0  -0.207491  -0.22986  0  2.491274  0
O  O108  1  0.07814875  0.30969739  0.50419362  1  -1.061655  0  -0.20929  -0.232588  0  2.498304  0
O  O109  1  0.92921291  0.69036057  0.50544712  1  -1.055278  0  -0.208518  -0.231426  0  2.498544  0
