# generated using pymatgen
data_LiMnBH32C27N4Cl2O3F5
_symmetry_space_group_name_H-M   'P 1'
_cell_length_a   11.07207149
_cell_length_b   12.57942248
_cell_length_c   16.41677394
_cell_angle_alpha   109.48437081
_cell_angle_beta   99.23442397
_cell_angle_gamma   100.65930740
_symmetry_Int_Tables_number   1
_chemical_formula_structural   LiMnBH32C27N4Cl2O3F5
_chemical_formula_sum   'Li2 Mn2 B2 H64 C54 N8 Cl4 O6 F10'
_cell_volume   2056.58054359
_cell_formula_units_Z   2
loop_
 _symmetry_equiv_pos_site_id
 _symmetry_equiv_pos_as_xyz
  1  'x, y, z'
loop_
 _atom_site_type_symbol
 _atom_site_label
 _atom_site_symmetry_multiplicity
 _atom_site_fract_x
 _atom_site_fract_y
 _atom_site_fract_z
 _atom_site_occupancy
 _atom_site_pbe_bader_charge
 _atom_site_pbe_bader_spin_density
 _atom_site_pbe_cm5_charge
 _atom_site_pbe_ddec_charge
 _atom_site_pbe_ddec_spin_density
 _atom_site_pbe_ddec_sum_bond_order
 _atom_site_pbe_magmom
Li  Li0  1  0.62701833  0.25420266  0.40392688  1  0.860188  0.000969  0.465874  0.745288  0.002194  0.60451  0.002
Li  Li1  1  0.37298732  0.74580231  0.59607464  1  0.860209  0.000969  0.465886  0.745345  0.002194  0.604453  0.002
Mn  Mn2  1  0.93015603  0.48659696  0.59591121  1  1.346411  4.521184  0.47239  0.698459  4.653014  2.634642  4.394
Mn  Mn3  1  0.06983882  0.51340180  0.40408634  1  1.346394  4.521124  0.472408  0.698472  4.652934  2.634969  4.394
B  B4  1  0.93390729  0.48147530  0.80706658  1  2.010421  0.000242  -0.079214  0.286642  0.00076  3.405558  0.0
B  B5  1  0.06610617  0.51853498  0.19293655  1  2.010129  0.000242  -0.079308  0.286185  0.00076  3.405958  0.0
H  H6  1  0.12921689  0.32039966  0.58289150  1  0.130682  0.00068  0.112701  0.104285  -5.8e-05  1.043692  0.0
H  H7  1  0.87077082  0.67962439  0.41709546  1  0.130976  0.000679  0.112783  0.104454  -5.8e-05  1.04363  0.0
H  H8  1  0.23325237  0.26258521  0.72215994  1  0.103641  0.000782  0.097937  0.121068  0.000443  1.051318  0.0
H  H9  1  0.76677225  0.73743335  0.27781790  1  0.103404  0.000783  0.097826  0.120934  0.000443  1.051154  0.0
H  H10  1  0.11492836  0.36010599  0.85321122  1  0.128711  0.000971  0.123297  0.113437  0.000679  1.00834  0.0
H  H11  1  0.88508341  0.63987050  0.14677072  1  0.128828  0.000971  0.123229  0.113287  0.000679  1.008469  0.0
H  H12  1  0.96459239  0.77304540  0.69328468  1  0.109446  0.001209  0.109515  0.098448  0.000432  1.035772  0.0
H  H13  1  0.03541922  0.22697887  0.30671217  1  0.109445  0.001208  0.109548  0.098422  0.000431  1.035925  0.0
H  H14  1  0.99774995  0.89009495  0.87453083  1  0.110405  0.000915  0.104214  0.129274  0.000505  1.012521  0.0
H  H15  1  0.00221077  0.10990925  0.12548404  1  0.111405  0.000915  0.10425  0.129336  0.000505  1.012341  0.0
H  H16  1  0.98559371  0.71388319  0.93985155  1  0.135171  0.001038  0.122645  0.112525  0.000716  1.007433  0.0
H  H17  1  0.01435732  0.28609837  0.06014906  1  0.135457  0.001039  0.122725  0.112645  0.000716  1.007464  0.0
H  H18  1  0.78345193  0.39358684  0.90758473  1  0.042248  1.3e-05  0.087031  0.080335  -3.1e-05  1.036084  0.0
H  H19  1  0.21656865  0.60641566  0.09242199  1  0.04203  1.3e-05  0.087075  0.080352  -3.1e-05  1.036018  0.0
H  H20  1  0.16011003  0.59199799  0.93810368  1  0.036696  5.1e-05  0.094386  0.080685  9e-06  1.033276  0.0
H  H21  1  0.83992456  0.40800555  0.06190479  1  0.036848  5.2e-05  0.094315  0.080529  9e-06  1.033186  0.0
H  H22  1  0.81955417  0.38340717  0.32350194  1  0.078561  0.003218  0.096595  0.052459  0.003072  1.069271  0.0
H  H23  1  0.18044088  0.61660303  0.67648522  1  0.078289  0.003221  0.096601  0.052345  0.003073  1.069389  0.0
H  H24  1  0.69321526  0.45347714  0.32330069  1  0.04438  0.000106  0.095354  0.058878  -5e-05  1.015225  0.0
H  H25  1  0.30677178  0.54651980  0.67669312  1  0.044508  0.000106  0.095343  0.058828  -5e-05  1.015225  0.0
H  H26  1  0.72383782  0.42853006  0.17587550  1  0.037333  0.000107  0.092661  0.093592  2.8e-05  1.016025  0.0
H  H27  1  0.27612167  0.57147006  0.82411198  1  0.036858  0.000107  0.092653  0.093578  2.8e-05  1.016062  0.0
H  H28  1  0.76927192  0.29628635  0.16327255  1  0.027434  0.000176  0.090799  0.089253  -1.1e-05  1.00189  0.0
H  H29  1  0.23071259  0.70372542  0.83671817  1  0.026949  0.000176  0.090804  0.089253  -1.1e-05  1.001613  0.0
H  H30  1  0.50268574  0.33523104  0.16048919  1  0.034989  5e-06  0.087951  0.088394  2e-06  1.008395  0.0
H  H31  1  0.49728592  0.66474563  0.83950623  1  0.036996  5e-06  0.087978  0.088376  2e-06  1.008513  0.0
H  H32  1  0.54581000  0.22138556  0.08164215  1  0.026359  2.8e-05  0.094049  0.092502  1.5e-05  0.982795  0.0
H  H33  1  0.45417544  0.77859475  0.91835629  1  0.026745  2.8e-05  0.094092  0.092514  1.5e-05  0.982919  0.0
H  H34  1  0.57465234  0.12174683  0.18346387  1  0.047112  -4e-06  0.096204  0.050872  -1.2e-05  0.973961  0.0
H  H35  1  0.42536478  0.87824609  0.81653694  1  0.047029  -4e-06  0.096206  0.050925  -1.2e-05  0.973981  0.0
H  H36  1  0.45643297  0.19019654  0.22405873  1  0.056034  8.2e-05  0.108211  0.071257  3.9e-05  0.98366  0.0
H  H37  1  0.54357315  0.80978223  0.77594696  1  0.056061  8.2e-05  0.108196  0.071285  3.9e-05  0.983636  0.0
H  H38  1  0.68059358  0.15752271  0.53276561  1  0.054251  0.000256  0.09902  0.055497  1.3e-05  1.043221  0.0
H  H39  1  0.31939418  0.84248373  0.46723808  1  0.054634  0.000256  0.099012  0.055515  1.3e-05  1.043141  0.0
H  H40  1  0.64483771  0.00383557  0.46812334  1  0.042179  2.9e-05  0.087998  0.047777  1.5e-05  1.017097  0.0
H  H41  1  0.35514867  0.99616213  0.53188096  1  0.042269  2.9e-05  0.08804  0.047822  1.5e-05  1.017194  0.0
H  H42  1  0.86997514  0.04470682  0.54158822  1  0.032907  7.2e-05  0.092925  0.097359  1.2e-05  0.995624  0.0
H  H43  1  0.13000852  0.95530119  0.45842580  1  0.032733  7.2e-05  0.092927  0.097368  1.2e-05  0.995763  0.0
H  H44  1  0.90188442  0.18444165  0.53410085  1  0.070346  0.000782  0.089844  0.091652  0.000331  1.035384  0.0
H  H45  1  0.09811254  0.81556485  0.46590931  1  0.070834  0.000782  0.089841  0.091637  0.000331  1.035464  0.0
H  H46  1  0.96285444  0.08332830  0.40299763  1  0.052161  0.000389  0.089081  0.087906  9.8e-05  1.013396  0.0
H  H47  1  0.03713747  0.91665897  0.59701062  1  0.052387  0.000389  0.089032  0.087854  9.8e-05  1.013553  0.0
H  H48  1  0.85916895  0.94784338  0.38538570  1  0.025839  6e-05  0.085887  0.082083  -6e-06  1.012963  0.0
H  H49  1  0.14081816  0.05215334  0.61463000  1  0.025992  6e-05  0.085843  0.082004  -6e-06  1.013088  0.0
H  H50  1  0.80049778  0.13060764  0.31805299  1  0.067209  0.00041  0.103032  0.064752  1.1e-05  1.011247  0.0
H  H51  1  0.19950006  0.86938155  0.68194603  1  0.067037  0.00041  0.103012  0.064712  1.1e-05  1.011275  0.0
H  H52  1  0.70530527  0.98602886  0.29093393  1  0.024727  7.4e-05  0.092519  0.0511  4.5e-05  0.981026  0.0
H  H53  1  0.29468872  0.01396622  0.70908023  1  0.025438  7.4e-05  0.092537  0.05105  4.5e-05  0.981036  0.0
H  H54  1  0.47203848  0.41100841  0.43823872  1  0.071632  0.000874  0.101692  0.070032  0.000404  1.012656  0.0
H  H55  1  0.52794972  0.58898589  0.56176001  1  0.071649  0.000874  0.101674  0.069995  0.000404  1.012581  0.0
H  H56  1  0.33306242  0.32827697  0.35086273  1  0.059761  4.3e-05  0.093477  0.06296  -0.000125  0.98937  0.0
H  H57  1  0.66693588  0.67171048  0.64913649  1  0.059555  4.3e-05  0.09346  0.06294  -0.000125  0.989294  0.0
H  H58  1  0.24090085  0.37060340  0.47957319  1  0.094042  0.000645  0.084918  0.091736  0.000256  1.056251  0.0
H  H59  1  0.75907791  0.62936907  0.52041579  1  0.09396  0.000646  0.084941  0.091785  0.000256  1.056292  0.0
H  H60  1  0.37709161  0.36096819  0.54803710  1  0.010597  0.000256  0.086498  0.087316  0.000111  1.009237  0.0
H  H61  1  0.62288625  0.63901819  0.45195541  1  0.010687  0.000256  0.086514  0.087446  0.000111  1.009104  0.0
H  H62  1  0.18227452  0.15980087  0.39317536  1  0.014617  0.000177  0.089114  0.085046  1.8e-05  0.998516  0.0
H  H63  1  0.81771824  0.84016566  0.60681720  1  0.014842  0.000178  0.089134  0.084959  1.8e-05  0.998669  0.0
H  H64  1  0.23467589  0.16525077  0.50316468  1  0.020411  3.8e-05  0.092318  0.095597  -1.9e-05  1.007311  0.0
H  H65  1  0.76533799  0.83472648  0.49683047  1  0.020141  3.8e-05  0.092305  0.095602  -1.9e-05  1.007313  0.0
H  H66  1  0.43962314  0.14183442  0.48030483  1  0.041729  0.000136  0.093216  0.047905  9.1e-05  1.011907  0.0
H  H67  1  0.56039236  0.85815591  0.51969209  1  0.041716  0.000136  0.093219  0.047866  9.1e-05  1.011837  0.0
H  H68  1  0.34803103  0.06153555  0.36885736  1  0.072386  8e-06  0.097765  0.071039  -1.5e-05  1.006549  0.0
H  H69  1  0.65198559  0.93845572  0.63113443  1  0.072679  8e-06  0.097707  0.070931  -1.5e-05  1.006408  0.0
C  C70  1  0.11128267  0.34024511  0.64867885  1  0.392477  0.014742  0.014242  0.007548  0.012459  4.003882  0.011
C  C71  1  0.88871468  0.65976336  0.35131054  1  0.392673  0.014742  0.014093  0.007212  0.01246  4.004041  0.011
C  C72  1  0.16280604  0.31138262  0.71957990  1  -0.032656  0.001845  -0.127189  -0.237615  0.001271  4.0781  0.0
C  C73  1  0.83721816  0.68862709  0.28040899  1  -0.032347  0.001844  -0.127162  -0.237518  0.00127  4.078233  0.0
C  C74  1  0.10517684  0.36129542  0.78684498  1  0.344601  0.014298  0.02319  -0.018044  0.011301  3.972422  0.008
C  C75  1  0.89483634  0.63870715  0.21314515  1  0.343939  0.0143  0.023255  -0.017895  0.011301  3.972578  0.008
C  C76  1  0.96563217  0.73931994  0.74614767  1  0.486576  0.012203  0.010662  0.006694  0.010203  4.017873  0.009
C  C77  1  0.03435791  0.26069868  0.25386127  1  0.486732  0.012216  0.010509  0.006679  0.010214  4.017471  0.009
C  C78  1  0.98324544  0.79758016  0.83797654  1  -0.139842  0.002033  -0.128601  -0.242976  0.001386  4.084571  0.001
C  C79  1  0.01674166  0.20242358  0.16203489  1  -0.141527  0.002034  -0.128642  -0.242991  0.001385  4.084035  0.001
C  C80  1  0.97838242  0.71008684  0.87231406  1  0.354023  0.011272  0.022582  -0.021672  0.008966  3.981063  0.007
C  C81  1  0.02160328  0.28991871  0.12768917  1  0.354487  0.011286  0.022611  -0.021919  0.008979  3.981169  0.007
C  C82  1  0.78542523  0.40997658  0.75881904  1  -0.249337  0.000991  -0.018807  -0.308163  0.000859  3.972498  0.0
C  C83  1  0.21458872  0.59003184  0.24119584  1  -0.248694  0.00099  -0.018846  -0.30822  0.000859  3.972633  0.0
C  C84  1  0.74707731  0.28810560  0.72619265  1  0.510344  0.00093  0.095149  0.191655  0.000619  4.092369  0.001
C  C85  1  0.25295043  0.71190299  0.27382494  1  0.509826  0.00093  0.095417  0.19208  0.000619  4.092841  0.001
C  C86  1  0.62111923  0.22398800  0.69237891  1  0.473365  -0.000176  0.071245  0.040876  -0.000271  4.162544  0.0
C  C87  1  0.37890411  0.77602501  0.30762720  1  0.473378  -0.000176  0.071076  0.040667  -0.000271  4.162802  0.0
C  C88  1  0.52593397  0.28174279  0.68976164  1  0.663089  0.001546  0.080809  0.088205  0.001279  4.156919  0.001
C  C89  1  0.47408015  0.71826322  0.31023375  1  0.663649  0.001546  0.080954  0.088463  0.001279  4.156491  0.001
C  C90  1  0.55864544  0.40281870  0.72251912  1  0.483775  9e-06  0.071226  0.047484  -0.000192  4.146429  0.0
C  C91  1  0.44135513  0.59718455  0.27747351  1  0.483156  9e-06  0.071161  0.047444  -0.000192  4.146222  0.0
C  C92  1  0.68580260  0.46368548  0.75654908  1  0.524643  0.000659  0.097293  0.202264  0.000179  4.087687  0.0
C  C93  1  0.31419755  0.53631243  0.24345367  1  0.524494  0.000659  0.097211  0.202233  0.000179  4.087648  0.0
C  C94  1  0.96685866  0.49149558  0.90930191  1  -0.47388  -1.8e-05  -0.015121  -0.139543  -0.000206  3.972992  0.0
C  C95  1  0.03315916  0.50852437  0.09069934  1  -0.473555  -1.8e-05  -0.015052  -0.139155  -0.000206  3.973165  0.0
C  C96  1  0.87934659  0.44080211  0.94740962  1  -0.141636  5.4e-05  -0.097888  -0.089786  -1.8e-05  4.017537  0.0
C  C97  1  0.12067444  0.55920917  0.05259214  1  -0.142089  5.4e-05  -0.09792  -0.089996  -1.8e-05  4.017578  0.0
C  C98  1  0.08843400  0.55107109  0.96460784  1  -0.076795  0.00012  -0.094305  -0.097962  2e-05  4.029613  0.0
C  C99  1  0.91158771  0.44894283  0.03539224  1  -0.077045  0.00012  -0.0943  -0.098085  2e-05  4.029916  0.0
C  C100  1  0.72284505  0.37492380  0.28910912  1  0.385221  0.003196  -0.070988  0.038156  0.002382  3.865815  0.003
C  C101  1  0.27714520  0.62507843  0.71088398  1  0.385426  0.003196  -0.070939  0.038375  0.002382  3.865605  0.003
C  C102  1  0.70502661  0.34851562  0.18990481  1  -0.01293  7.8e-05  -0.169492  -0.176918  -0.000147  3.917222  0.0
C  C103  1  0.29495079  0.65148645  0.81008628  1  -0.012036  7.8e-05  -0.169407  -0.176765  -0.000147  3.916969  0.0
C  C104  1  0.56647778  0.27719577  0.15238199  1  -0.026165  7.3e-05  -0.165811  -0.183437  9e-05  3.937942  0.0
C  C105  1  0.43350719  0.72279329  0.84761320  1  -0.028643  7.3e-05  -0.165952  -0.183565  9e-05  3.938355  0.0
C  C106  1  0.55113945  0.20604099  0.21108516  1  0.376752  0.000168  -0.060792  0.053378  0.000166  3.865511  0.0
C  C107  1  0.44886528  0.79395004  0.78891384  1  0.37694  0.000168  -0.060767  0.05328  0.000166  3.865697  0.0
C  C108  1  0.70596277  0.09036190  0.48087770  1  0.398938  0.000148  -0.071487  0.040636  0.0001  3.887374  0.0
C  C109  1  0.29402363  0.90964274  0.51912963  1  0.398596  0.000148  -0.071556  0.040597  0.0001  3.887665  0.0
C  C110  1  0.84589652  0.09369253  0.49985686  1  -0.036405  0.000583  -0.16888  -0.184137  0.000469  3.917381  0.0
C  C111  1  0.15409219  0.90631384  0.50015482  1  -0.036839  0.000583  -0.168984  -0.184292  0.000469  3.917978  0.0
C  C112  1  0.86810863  0.04200429  0.40591161  1  -0.061412  0.000331  -0.168065  -0.178563  0.000212  3.899682  0.0
C  C113  1  0.13188329  0.95799340  0.59410058  1  -0.061993  0.000331  -0.167931  -0.178334  0.000212  3.899966  0.0
C  C114  1  0.76375336  0.06647754  0.34569352  1  0.398602  0.000357  -0.064899  0.047103  0.00022  3.845505  0.0
C  C115  1  0.23624429  0.93352114  0.65431466  1  0.398088  0.000357  -0.064844  0.04722  0.00022  3.845661  0.0
C  C116  1  0.39256073  0.33288297  0.41316920  1  0.346247  0.000833  -0.069623  0.042713  0.000587  3.858682  0.0
C  C117  1  0.60743481  0.66710446  0.58682850  1  0.34592  0.000833  -0.069444  0.043107  0.000587  3.858229  0.0
C  C118  1  0.31543020  0.32442509  0.48049511  1  -0.042232  0.000497  -0.174285  -0.19272  0.000361  3.944702  0.0
C  C119  1  0.68455774  0.67555447  0.51949486  1  -0.041847  0.000497  -0.174342  -0.193038  0.000362  3.945004  0.0
C  C120  1  0.26400634  0.19221910  0.45079283  1  -0.004151  0.000173  -0.169474  -0.190275  6.9e-05  3.950204  0.0
C  C121  1  0.73599445  0.80775714  0.54919763  1  -0.004126  0.000173  -0.169567  -0.190315  6.9e-05  3.950551  0.0
C  C122  1  0.37566263  0.14683852  0.42356865  1  0.377122  0.000122  -0.06897  0.042636  0.000125  3.875969  0.0
C  C123  1  0.62434827  0.85314826  0.57642746  1  0.376724  0.000122  -0.068915  0.042988  0.000125  3.875611  0.0
N  N124  1  0.02491505  0.41688301  0.75712358  1  -0.980871  0.005683  -0.122385  -0.022459  0.002953  3.672593  0.004
N  N125  1  0.97508897  0.58311938  0.24287162  1  -0.981187  0.005683  -0.122323  -0.022206  0.002953  3.672643  0.004
N  N126  1  0.02743807  0.40340115  0.67138439  1  -0.788867  0.055901  -0.247252  -0.202737  0.0345  3.436694  0.014
N  N127  1  0.97256159  0.59659858  0.32860905  1  -0.788596  0.055909  -0.247114  -0.202656  0.034501  3.436663  0.014
N  N128  1  0.95970361  0.60681263  0.80431314  1  -0.970219  0.005147  -0.124884  -0.022473  0.002771  3.685928  0.003
N  N129  1  0.04031281  0.39319163  0.19568629  1  -0.970474  0.005153  -0.12487  -0.022048  0.002773  3.686206  0.003
N  N130  1  0.95109323  0.62413248  0.72609284  1  -0.799266  0.055195  -0.24071  -0.202514  0.036115  3.430091  0.02
N  N131  1  0.04893265  0.37590058  0.27391634  1  -0.799096  0.055206  -0.240699  -0.202686  0.036121  3.429816  0.02
Cl  Cl132  1  0.01397592  0.64187311  0.54351394  1  -0.70957  0.155576  -0.205038  -0.452202  0.120636  1.419556  0.068
Cl  Cl133  1  0.98601272  0.35814043  0.45647891  1  -0.709591  0.155599  -0.205023  -0.452164  0.120656  1.41969  0.068
Cl  Cl134  1  0.70925597  0.40805652  0.54302067  1  -0.73767  0.116105  -0.282162  -0.546629  0.086616  1.248319  0.049
Cl  Cl135  1  0.29074029  0.59193693  0.45698599  1  -0.737639  0.116098  -0.282166  -0.546659  0.086617  1.248294  0.049
O  O136  1  0.64149059  0.27476011  0.29568115  1  -1.0644  0.001059  -0.312577  -0.329453  0.000446  2.482449  0.001
O  O137  1  0.35851805  0.72524577  0.70432032  1  -1.064469  0.001058  -0.312658  -0.329511  0.000446  2.482402  0.001
O  O138  1  0.68343825  0.11669786  0.40142112  1  -1.063729  0.000448  -0.306019  -0.327849  3.5e-05  2.491754  0.0
O  O139  1  0.31655869  0.88330523  0.59858204  1  -1.063553  0.000448  -0.305973  -0.327831  3.5e-05  2.492113  0.0
O  O140  1  0.44487653  0.23124586  0.39407034  1  -1.05154  0.001159  -0.307196  -0.336396  0.000657  2.476357  0.0
O  O141  1  0.55512680  0.76874345  0.60592441  1  -1.051369  0.001159  -0.307237  -0.336688  0.000658  2.476429  0.0
F  F142  1  0.83330303  0.22384366  0.72777920  1  -0.626068  0.000244  -0.088099  -0.114845  -1.8e-05  1.367499  0.0
F  F143  1  0.16672428  0.77617005  0.27224700  1  -0.62574  0.000244  -0.088163  -0.114921  -1.8e-05  1.367346  0.0
F  F144  1  0.58898618  0.10583835  0.66278497  1  -0.641717  -4.9e-05  -0.076086  -0.096986  -6.1e-05  1.441752  0.0
F  F145  1  0.41103443  0.89417804  0.33722661  1  -0.641989  -4.9e-05  -0.076065  -0.097032  -6.1e-05  1.441641  0.0
F  F146  1  0.40327404  0.21990842  0.65609286  1  -0.628555  0.000304  -0.069152  -0.087593  0.00014  1.423186  0.0
F  F147  1  0.59673139  0.78010960  0.34391024  1  -0.628625  0.000304  -0.069214  -0.087721  0.00014  1.423052  0.0
F  F148  1  0.46689677  0.46034338  0.72062854  1  -0.629074  2e-06  -0.069332  -0.08661  -7.4e-05  1.44466  0.0
F  F149  1  0.53310999  0.53966958  0.27936057  1  -0.629004  2e-06  -0.069322  -0.086617  -7.4e-05  1.444648  0.0
F  F150  1  0.70745568  0.58195804  0.78866008  1  -0.647517  0.000132  -0.082755  -0.116145  -0.000179  1.397907  0.0
F  F151  1  0.29255770  0.41803503  0.21132271  1  -0.647356  0.000132  -0.082676  -0.116124  -0.000179  1.397879  0.0
