# generated using pymatgen
data_CdH22C37Br4(NO2)2
_symmetry_space_group_name_H-M   'P 1'
_cell_length_a   8.97449358
_cell_length_b   16.04814570
_cell_length_c   17.29969923
_cell_angle_alpha   115.87175671
_cell_angle_beta   90.64415749
_cell_angle_gamma   92.10701406
_symmetry_Int_Tables_number   1
_chemical_formula_structural   CdH22C37Br4(NO2)2
_chemical_formula_sum   'Cd2 H44 C74 Br8 N4 O8'
_cell_volume   2239.30131495
_cell_formula_units_Z   2
loop_
 _symmetry_equiv_pos_site_id
 _symmetry_equiv_pos_as_xyz
  1  'x, y, z'
loop_
 _atom_site_type_symbol
 _atom_site_label
 _atom_site_symmetry_multiplicity
 _atom_site_fract_x
 _atom_site_fract_y
 _atom_site_fract_z
 _atom_site_occupancy
 _atom_site_hle17_bader_spin_density
 _atom_site_hle17_ddec_charge
 _atom_site_hle17_ddec_spin_density
 _atom_site_hle17_ddec_sum_bond_order
 _atom_site_hle17_magmom
 _atom_site_hse06_10hf_bader_spin_density
 _atom_site_hse06_10hf_ddec_charge
 _atom_site_hse06_10hf_ddec_spin_density
 _atom_site_hse06_10hf_ddec_sum_bond_order
 _atom_site_hse06_10hf_magmom
 _atom_site_hse06_bader_spin_density
 _atom_site_hse06_ddec_charge
 _atom_site_hse06_ddec_spin_density
 _atom_site_hse06_ddec_sum_bond_order
 _atom_site_hse06_magmom
 _atom_site_pbe_bader_spin_density
 _atom_site_pbe_cm5_charge
 _atom_site_pbe_ddec_charge
 _atom_site_pbe_ddec_spin_density
 _atom_site_pbe_ddec_sum_bond_order
 _atom_site_pbe_magmom
Cd  Cd0  1  0.53959702  0.73557971  0.98050642  1  0  0.864715  0  2.00083  0  0  0.679669  0  2.474554  0  0  0.728298  0  2.431441  0  0  0.57203  0.64604  0  2.503494  0
Cd  Cd1  1  0.46040291  0.26442607  0.01948910  1  0  0.864795  0  2.000809  0  0  0.679751  0  2.474527  0  0  0.728381  0  2.431414  0  0  0.572061  0.646122  0  2.503468  0
H  H2  1  0.63411819  0.53448891  0.95303002  1  0  0.080641  0  0.959798  0  0  0.084008  0  1.032291  0  0  0.087009  0  1.02888  0  0  0.10324  0.081792  0  1.034708  0
H  H3  1  0.36588320  0.46552176  0.04697150  1  0  0.080668  0  0.95973  0  0  0.084025  0  1.032232  0  0  0.087025  0  1.028821  0  0  0.103245  0.081812  0  1.03465  0
H  H4  1  0.78384979  0.40320087  0.85708214  1  0  0.11382  0  0.968294  0  0  0.123289  0  1.026882  0  0  0.126444  0  1.026254  0  0  0.100953  0.121033  0  1.027513  0
H  H5  1  0.21615696  0.59680851  0.14292759  1  0  0.113822  0  0.968151  0  0  0.123268  0  1.026774  0  0  0.126421  0  1.026143  0  0  0.100955  0.121014  0  1.027407  0
H  H6  1  0.93287302  0.42096418  0.74107526  1  0  0.111817  0  0.926733  0  0  0.121393  0  0.984597  0  0  0.124488  0  0.982477  0  0  0.117187  0.119085  0  0.986188  0
H  H7  1  0.06713295  0.57903478  0.25892802  1  0  0.111847  0  0.926682  0  0  0.121414  0  0.984553  0  0  0.124508  0  0.982435  0  0  0.117217  0.119108  0  0.986145  0
H  H8  1  0.76771286  0.69564577  0.83052202  1  0  0.089844  0  0.936891  0  0  0.092283  0  1.00918  0  0  0.095985  0  1.004748  0  0  0.116067  0.089472  0  1.012493  0
H  H9  1  0.23230003  0.30435518  0.16947517  1  0  0.089877  0  0.936772  0  0  0.092294  0  1.009076  0  0  0.095994  0  1.004647  0  0  0.116038  0.089485  0  1.012391  0
H  H10  1  0.90131190  0.60484004  0.55772111  1  0  0.118989  0  0.935633  0  0  0.130346  0  0.992335  0  0  0.133387  0  0.991177  0  0  0.1104  0.128166  0  0.993231  0
H  H11  1  0.09869293  0.39515894  0.44228390  1  0  0.118991  0  0.935619  0  0  0.13032  0  0.992348  0  0  0.13337  0  0.991197  0  0  0.110407  0.128142  0  0.99324  0
H  H12  1  0.04543755  0.65453152  0.46272070  1  0  0.09875  0  0.964713  0  0  0.108329  0  1.02835  0  0  0.111109  0  1.026967  0  0  0.101566  0.106356  0  1.029389  0
H  H13  1  0.95456265  0.34546465  0.53727969  1  0  0.098738  0  0.964787  0  0  0.108323  0  1.028413  0  0  0.111103  0  1.02703  0  0  0.10158  0.106349  0  1.029452  0
H  H14  1  0.34879734  0.81971534  0.67396189  1  0  0.09788  0  0.945614  0  0  0.10989  0  1.002006  0  0  0.112416  0  1.001793  0  0  0.101299  0.108085  0  1.002261  0
H  H15  1  0.65121403  0.18028078  0.32603569  1  0  0.0979  0  0.945632  0  0  0.109884  0  1.00205  0  0  0.11241  0  1.001837  0  0  0.101301  0.108079  0  1.002304  0
H  H16  1  0.20853969  0.76514594  0.76793468  1  0  0.113344  0  0.971296  0  0  0.121799  0  1.03621  0  0  0.125375  0  1.033717  0  0  0.09277  0.119184  0  1.03812  0
H  H17  1  0.79147286  0.23485086  0.23206260  1  0  0.11333  0  0.97129  0  0  0.12179  0  1.036199  0  0  0.125365  0  1.03371  0  0  0.092776  0.119179  0  1.0381  0
H  H18  1  0.27882794  0.56531586  0.41094560  1  0  0.111561  0  0.957366  0  0  0.120465  0  1.023508  0  0  0.123124  0  1.022842  0  0  0.100514  0.118518  0  1.024136  0
H  H19  1  0.72116873  0.43467826  0.58905625  1  0  0.111536  0  0.957452  0  0  0.120466  0  1.02356  0  0  0.123126  0  1.022897  0  0  0.10051  0.11852  0  1.024186  0
H  H20  1  0.75648281  0.53813139  0.39199180  1  0  0.116967  0  0.968252  0  0  0.125638  0  1.030991  0  0  0.12941  0  1.028386  0  0  0.099854  0.122927  0  1.032948  0
H  H21  1  0.24352080  0.46186545  0.60800773  1  0  0.116907  0  0.968426  0  0  0.125611  0  1.031133  0  0  0.129386  0  1.028521  0  0  0.099807  0.122893  0  1.033085  0
H  H22  1  0.79734186  0.70973231  0.46716380  1  0  0.093187  0  0.960981  0  0  0.104207  0  1.0229  0  0  0.106331  0  1.022854  0  0  0.099404  0.10269  0  1.023016  0
H  H23  1  0.20265529  0.29026731  0.53283620  1  0  0.0932  0  0.961012  0  0  0.10422  0  1.022931  0  0  0.106344  0  1.022883  0  0  0.099434  0.102702  0  1.023048  0
H  H24  1  0.77962517  0.89227263  0.55330163  1  0  0.101226  0  0.950902  0  0  0.115492  0  1.006546  0  0  0.117973  0  1.005357  0  0  0.103759  0.113709  0  1.007494  0
H  H25  1  0.22037163  0.10772210  0.44669353  1  0  0.101185  0  0.950815  0  0  0.115446  0  1.006472  0  0  0.117933  0  1.00528  0  0  0.103702  0.113663  0  1.007421  0
H  H26  1  0.70479617  0.05416546  0.63085056  1  0  0.104474  0  0.973981  0  0  0.112304  0  1.039788  0  0  0.114615  0  1.040012  0  0  0.097127  0.110628  0  1.0397  0
H  H27  1  0.29520506  0.94582853  0.36914146  1  0  0.10442  0  0.973929  0  0  0.112235  0  1.039766  0  0  0.114549  0  1.039993  0  0  0.097097  0.110563  0  1.03968  0
H  H28  1  0.23955237  0.96193679  0.59862779  1  0  0.110892  0  0.970822  0  0  0.11927  0  1.038583  0  0  0.122043  0  1.037514  0  0  0.099897  0.117274  0  1.039417  0
H  H29  1  0.76045062  0.03806480  0.40136378  1  0  0.110971  0  0.970754  0  0  0.119318  0  1.038549  0  0  0.122119  0  1.03745  0  0  0.099909  0.117326  0  1.03938  0
H  H30  1  0.35499972  0.71230264  0.32937843  1  0  0.09555  0  0.962769  0  0  0.104275  0  1.025618  0  0  0.106896  0  1.025262  0  0  0.098052  0.102413  0  1.025947  0
H  H31  1  0.64499356  0.28769003  0.67061646  1  0  0.095497  0  0.962824  0  0  0.104206  0  1.025704  0  0  0.106829  0  1.025346  0  0  0.098015  0.102343  0  1.026034  0
H  H32  1  0.21666897  0.75172793  0.22520783  1  0  0.116012  0  0.953799  0  0  0.123579  0  1.018942  0  0  0.12743  0  1.015973  0  0  0.099181  0.120807  0  1.021149  0
H  H33  1  0.78330777  0.24826758  0.77479266  1  0  0.116016  0  0.953824  0  0  0.123612  0  1.018935  0  0  0.127463  0  1.015967  0  0  0.099186  0.120846  0  1.021135  0
H  H34  1  0.89139440  0.88714147  0.41574583  1  0  0.109322  0  0.961768  0  0  0.115511  0  1.030213  0  0  0.118889  0  1.028505  0  0  0.101685  0.113089  0  1.031488  0
H  H35  1  0.10860274  0.11285891  0.58426082  1  0  0.109378  0  0.961595  0  0  0.115529  0  1.03009  0  0  0.118925  0  1.02836  0  0  0.101696  0.113106  0  1.031366  0
H  H36  1  0.03362209  0.85204221  0.52115366  1  0  0.100506  0  0.955517  0  0  0.110676  0  1.018036  0  0  0.113548  0  1.016468  0  0  0.103683  0.108608  0  1.019255  0
H  H37  1  0.96637713  0.14795607  0.47885044  1  0  0.100471  0  0.955536  0  0  0.11061  0  1.018097  0  0  0.11348  0  1.016531  0  0  0.103649  0.108552  0  1.019303  0
H  H38  1  0.77406132  0.78858747  0.13884634  1  0  0.090282  0  0.934704  0  0  0.09301  0  1.006303  0  0  0.096787  0  1.001849  0  0  0.116322  0.09021  0  1.009568  0
H  H39  1  0.22593794  0.21141002  0.86114877  1  0  0.090293  0  0.934695  0  0  0.093019  0  1.00629  0  0  0.096795  0  1.001837  0  0  0.116335  0.090217  0  1.00956  0
H  H40  1  0.63539787  0.93926924  0.01059395  1  0  0.07833  0  0.961067  0  0  0.082367  0  1.031514  0  0  0.085605  0  1.027954  0  0  0.104517  0.079933  0  1.034129  0
H  H41  1  0.36460860  0.06073519  0.98940572  1  0  0.07841  0  0.960983  0  0  0.082452  0  1.031419  0  0  0.08568  0  1.027866  0  0  0.104541  0.080016  0  1.034035  0
H  H42  1  0.77789831  0.08263332  0.11382362  1  0  0.113587  0  0.963828  0  0  0.121833  0  1.023598  0  0  0.125427  0  1.022348  0  0  0.100765  0.119238  0  1.024725  0
H  H43  1  0.22210241  0.91736981  0.88618126  1  0  0.113689  0  0.963756  0  0  0.121856  0  1.023599  0  0  0.125449  0  1.022353  0  0  0.100786  0.119262  0  1.024724  0
H  H44  1  0.92741287  0.07509585  0.23580234  1  0  0.111907  0  0.933726  0  0  0.120921  0  0.992585  0  0  0.124042  0  0.990355  0  0  0.116311  0.11862  0  0.994195  0
H  H45  1  0.07258076  0.92490246  0.76420346  1  0  0.111882  0  0.933652  0  0  0.120913  0  0.992507  0  0  0.12403  0  0.99028  0  0  0.116311  0.118612  0  0.994116  0
C  C46  1  0.70124981  0.53975682  0.90292103  1  0  0.151414  0  3.662738  0  0  0.120012  0  3.903613  0  0  0.128909  0  3.921767  0  0  0.055401  0.114389  0  3.891201  0
C  C47  1  0.29875792  0.46024971  0.09708063  1  0  0.151562  0  3.662344  0  0  0.12013  0  3.903259  0  0  0.129029  0  3.921408  0  0  0.055472  0.114503  0  3.890853  0
C  C48  1  0.78538362  0.46678365  0.84902454  1  0  -0.107692  0  3.704198  0  0  -0.115512  0  3.945445  0  0  -0.124839  0  3.967915  0  0  -0.07838  -0.109718  0  3.930429  0
C  C49  1  0.21462528  0.53322432  0.15098291  1  0  -0.107703  0  3.703866  0  0  -0.115483  0  3.945123  0  0  -0.124803  0  3.967585  0  0  -0.078375  -0.10969  0  3.930111  0
C  C50  1  0.86716707  0.47672576  0.78556154  1  0  0.010308  0  3.668862  0  0  -0.017838  0  3.911074  0  0  -0.011608  0  3.928757  0  0  -0.047442  -0.021449  0  3.898908  0
C  C51  1  0.13283803  0.52327594  0.21444051  1  0  0.010218  0  3.668863  0  0  -0.01794  0  3.911098  0  0  -0.01171  0  3.928779  0  0  -0.047517  -0.021551  0  3.898937  0
C  C52  1  0.86398542  0.56043911  0.77890110  1  0  -0.122808  0  3.783904  0  0  -0.10049  0  4.025878  0  0  -0.11447  0  4.049851  0  0  -0.010503  -0.091671  0  4.009937  0
C  C53  1  0.13602089  0.43956399  0.22110267  1  0  -0.122602  0  3.783714  0  0  -0.100285  0  4.025656  0  0  -0.114265  0  4.049644  0  0  -0.010455  -0.091471  0  4.009721  0
C  C54  1  0.77634120  0.63040094  0.83512308  1  0  0.133103  0  3.68415  0  0  0.085888  0  3.941714  0  0  0.096306  0  3.958437  0  0  0.05648  0.079292  0  3.930343  0
C  C55  1  0.22366411  0.36960279  0.16487572  1  0  0.132859  0  3.68405  0  0  0.085669  0  3.941607  0  0  0.096086  0  3.958335  0  0  0.05644  0.079069  0  3.930233  0
C  C56  1  0.95162369  0.57149620  0.71147068  1  0  0.599821  0  3.805206  0  0  0.547119  0  4.105513  0  0  0.581374  0  4.096048  0  0  0.244496  0.523873  0  4.111643  0
C  C57  1  0.04838120  0.42850271  0.28852852  1  0  0.599605  0  3.805339  0  0  0.546942  0  4.105645  0  0  0.581168  0  4.096205  0  0  0.244414  0.523697  0  4.111766  0
C  C58  1  0.04581764  0.68495072  0.66844214  1  0  0.261138  0  3.789494  0  0  0.252542  0  4.050712  0  0  0.261286  0  4.068053  0  0  0.072763  0.24654  0  4.038975  0
C  C59  1  0.95418729  0.31504891  0.33155966  1  0  0.261059  0  3.789459  0  0  0.252486  0  4.050667  0  0  0.261219  0  4.068008  0  0  0.072768  0.246487  0  4.038915  0
C  C60  1  0.99866957  0.65229242  0.58292430  1  0  -0.152608  0  3.749115  0  0  -0.175646  0  3.999332  0  0  -0.179012  0  4.018804  0  0  -0.09338  -0.17325  0  3.986078  0
C  C61  1  0.00133522  0.34770585  0.41707927  1  0  -0.152442  0  3.749038  0  0  -0.175448  0  3.999241  0  0  -0.178825  0  4.018717  0  0  -0.093331  -0.173058  0  3.985987  0
C  C62  1  0.07973182  0.68141550  0.53021721  1  0  -0.099759  0  3.74642  0  0  -0.119352  0  3.997943  0  0  -0.121756  0  4.019792  0  0  -0.090348  -0.117618  0  3.983051  0
C  C63  1  0.92026747  0.31858346  0.46978543  1  0  -0.099918  0  3.746568  0  0  -0.11949  0  3.998136  0  0  -0.121893  0  4.01999  0  0  -0.090418  -0.117757  0  3.983245  0
C  C64  1  0.20487641  0.74291034  0.56216846  1  0  0.04824  0  3.707658  0  0  0.060534  0  3.947192  0  0  0.059455  0  3.971915  0  0  -0.006159  0.061238  0  3.930389  0
C  C65  1  0.79512721  0.25708648  0.43782932  1  0  0.048374  0  3.707652  0  0  0.060516  0  3.947306  0  0  0.059436  0  3.972027  0  0  -0.006167  0.06122  0  3.930499  0
C  C66  1  0.24990563  0.77358360  0.64826634  1  0  -0.091925  0  3.750338  0  0  -0.115021  0  4.007082  0  0  -0.117099  0  4.029063  0  0  -0.091372  -0.113536  0  3.99211  0
C  C67  1  0.75009933  0.22641599  0.35173198  1  0  -0.09186  0  3.7504  0  0  -0.114893  0  4.007167  0  0  -0.116971  0  4.029147  0  0  -0.091311  -0.113411  0  3.992197  0
C  C68  1  0.17098809  0.74429238  0.70166655  1  0  -0.167443  0  3.767194  0  0  -0.189857  0  4.022095  0  0  -0.194115  0  4.041979  0  0  -0.102487  -0.186829  0  4.008656  0
C  C69  1  0.82902226  0.25570514  0.29833331  1  0  -0.167518  0  3.767285  0  0  -0.189927  0  4.022167  0  0  -0.194188  0  4.042055  0  0  -0.102536  -0.186905  0  4.008732  0
C  C70  1  0.29857542  0.76677187  0.50075094  1  0  0.0048  0  3.624086  0  0  0.011508  0  3.839073  0  0  0.012637  0  3.853829  0  0  0.013157  0.010931  0  3.828766  0
C  C71  1  0.70142378  0.23322493  0.49924449  1  0  0.00479  0  3.624115  0  0  0.011708  0  3.838832  0  0  0.012845  0  3.853576  0  0  0.013171  0.011129  0  3.828521  0
C  C72  1  0.41532380  0.69309921  0.46382292  1  0  0.028367  0  3.689433  0  0  0.041691  0  3.924434  0  0  0.040803  0  3.947291  0  0  -0.001756  0.04226  0  3.908926  0
C  C73  1  0.58467677  0.30690107  0.53617447  1  0  0.028374  0  3.689556  0  0  0.04165  0  3.924578  0  0  0.040764  0  3.947435  0  0  -0.001709  0.042217  0  3.909068  0
C  C74  1  0.39102386  0.59741681  0.42230639  1  0  -0.161861  0  3.750679  0  0  -0.19369  0  4.005077  0  0  -0.196429  0  4.02593  0  0  -0.102276  -0.191714  0  3.990972  0
C  C75  1  0.60897322  0.40258213  0.57769448  1  0  -0.161796  0  3.751  0  0  -0.19365  0  4.005391  0  0  -0.196391  0  4.02624  0  0  -0.102241  -0.191673  0  3.991284  0
C  C76  1  0.51602056  0.54321961  0.39762434  1  0  0.095637  0  3.736812  0  0  0.112866  0  4.004599  0  0  0.115942  0  4.027063  0  0  -0.021068  0.110641  0  3.989382  0
C  C77  1  0.48397733  0.45677515  0.60237315  1  0  0.095616  0  3.736786  0  0  0.112864  0  4.004542  0  0  0.115939  0  4.027006  0  0  -0.021088  0.110636  0  3.98932  0
C  C78  1  0.66157679  0.58243087  0.41252840  1  0  -0.130057  0  3.763406  0  0  -0.153497  0  4.012453  0  0  -0.156104  0  4.032491  0  0  -0.1029  -0.151603  0  3.998817  0
C  C79  1  0.33842000  0.41756387  0.58746734  1  0  -0.129958  0  3.763515  0  0  -0.153414  0  4.01249  0  0  -0.156021  0  4.032528  0  0  -0.102776  -0.151508  0  3.998843  0
C  C80  1  0.68409774  0.67880579  0.45467671  1  0  -0.084879  0  3.738278  0  0  -0.102111  0  3.98702  0  0  -0.1037  0  4.007258  0  0  -0.088482  -0.100998  0  3.973212  0
C  C81  1  0.31589924  0.32119101  0.54531812  1  0  -0.084922  0  3.738283  0  0  -0.102153  0  3.987064  0  0  -0.103742  0  4.007305  0  0  -0.088587  -0.101039  0  3.973253  0
C  C82  1  0.56088536  0.73428759  0.48153555  1  0  0.007589  0  3.802011  0  0  0.01094  0  4.04443  0  0  0.010971  0  4.066805  0  0  -0.015578  0.010919  0  4.029285  0
C  C83  1  0.43911298  0.26571269  0.51846182  1  0  0.007622  0  3.802009  0  0  0.010932  0  4.044479  0  0  0.010959  0  4.066857  0  0  -0.015574  0.010909  0  4.029333  0
C  C84  1  0.55113214  0.83466713  0.53025498  1  0  0.010982  0  3.800805  0  0  0.01265  0  4.045526  0  0  0.012958  0  4.067794  0  0  -0.014568  0.012451  0  4.030447  0
C  C85  1  0.44886508  0.16533317  0.46974354  1  0  0.010867  0  3.800683  0  0  0.012591  0  4.045382  0  0  0.012899  0  4.067651  0  0  -0.01461  0.012392  0  4.030301  0
C  C86  1  0.66154371  0.90622347  0.56194647  1  0  -0.086677  0  3.728508  0  0  -0.105499  0  3.978525  0  0  -0.106809  0  3.997326  0  0  -0.087389  -0.10459  0  3.965703  0
C  C87  1  0.33845638  0.09377056  0.43804844  1  0  -0.086611  0  3.728295  0  0  -0.10544  0  3.978317  0  0  -0.106754  0  3.997124  0  0  -0.087319  -0.104532  0  3.965496  0
C  C88  1  0.62004527  0.99780500  0.60640429  1  0  -0.113059  0  3.758195  0  0  -0.135971  0  4.008185  0  0  -0.1381  0  4.029388  0  0  -0.099394  -0.134384  0  3.99376  0
C  C89  1  0.37996274  0.00219114  0.39359442  1  0  -0.112992  0  3.758153  0  0  -0.135883  0  4.008129  0  0  -0.138019  0  4.029339  0  0  -0.099371  -0.1343  0  3.99371  0
C  C90  1  0.46888454  0.01615757  0.61895008  1  0  0.095514  0  3.724703  0  0  0.113281  0  3.990247  0  0  0.11593  0  4.013123  0  0  -0.018913  0.11132  0  3.974787  0
C  C91  1  0.53112358  0.98383922  0.38104542  1  0  0.095539  0  3.724835  0  0  0.11331  0  3.990356  0  0  0.11596  0  4.013238  0  0  -0.018942  0.111347  0  3.974899  0
C  C92  1  0.35658714  0.94581408  0.58837691  1  0  -0.16316  0  3.754194  0  0  -0.194361  0  4.007946  0  0  -0.197355  0  4.029533  0  0  -0.102375  -0.192186  0  3.993332  0
C  C93  1  0.64341678  0.05418618  0.41161993  1  0  -0.163291  0  3.754192  0  0  -0.194461  0  4.007949  0  0  -0.197479  0  4.029522  0  0  -0.102347  -0.192286  0  3.993332  0
C  C94  1  0.39959152  0.85512232  0.54418474  1  0  0.028624  0  3.684485  0  0  0.042713  0  3.919007  0  0  0.041666  0  3.941992  0  0  -0.001394  0.043372  0  3.903422  0
C  C95  1  0.60040330  0.14487590  0.45581352  1  0  0.028698  0  3.684449  0  0  0.04271  0  3.918956  0  0  0.041659  0  3.941949  0  0  -0.001382  0.043369  0  3.903368  0
C  C96  1  0.20368461  0.77860275  0.43237166  1  0  0.049831  0  3.69804  0  0  0.062941  0  3.936269  0  0  0.061846  0  3.961  0  0  -0.004799  0.063635  0  3.919487  0
C  C97  1  0.79631045  0.22139823  0.56762653  1  0  0.049606  0  3.698303  0  0  0.062704  0  3.936461  0  0  0.061606  0  3.961195  0  0  -0.004841  0.063402  0  3.919673  0
C  C98  1  0.25282461  0.74971618  0.34858073  1  0  -0.098993  0  3.768826  0  0  -0.122274  0  4.027399  0  0  -0.124366  0  4.049513  0  0  -0.092541  -0.120793  0  4.012384  0
C  C99  1  0.74716671  0.25027997  0.65141668  1  0  -0.098749  0  3.768773  0  0  -0.122044  0  4.027361  0  0  -0.124131  0  4.049467  0  0  -0.09242  -0.120566  0  4.012344  0
C  C100  1  0.17521745  0.77085500  0.28952028  1  0  -0.170754  0  3.759504  0  0  -0.191193  0  4.012735  0  0  -0.19529  0  4.031486  0  0  -0.100212  -0.188309  0  4.000032  0
C  C101  1  0.82476720  0.22914190  0.71048141  1  0  -0.170809  0  3.759295  0  0  -0.191248  0  4.012517  0  0  -0.195347  0  4.031271  0  0  -0.100191  -0.188367  0  3.999806  0
C  C102  1  0.04624755  0.81994050  0.31467850  1  0  0.262728  0  3.784524  0  0  0.255504  0  4.043471  0  0  0.264554  0  4.060149  0  0  0.072553  0.249236  0  4.032174  0
C  C103  1  0.95374518  0.18005984  0.68532347  1  0  0.26265  0  3.784442  0  0  0.255413  0  4.04341  0  0  0.264463  0  4.060086  0  0  0.072482  0.249147  0  4.032112  0
C  C104  1  0.99291240  0.84885971  0.39738727  1  0  -0.160095  0  3.757877  0  0  -0.181932  0  4.009202  0  0  -0.185604  0  4.028721  0  0  -0.096891  -0.17935  0  3.995982  0
C  C105  1  0.00708270  0.15114272  0.60261671  1  0  -0.160128  0  3.757812  0  0  -0.181929  0  4.009127  0  0  -0.185615  0  4.028637  0  0  -0.096892  -0.179348  0  3.995911  0
C  C106  1  0.07287478  0.82825133  0.45584373  1  0  -0.097455  0  3.73835  0  0  -0.116327  0  3.988652  0  0  -0.118497  0  4.010341  0  0  -0.088318  -0.114733  0  3.973845  0
C  C107  1  0.92712001  0.17174693  0.54415802  1  0  -0.0974  0  3.738527  0  0  -0.116243  0  3.988799  0  0  -0.118415  0  4.010498  0  0  -0.088345  -0.114659  0  3.974001  0
C  C108  1  0.95124863  0.92621447  0.26644382  1  0  0.594134  0  3.808387  0  0  0.542169  0  4.109501  0  0  0.576133  0  4.100277  0  0  0.241298  0.519009  0  4.115527  0
C  C109  1  0.04873829  0.07378312  0.73355816  1  0  0.594201  0  3.807829  0  0  0.542118  0  4.109151  0  0  0.576102  0  4.099902  0  0  0.241244  0.518963  0  4.115171  0
C  C110  1  0.86504957  0.93065420  0.19464827  1  0  -0.11909  0  3.775814  0  0  -0.09703  0  4.017338  0  0  -0.110812  0  4.041238  0  0  -0.01077  -0.088325  0  4.001477  0
C  C111  1  0.13495065  0.06934195  0.80534979  1  0  -0.119019  0  3.775599  0  0  -0.096936  0  4.017175  0  0  -0.110724  0  4.04107  0  0  -0.01071  -0.088229  0  4.00131  0
C  C112  1  0.78057597  0.85437665  0.13457142  1  0  0.134285  0  3.678911  0  0  0.087461  0  3.935359  0  0  0.097736  0  3.951928  0  0  0.056833  0.080883  0  3.924098  0
C  C113  1  0.21941897  0.14562294  0.86542623  1  0  0.134367  0  3.678687  0  0  0.087554  0  3.935117  0  0  0.097828  0  3.951688  0  0  0.05687  0.080976  0  3.923855  0
C  C114  1  0.70263627  0.93970597  0.06382034  1  0  0.146097  0  3.676588  0  0  0.114946  0  3.918673  0  0  0.123428  0  3.937138  0  0  0.053325  0.109628  0  3.906041  0
C  C115  1  0.29737137  0.06029915  0.93617961  1  0  0.146111  0  3.676283  0  0  0.114958  0  3.918322  0  0  0.123449  0  3.936793  0  0  0.053397  0.10964  0  3.90569  0
C  C116  1  0.78321450  0.01880992  0.12127843  1  0  -0.109055  0  3.710035  0  0  -0.11699  0  3.953303  0  0  -0.126288  0  3.975505  0  0  -0.078319  -0.111196  0  3.938444  0
C  C117  1  0.21678740  0.98119389  0.87872616  1  0  -0.10922  0  3.710022  0  0  -0.117077  0  3.953304  0  0  -0.126378  0  3.975504  0  0  -0.078398  -0.111283  0  3.938442  0
C  C118  1  0.86494084  0.01456991  0.18817351  1  0  0.009305  0  3.665277  0  0  -0.018383  0  3.906127  0  0  -0.012109  0  3.923819  0  0  -0.048088  -0.022044  0  3.893974  0
C  C119  1  0.13505849  0.98542975  0.81183057  1  0  0.009298  0  3.66516  0  0  -0.01841  0  3.906017  0  0  -0.012128  0  3.923705  0  0  -0.04808  -0.02207  0  3.893862  0
Br  Br120  1  0.44223691  0.67162585  0.08215669  1  0  -0.568631  0  0.893861  0  0  -0.511202  0  1.152748  0  0  -0.528821  0  1.127364  0  0  -0.323411  -0.498708  0  1.170113  0
Br  Br121  1  0.55772220  0.32839941  0.91784733  1  0  -0.568621  0  0.893947  0  0  -0.511212  0  1.152858  0  0  -0.528828  0  1.127471  0  0  -0.323401  -0.498716  0  1.170223  0
Br  Br122  1  0.45276119  0.80328276  0.88001857  1  0  -0.560889  0  0.90995  0  0  -0.501714  0  1.169708  0  0  -0.519793  0  1.144513  0  0  -0.311312  -0.488832  0  1.186907  0
Br  Br123  1  0.54724310  0.19672162  0.11997644  1  0  -0.560924  0  0.909892  0  0  -0.501777  0  1.169648  0  0  -0.519857  0  1.144454  0  0  -0.311341  -0.488893  0  1.186846  0
Br  Br124  1  0.48804696  0.41144974  0.34255650  1  0  -0.073817  0  1.236055  0  0  -0.064539  0  1.462733  0  0  -0.070613  0  1.458209  0  0  0.024882  -0.060037  0  1.465895  0
Br  Br125  1  0.51195905  0.58855142  0.65745864  1  0  -0.073854  0  1.235862  0  0  -0.064589  0  1.462537  0  0  -0.070665  0  1.458012  0  0  0.024834  -0.06009  0  1.465699  0
Br  Br126  1  0.41295890  0.14135497  0.68042737  1  0  -0.067941  0  1.29413  0  0  -0.05582  0  1.542192  0  0  -0.062304  0  1.537645  0  0  0.047019  -0.050997  0  1.545409  0
Br  Br127  1  0.58704722  0.85864533  0.31957297  1  0  -0.067902  0  1.294231  0  0  -0.055792  0  1.542307  0  0  -0.062271  0  1.537754  0  0  0.047048  -0.05097  0  1.545527  0
N  N128  1  0.69668702  0.61996115  0.89574027  1  0  -0.32061  0  3.271132  0  0  -0.234429  0  3.5334  0  0  -0.256334  0  3.552372  0  0  -0.331678  -0.219711  0  3.520095  0
N  N129  1  0.30331854  0.38004607  0.10426165  1  0  -0.320721  0  3.271104  0  0  -0.234492  0  3.533333  0  0  -0.256396  0  3.552306  0  0  -0.331725  -0.219773  0  3.520032  0
N  N130  1  0.70101708  0.85918080  0.07065732  1  0  -0.320675  0  3.267058  0  0  -0.235043  0  3.528392  0  0  -0.256687  0  3.547508  0  0  -0.331173  -0.220495  0  3.51501  0
N  N131  1  0.29898495  0.14082361  0.92934057  1  0  -0.320805  0  3.266709  0  0  -0.235161  0  3.528028  0  0  -0.256806  0  3.547138  0  0  -0.331273  -0.220613  0  3.514647  0
O  O132  1  0.00656215  0.50759652  0.65147524  1  0  -0.49913  0  1.956029  0  0  -0.459029  0  2.170006  0  0  -0.478672  0  2.162404  0  0  -0.257285  -0.445598  0  2.174944  0
O  O133  1  0.99343599  0.49240098  0.34852103  1  0  -0.499055  0  1.956178  0  0  -0.458931  0  2.170109  0  0  -0.47857  0  2.162518  0  0  -0.257242  -0.445508  0  2.17505  0
O  O134  1  0.96429312  0.66208749  0.72619010  1  0  -0.332313  0  2.320731  0  0  -0.263429  0  2.545343  0  0  -0.284003  0  2.541802  0  0  -0.139741  -0.249219  0  2.547405  0
O  O135  1  0.03571633  0.33791282  0.27381144  1  0  -0.332178  0  2.320713  0  0  -0.263374  0  2.545373  0  0  -0.283905  0  2.541809  0  0  -0.139708  -0.249147  0  2.547415  0
O  O136  1  0.96872832  0.83645256  0.25196224  1  0  -0.338381  0  2.327856  0  0  -0.270962  0  2.554267  0  0  -0.291631  0  2.551147  0  0  -0.14341  -0.256525  0  2.556021  0
O  O137  1  0.03126210  0.16354637  0.74803683  1  0  -0.338489  0  2.327642  0  0  -0.271051  0  2.554127  0  0  -0.291725  0  2.550995  0  0  -0.143506  -0.25662  0  2.555885  0
O  O138  1  0.00121017  0.99386238  0.32956998  1  0  -0.495771  0  1.936393  0  0  -0.456163  0  2.146877  0  0  -0.475344  0  2.139689  0  0  -0.260665  -0.443061  0  2.151588  0
O  O139  1  0.99877580  0.00613730  0.67043340  1  0  -0.495748  0  1.936168  0  0  -0.456095  0  2.146728  0  0  -0.475282  0  2.139527  0  0  -0.260581  -0.442995  0  2.151441  0
