# generated using pymatgen
data_AgH8C15N5(ClO2)2
_symmetry_space_group_name_H-M   'P 1'
_cell_length_a   7.76390707
_cell_length_b   8.98410005
_cell_length_c   12.47487387
_cell_angle_alpha   101.82581791
_cell_angle_beta   100.73905923
_cell_angle_gamma   91.36824824
_symmetry_Int_Tables_number   1
_chemical_formula_structural   AgH8C15N5(ClO2)2
_chemical_formula_sum   'Ag2 H16 C30 N10 Cl4 O8'
_cell_volume   835.01432742
_cell_formula_units_Z   2
loop_
 _symmetry_equiv_pos_site_id
 _symmetry_equiv_pos_as_xyz
  1  'x, y, z'
loop_
 _atom_site_type_symbol
 _atom_site_label
 _atom_site_symmetry_multiplicity
 _atom_site_fract_x
 _atom_site_fract_y
 _atom_site_fract_z
 _atom_site_occupancy
 _atom_site_hle17_bader_spin_density
 _atom_site_hle17_ddec_charge
 _atom_site_hle17_ddec_spin_density
 _atom_site_hle17_ddec_sum_bond_order
 _atom_site_hle17_magmom
 _atom_site_hse06_10hf_bader_spin_density
 _atom_site_hse06_10hf_ddec_charge
 _atom_site_hse06_10hf_ddec_spin_density
 _atom_site_hse06_10hf_ddec_sum_bond_order
 _atom_site_hse06_10hf_magmom
 _atom_site_hse06_bader_spin_density
 _atom_site_hse06_ddec_charge
 _atom_site_hse06_ddec_spin_density
 _atom_site_hse06_ddec_sum_bond_order
 _atom_site_hse06_magmom
 _atom_site_pbe_bader_spin_density
 _atom_site_pbe_cm5_charge
 _atom_site_pbe_ddec_charge
 _atom_site_pbe_ddec_spin_density
 _atom_site_pbe_ddec_sum_bond_order
 _atom_site_pbe_magmom
Ag  Ag0  1  0.56653021  0.81549097  0.98814847  1  0  0.640224  0  1.542662  0  0  0.513761  0  2.025296  0  0  0.538835  0  1.972591  0  0  0.519617  0.496748  0  2.061866  0
Ag  Ag1  1  0.43346841  0.18450454  0.01184858  1  0  0.64017  0  1.542553  0  0  0.513696  0  2.025186  0  0  0.538776  0  1.972478  0  0  0.519572  0.496704  0  2.061714  0
H  H2  1  0.50346317  0.86872661  0.40794041  1  0  0.108364  0  0.970141  0  0  0.114184  0  1.040296  0  0  0.117622  0  1.037755  0  0  0.100815  0.111674  0  1.042173  0
H  H3  1  0.49653190  0.13127349  0.59205931  1  0  0.108358  0  0.970108  0  0  0.114187  0  1.040261  0  0  0.117622  0  1.037715  0  0  0.100819  0.111677  0  1.042139  0
H  H4  1  0.18856214  0.36368975  0.35788482  1  0  0.139855  0  0.9797  0  0  0.14518  0  1.042521  0  0  0.149345  0  1.039754  0  0  0.112482  0.142231  0  1.044567  0
H  H5  1  0.81143929  0.63630800  0.64211531  1  0  0.139855  0  0.979762  0  0  0.145186  0  1.042562  0  0  0.149352  0  1.039795  0  0  0.112483  0.142235  0  1.044613  0
H  H6  1  0.27178869  0.44082169  0.19547875  1  0  0.106073  0  0.943907  0  0  0.113927  0  1.010563  0  0  0.117404  0  1.007301  0  0  0.105269  0.111334  0  1.013035  0
H  H7  1  0.72821283  0.55917721  0.80452156  1  0  0.10606  0  0.943892  0  0  0.113905  0  1.01056  0  0  0.117362  0  1.007321  0  0  0.10525  0.111314  0  1.013033  0
H  H8  1  0.97620016  0.22294272  0.96912610  1  0  0.129753  0  0.94328  0  0  0.135683  0  1.008824  0  0  0.138907  0  1.00686  0  0  0.10736  0.13335  0  1.010251  0
H  H9  1  0.02380296  0.77705959  0.03087571  1  0  0.129718  0  0.943286  0  0  0.135651  0  1.008845  0  0  0.138874  0  1.006883  0  0  0.107344  0.133319  0  1.010271  0
H  H10  1  0.85905729  0.93034436  0.63943810  1  0  0.120065  0  0.956317  0  0  0.12562  0  1.023664  0  0  0.12949  0  1.019932  0  0  0.108943  0.122831  0  1.026339  0
H  H11  1  0.14094441  0.06965681  0.36056417  1  0  0.12004  0  0.95631  0  0  0.125597  0  1.023662  0  0  0.129467  0  1.019931  0  0  0.108935  0.122807  0  1.026339  0
H  H12  1  0.00999774  0.12201850  0.56650220  1  0  0.127168  0  0.973078  0  0  0.134884  0  1.031283  0  0  0.139078  0  1.0289  0  0  0.109812  0.131942  0  1.033043  0
H  H13  1  0.99000266  0.87798269  0.43349912  1  0  0.127107  0  0.973087  0  0  0.134862  0  1.03125  0  0  0.139056  0  1.028866  0  0  0.109802  0.131922  0  1.033007  0
H  H14  1  0.29415787  0.60842717  0.64465445  1  0  0.295172  0  0.946456  0  0  0.267695  0  1.027572  0  0  0.277013  0  1.019579  0  0  0.297866  0.26109  0  1.033244  0
H  H15  1  0.70583662  0.39156610  0.35534258  1  0  0.295138  0  0.946465  0  0  0.267678  0  1.027563  0  0  0.276996  0  1.019571  0  0  0.297855  0.261071  0  1.033229  0
H  H16  1  0.21642365  0.48873785  0.74553832  1  0  0.292303  0  0.953159  0  0  0.267107  0  1.031154  0  0  0.275927  0  1.023863  0  0  0.298121  0.260849  0  1.036303  0
H  H17  1  0.78357509  0.51125880  0.25445651  1  0  0.292249  0  0.953173  0  0  0.267051  0  1.031186  0  0  0.275871  0  1.023895  0  0  0.298093  0.260791  0  1.036336  0
C  C18  1  0.44490248  0.70779586  0.19891831  1  0  0.336936  0  3.716848  0  0  0.318982  0  3.97552  0  0  0.333832  0  3.993328  0  0  0.216251  0.308654  0  3.963799  0
C  C19  1  0.55509661  0.29220534  0.80108285  1  0  0.336995  0  3.716992  0  0  0.319043  0  3.975658  0  0  0.333892  0  3.993471  0  0  0.216308  0.308714  0  3.96394  0
C  C20  1  0.39457260  0.65997221  0.29028607  1  0  -0.005365  0  3.899974  0  0  0.014919  0  4.139532  0  0  0.008473  0  4.162169  0  0  -0.015975  0.019102  0  4.124284  0
C  C21  1  0.60542650  0.34002900  0.70971349  1  0  -0.005452  0  3.900058  0  0  0.014842  0  4.139613  0  0  0.008395  0  4.162246  0  0  -0.015994  0.019024  0  4.124366  0
C  C22  1  0.43484800  0.75787935  0.39642891  1  0  -0.126922  0  3.755966  0  0  -0.162599  0  4.00972  0  0  -0.161222  0  4.028994  0  0  -0.083208  -0.163191  0  3.996631  0
C  C23  1  0.56514858  0.24212302  0.60357052  1  0  -0.126889  0  3.755972  0  0  -0.162583  0  4.009787  0  0  -0.161195  0  4.029051  0  0  -0.083229  -0.163172  0  3.996694  0
C  C24  1  0.38668848  0.71306870  0.48696703  1  0  0.033658  0  3.750614  0  0  0.044524  0  4.020472  0  0  0.042203  0  4.041528  0  0  0.010273  0.045666  0  4.006418  0
C  C25  1  0.61330680  0.28693368  0.51303225  1  0  0.033716  0  3.750573  0  0  0.044513  0  4.020528  0  0  0.042191  0  4.041585  0  0  0.010335  0.045664  0  4.006476  0
C  C26  1  0.29953584  0.56827079  0.47634455  1  0  0.250254  0  3.751637  0  0  0.232113  0  4.00561  0  0  0.244118  0  4.02481  0  0  0.115351  0.224112  0  3.992628  0
C  C27  1  0.70046328  0.43173041  0.52365342  1  0  0.25021  0  3.751602  0  0  0.232115  0  4.005579  0  0  0.244119  0  4.024782  0  0  0.115339  0.224093  0  3.992624  0
C  C28  1  0.25895972  0.47293624  0.36861005  1  0  -0.153116  0  3.675998  0  0  -0.178834  0  3.942937  0  0  -0.185323  0  3.961145  0  0  -0.095826  -0.174798  0  3.930899  0
C  C29  1  0.74104069  0.52706495  0.63138967  1  0  -0.153133  0  3.675943  0  0  -0.178871  0  3.942904  0  0  -0.185358  0  3.961104  0  0  -0.095843  -0.174825  0  3.930877  0
C  C30  1  0.30486592  0.51738918  0.27723504  1  0  -0.036107  0  3.692195  0  0  -0.065413  0  3.949924  0  0  -0.061543  0  3.966631  0  0  -0.073815  -0.067722  0  3.9386  0
C  C31  1  0.69513571  0.48261086  0.72276466  1  0  -0.036064  0  3.692178  0  0  -0.065356  0  3.949899  0  0  -0.061469  0  3.966614  0  0  -0.073784  -0.067664  0  3.938575  0
C  C32  1  0.18225656  0.39103740  0.57807141  1  0  0.731862  0  3.808498  0  0  0.663947  0  4.109788  0  0  0.699054  0  4.105637  0  0  0.338926  0.64028  0  4.111795  0
C  C33  1  0.81773982  0.60896268  0.42192767  1  0  0.731786  0  3.808375  0  0  0.663881  0  4.109663  0  0  0.698988  0  4.105513  0  0  0.338912  0.640216  0  4.11167  0
C  C34  1  0.08079530  0.28073904  0.72424247  1  0  0.244931  0  3.765772  0  0  0.229456  0  4.013406  0  0  0.240736  0  4.034475  0  0  0.110728  0.221996  0  3.999038  0
C  C35  1  0.91920623  0.71925986  0.27575704  1  0  0.244855  0  3.76575  0  0  0.229407  0  4.013389  0  0  0.240685  0  4.034459  0  0  0.110696  0.221949  0  3.999019  0
C  C36  1  0.07033151  0.30553778  0.83906695  1  0  0.018553  0  3.778256  0  0  0.030582  0  4.050334  0  0  0.02763  0  4.071856  0  0  0.003175  0.032134  0  4.035976  0
C  C37  1  0.92966911  0.69446570  0.16093233  1  0  0.018619  0  3.778318  0  0  0.030604  0  4.050419  0  0  0.027657  0  4.071938  0  0  0.003191  0.032159  0  4.036057  0
C  C38  1  0.98266410  0.20111928  0.88092210  1  0  -0.130202  0  3.73525  0  0  -0.164842  0  3.990831  0  0  -0.162941  0  4.009001  0  0  -0.083321  -0.16577  0  3.97855  0
C  C39  1  0.01733893  0.79888188  0.11907953  1  0  -0.130211  0  3.735387  0  0  -0.164854  0  3.991001  0  0  -0.162952  0  4.009172  0  0  -0.08332  -0.165781  0  3.97872  0
C  C40  1  0.90367025  0.06566174  0.80859328  1  0  0.006975  0  3.893995  0  0  0.026752  0  4.131946  0  0  0.020386  0  4.153301  0  0  -0.007753  0.03078  0  4.117786  0
C  C41  1  0.09633146  0.93433943  0.19140900  1  0  0.007083  0  3.893807  0  0  0.026839  0  4.131777  0  0  0.020468  0  4.153132  0  0  -0.007665  0.030862  0  4.117616  0
C  C42  1  0.81418640  0.96023208  0.85213593  1  0  0.356293  0  3.696307  0  0  0.335045  0  3.955746  0  0  0.351355  0  3.971579  0  0  0.224595  0.323706  0  3.94548  0
C  C43  1  0.18582228  0.03977360  0.14786464  1  0  0.356341  0  3.696844  0  0  0.335103  0  3.956276  0  0  0.351413  0  3.97211  0  0  0.224612  0.323765  0  3.946012  0
C  C44  1  0.91535533  0.03684859  0.69519050  1  0  -0.049557  0  3.713674  0  0  -0.081203  0  3.974276  0  0  -0.077008  0  3.990374  0  0  -0.075031  -0.083714  0  3.963315  0
C  C45  1  0.08464497  0.96315146  0.30481144  1  0  -0.049577  0  3.713661  0  0  -0.081226  0  3.974292  0  0  -0.077034  0  3.990402  0  0  -0.075055  -0.083733  0  3.963328  0
C  C46  1  0.00197373  0.14287366  0.65420474  1  0  -0.159059  0  3.699943  0  0  -0.179418  0  3.95825  0  0  -0.187333  0  3.978376  0  0  -0.096348  -0.174379  0  3.944798  0
C  C47  1  0.99802536  0.85712753  0.34579643  1  0  -0.15897  0  3.699901  0  0  -0.17937  0  3.958216  0  0  -0.187283  0  3.97834  0  0  -0.096318  -0.174331  0  3.944763  0
N  N48  1  0.48879455  0.74981657  0.12504009  1  0  -0.442033  0  3.011799  0  0  -0.388529  0  3.329419  0  0  -0.404681  0  3.330703  0  0  -0.361223  -0.377998  0  3.329069  0
N  N49  1  0.51120587  0.25018462  0.87495883  1  0  -0.442031  0  3.011991  0  0  -0.388526  0  3.329616  0  0  -0.404682  0  3.330902  0  0  -0.361251  -0.377996  0  3.329268  0
N  N50  1  0.26015366  0.52860787  0.57063926  1  0  -0.477854  0  3.333693  0  0  -0.4196  0  3.577605  0  0  -0.443642  0  3.584277  0  0  -0.39833  -0.403149  0  3.572728  0
N  N51  1  0.73984637  0.47138877  0.42935894  1  0  -0.47778  0  3.333741  0  0  -0.419533  0  3.577601  0  0  -0.443575  0  3.584272  0  0  -0.398324  -0.403072  0  3.572721  0
N  N52  1  0.16623439  0.39136916  0.68724640  1  0  -0.483742  0  3.349378  0  0  -0.425737  0  3.591199  0  0  -0.449568  0  3.598019  0  0  -0.399596  -0.409204  0  3.5859  0
N  N53  1  0.83376575  0.60862862  0.31275117  1  0  -0.483653  0  3.349281  0  0  -0.425658  0  3.591101  0  0  -0.449492  0  3.597927  0  0  -0.399543  -0.409124  0  3.58579  0
N  N54  1  0.73742913  0.87758395  0.89021886  1  0  -0.440232  0  2.983862  0  0  -0.383705  0  3.29862  0  0  -0.400817  0  3.298967  0  0  -0.361644  -0.372508  0  3.298905  0
N  N55  1  0.26256833  0.12241384  0.10978561  1  0  -0.440242  0  2.984496  0  0  -0.383713  0  3.299236  0  0  -0.400828  0  3.299587  0  0  -0.361646  -0.372518  0  3.29952  0
N  N56  1  0.21792604  0.76655424  0.82396072  1  0  0.67954  0  4.162296  0  0  0.721802  0  4.436256  0  0  0.750809  0  4.441711  0  0  0.084004  0.702234  0  4.432024  0
N  N57  1  0.78207567  0.23344694  0.17603995  1  0  0.679631  0  4.162176  0  0  0.721926  0  4.436104  0  0  0.750932  0  4.441557  0  0  0.08408  0.702355  0  4.431876  0
Cl  Cl58  1  0.43606914  0.83820900  0.61544038  1  0  -0.038688  0  1.391268  0  0  -0.012067  0  1.617298  0  0  -0.01697  0  1.614182  0  0  0.041594  -0.008428  0  1.619522  0
Cl  Cl59  1  0.56392724  0.16179109  0.38456030  1  0  -0.038716  0  1.391252  0  0  -0.012073  0  1.617315  0  0  -0.016978  0  1.614201  0  0  0.04157  -0.008436  0  1.619535  0
Cl  Cl60  1  0.17251891  0.46819236  0.93102047  1  0  -0.070061  0  1.486324  0  0  -0.051495  0  1.749571  0  0  -0.056023  0  1.744615  0  0  0.024378  -0.048179  0  1.753119  0
Cl  Cl61  1  0.82748432  0.53181109  0.06897992  1  0  -0.070105  0  1.4863  0  0  -0.051519  0  1.749557  0  0  -0.056048  0  1.744598  0  0  0.024353  -0.048202  0  1.753105  0
O  O62  1  0.13513207  0.28234105  0.49860594  1  0  -0.560201  0  1.936704  0  0  -0.509383  0  2.150701  0  0  -0.530696  0  2.143678  0  0  -0.282832  -0.494721  0  2.155166  0
O  O63  1  0.86486692  0.71765901  0.50139504  1  0  -0.5602  0  1.936648  0  0  -0.509392  0  2.150644  0  0  -0.530704  0  2.143618  0  0  -0.282853  -0.494732  0  2.155111  0
O  O64  1  0.24333248  0.87215364  0.91084010  1  0  -0.480985  0  1.827613  0  0  -0.471403  0  2.073193  0  0  -0.489879  0  2.065342  0  0  -0.19962  -0.458271  0  2.078267  0
O  O65  1  0.75666782  0.12784641  0.08916184  1  0  -0.480983  0  1.827532  0  0  -0.471425  0  2.073117  0  0  -0.489901  0  2.065266  0  0  -0.199646  -0.458293  0  2.078191  0
O  O66  1  0.34602255  0.68143700  0.80462529  1  0  -0.541568  0  1.874004  0  0  -0.522471  0  2.113448  0  0  -0.540855  0  2.104212  0  0  -0.221982  -0.509443  0  2.119342  0
O  O67  1  0.65397786  0.31856419  0.19537523  1  0  -0.541612  0  1.873924  0  0  -0.522542  0  2.113386  0  0  -0.540921  0  2.104138  0  0  -0.222039  -0.509516  0  2.119282  0
O  O68  1  0.07360598  0.74108029  0.75769001  1  0  -0.422284  0  1.786153  0  0  -0.419435  0  2.000073  0  0  -0.433686  0  1.996314  0  0  -0.173051  -0.409224  0  2.00228  0
O  O69  1  0.92639695  0.25891973  0.24231144  1  0  -0.422314  0  1.786183  0  0  -0.419473  0  2.000093  0  0  -0.433722  0  1.996329  0  0  -0.173047  -0.40926  0  2.002294  0
