# generated using pymatgen
data_Cd3H30C44(NO2)8
_symmetry_space_group_name_H-M   'P 1'
_cell_length_a   7.59707464
_cell_length_b   9.68353170
_cell_length_c   15.09733322
_cell_angle_alpha   74.30243155
_cell_angle_beta   79.62741432
_cell_angle_gamma   82.67471051
_symmetry_Int_Tables_number   1
_chemical_formula_structural   Cd3H30C44(NO2)8
_chemical_formula_sum   'Cd3 H30 C44 N8 O16'
_cell_volume   1048.11384011
_cell_formula_units_Z   1
loop_
 _symmetry_equiv_pos_site_id
 _symmetry_equiv_pos_as_xyz
  1  'x, y, z'
loop_
 _atom_site_type_symbol
 _atom_site_label
 _atom_site_symmetry_multiplicity
 _atom_site_fract_x
 _atom_site_fract_y
 _atom_site_fract_z
 _atom_site_occupancy
 _atom_site_pbe_bader_spin_density
 _atom_site_pbe_cm5_charge
 _atom_site_pbe_ddec_charge
 _atom_site_pbe_ddec_spin_density
 _atom_site_pbe_ddec_sum_bond_order
 _atom_site_pbe_magmom
Cd  Cd0  1  0.49999904  0.50000101  0.00000012  1  0  0.786233  1.074538  0  2.073624  0
Cd  Cd1  1  0.85196406  0.45075994  0.24672440  1  0  0.774095  0.938038  0  2.137763  0
Cd  Cd2  1  0.14803652  0.54923987  0.75327400  1  0  0.774103  0.938041  0  2.137719  0
H  H3  1  0.03656918  0.89623612  0.05506202  1  0  0.104551  0.106782  0  1.007663  0
H  H4  1  0.96342630  0.10376152  0.94493922  1  0  0.104512  0.106697  0  1.007767  0
H  H5  1  0.78600949  0.41458845  0.67261047  1  0  0.116379  0.138098  0  1.00393  0
H  H6  1  0.21398952  0.58541351  0.32738770  1  0  0.116398  0.138132  0  1.003961  0
H  H7  1  0.63783094  0.61346119  0.39908425  1  0  0.116506  0.092602  0  1.001042  0
H  H8  1  0.36216720  0.38653646  0.60091476  1  0  0.116492  0.092589  0  1.000999  0
H  H9  1  0.59997947  0.60533261  0.57026781  1  0  0.10988  0.12331  0  0.983781  0
H  H10  1  0.40001709  0.39466718  0.42973030  1  0  0.109849  0.123277  0  0.983771  0
H  H11  1  0.61671449  0.90181689  0.15836027  1  0  0.102359  0.100485  0  1.050509  0
H  H12  1  0.38328573  0.09818615  0.84163628  1  0  0.102345  0.100526  0  1.050501  0
H  H13  1  0.35952383  0.94637434  0.46334249  1  0  0.106765  0.107477  0  0.987624  0
H  H14  1  0.64047422  0.05362438  0.53665964  1  0  0.106752  0.107448  0  0.987688  0
H  H15  1  0.13715093  0.16235670  0.21289817  1  0  0.117739  0.091822  0  1.035717  0
H  H16  1  0.86284758  0.83763772  0.78710335  1  0  0.117743  0.091835  0  1.035743  0
H  H17  1  0.15151662  0.13081833  0.04619407  1  0  0.10387  0.108048  0  1.014753  0
H  H18  1  0.84848140  0.86918040  0.95380409  1  0  0.103906  0.108065  0  1.014748  0
H  H19  1  0.34533219  0.96697160  0.29537027  1  0  0.112069  0.121845  0  1.007551  0
H  H20  1  0.65466586  0.03302712  0.70463186  1  0  0.112059  0.121814  0  1.007533  0
H  H21  1  0.33901151  0.95652331  0.62988887  1  0  0.31729  0.280252  0  0.96684  0
H  H22  1  0.66098908  0.04347650  0.37011085  1  0  0.317258  0.280179  0  0.966968  0
H  H23  1  0.22143031  0.02223749  0.77987688  1  0  0.135211  0.105682  0  1.021358  0
H  H24  1  0.77857028  0.97776232  0.22012219  1  0  0.135209  0.10567  0  1.021378  0
H  H25  1  0.88774808  0.36330244  0.06914382  1  0  0.295988  0.397915  0  0.926494  0
H  H26  1  0.11225275  0.63669521  0.93085692  1  0  0.296023  0.397976  0  0.926403  0
H  H27  1  0.05989027  0.42432939  0.08485811  1  0  0.289659  0.382877  0  0.953583  0
H  H28  1  0.94011067  0.57566719  0.91514215  1  0  0.289646  0.382861  0  0.953609  0
H  H29  1  0.61460622  0.24527811  0.22588686  1  0  0.289827  0.405151  0  0.925079  0
H  H30  1  0.38538672  0.75471844  0.77411745  1  0  0.289884  0.405276  0  0.924918  0
H  H31  1  0.77982185  0.19686163  0.27627025  1  0  0.297422  0.352073  0  0.973962  0
H  H32  1  0.22017364  0.80313600  0.72373231  1  0  0.297424  0.352051  0  0.973961  0
C  C33  1  0.39177202  0.03240371  0.10230095  1  0  -0.022568  -0.048085  0  3.978864  0
C  C34  1  0.60822821  0.96759933  0.89769626  1  0  -0.022588  -0.048176  0  3.979024  0
C  C35  1  0.16544345  0.89814143  0.07660306  1  0  -0.085241  -0.10042  0  3.960297  0
C  C36  1  0.83455616  0.10185514  0.92339732  1  0  -0.085174  -0.100253  0  3.96024  0
C  C37  1  0.54626370  0.63634097  0.17235052  1  0  0.206128  0.589829  0  4.189499  0
C  C38  1  0.45374054  0.36366208  0.82764632  1  0  0.206146  0.589744  0  4.189341  0
C  C39  1  0.18177536  0.62890157  0.12052259  1  0  0.220063  0.599342  0  4.186176  0
C  C40  1  0.81822572  0.37109393  0.87947982  1  0  0.220095  0.599327  0  4.186159  0
C  C41  1  0.04156460  0.23147480  0.41854656  1  0  0.115149  0.121436  0  3.968508  0
C  C42  1  0.95843600  0.76852501  0.58145449  1  0  0.115176  0.1215  0  3.968437  0
C  C43  1  0.16061804  0.12698805  0.47020146  1  0  -0.004451  -0.018299  0  4.052786  0
C  C44  1  0.83937988  0.87301175  0.52979918  1  0  -0.004422  -0.018323  0  4.052694  0
C  C45  1  0.42769792  0.76986732  0.14020833  1  0  -0.017181  -0.063302  0  3.957262  0
C  C46  1  0.57230254  0.23013357  0.85978923  1  0  -0.017175  -0.063251  0  3.957212  0
C  C47  1  0.79091434  0.42041788  0.59893867  1  0  -0.058635  -0.049844  0  3.86764  0
C  C48  1  0.20908856  0.57958516  0.40105896  1  0  -0.058705  -0.049942  0  3.867633  0
C  C49  1  0.71087396  0.53073162  0.44700554  1  0  0.049289  0.091227  0  3.980078  0
C  C50  1  0.28912796  0.46926820  0.55299340  1  0  0.049286  0.091226  0  3.980023  0
C  C51  1  0.69107847  0.52568793  0.54221157  1  0  -0.083959  -0.133927  0  3.994431  0
C  C52  1  0.30892310  0.47431511  0.45778685  1  0  -0.083931  -0.133868  0  3.994419  0
C  C53  1  0.48840603  0.90201785  0.13623042  1  0  -0.081151  -0.107938  0  3.963503  0
C  C54  1  0.51159419  0.09798519  0.86376613  1  0  -0.081147  -0.107948  0  3.963461  0
C  C55  1  0.27179249  0.03061638  0.42476849  1  0  -0.076756  -0.093537  0  3.969539  0
C  C56  1  0.72820555  0.96938235  0.57523299  1  0  -0.07673  -0.093461  0  3.969602  0
C  C57  1  0.14637554  0.14878093  0.28602011  1  0  0.054701  0.108802  0  3.908247  0
C  C58  1  0.85361982  0.85121778  0.71398095  1  0  0.054637  0.108688  0  3.908345  0
C  C59  1  0.22866580  0.02925205  0.07193643  1  0  -0.079195  -0.082147  0  3.95646  0
C  C60  1  0.77133209  0.97074776  0.92806024  1  0  -0.079235  -0.08219  0  3.956567  0
C  C61  1  0.46327085  0.17199309  0.10010235  1  0  0.203097  0.577604  0  4.235139  0
C  C62  1  0.53672551  0.82800885  0.89989872  1  0  0.203084  0.577611  0  4.235065  0
C  C63  1  0.26415246  0.04074266  0.33252224  1  0  -0.076906  -0.101925  0  3.958153  0
C  C64  1  0.73584534  0.95925822  0.66747822  1  0  -0.076919  -0.101906  0  3.958118  0
C  C65  1  0.91950872  0.33136300  0.46266271  1  0  0.111256  0.108968  0  3.98731  0
C  C66  1  0.08049541  0.66864113  0.53733661  1  0  0.111201  0.108944  0  3.98725  0
C  C67  1  0.02680915  0.21369601  0.61021015  1  0  0.085399  0.076646  0  4.096345  0
C  C68  1  0.97319499  0.78630812  0.38978916  1  0  0.085417  0.076665  0  4.096352  0
C  C69  1  0.15149703  0.12540662  0.56525372  1  0  0.081869  0.064398  0  4.071442  0
C  C70  1  0.84850345  0.87459427  0.43474650  1  0  0.081904  0.064492  0  4.071455  0
C  C71  1  0.17246543  0.07850420  0.71502972  1  0  0.150573  0.166533  0  3.932315  0
C  C72  1  0.82753516  0.92149561  0.28497067  1  0  0.150617  0.166613  0  3.932416  0
C  C73  1  0.26346414  0.76743933  0.11034014  1  0  0.000109  -0.023018  0  3.920597  0
C  C74  1  0.73653524  0.23255940  0.88966055  1  0  8.1e-05  -0.023086  0  3.920542  0
C  C75  1  0.90932001  0.32094428  0.55937039  1  0  0.002477  -0.007601  0  3.993502  0
C  C76  1  0.09068535  0.67906093  0.44062795  1  0  0.002513  -0.007647  0  3.993363  0
N  N77  1  0.81990695  0.43618956  0.40891737  1  0  -0.323806  -0.275513  0  3.500516  0
N  N78  1  0.18009584  0.56381456  0.59108074  1  0  -0.323763  -0.275465  0  3.500456  0
N  N79  1  0.03880947  0.23987849  0.32784580  1  0  -0.316923  -0.276847  0  3.461355  0
N  N80  1  0.96118723  0.76012023  0.67215447  1  0  -0.316901  -0.276811  0  3.461372  0
N  N81  1  0.24606188  0.04181863  0.63325338  1  0  -0.39154  -0.28102  0  3.659308  0
N  N82  1  0.75393762  0.95817903  0.36674815  1  0  -0.39154  -0.281001  0  3.659458  0
N  N83  1  0.04118113  0.18212062  0.70334267  1  0  -0.323353  -0.31537  0  3.233555  0
N  N84  1  0.95882179  0.81788243  0.29665694  1  0  -0.323368  -0.315405  0  3.233662  0
O  O85  1  0.54260615  0.52508037  0.14374301  1  0  -0.327934  -0.576051  0  2.281934  0
O  O86  1  0.45739433  0.47492052  0.85625787  1  0  -0.327922  -0.576003  0  2.281915  0
O  O87  1  0.66235664  0.25037879  0.28320262  1  0  -0.586822  -0.753276  0  2.049955  0
O  O88  1  0.33764130  0.74962101  0.71680000  1  0  -0.586869  -0.753348  0  2.049905  0
O  O89  1  0.96384751  0.35867479  0.11654860  1  0  -0.582472  -0.752288  0  2.093909  0
O  O90  1  0.03615344  0.64132179  0.88345232  1  0  -0.582495  -0.752333  0  2.093851  0
O  O91  1  0.38494284  0.28663652  0.05382461  1  0  -0.330815  -0.570562  0  2.303756  0
O  O92  1  0.61505074  0.71336649  0.94617852  1  0  -0.330779  -0.570524  0  2.303793  0
O  O93  1  0.65172508  0.64260291  0.22848101  1  0  -0.330573  -0.548371  0  2.239351  0
O  O94  1  0.34828304  0.35740123  0.77151330  1  0  -0.330618  -0.548402  0  2.239213  0
O  O95  1  0.59212276  0.16590641  0.14428135  1  0  -0.333924  -0.588189  0  2.205681  0
O  O96  1  0.40787006  0.83409122  0.85572212  1  0  -0.333944  -0.588233  0  2.205572  0
O  O97  1  0.18379276  0.58380160  0.04768898  1  0  -0.317028  -0.593061  0  2.272778  0
O  O98  1  0.81620395  0.41619712  0.95231328  1  0  -0.317058  -0.593032  0  2.272783  0
O  O99  1  0.11097785  0.56763565  0.20166809  1  0  -0.311595  -0.533913  0  2.301045  0
O  O100  1  0.88902771  0.43235556  0.79833466  1  0  -0.311596  -0.533912  0  2.301032  0
