# generated using pymatgen
data_CuBH10(C3N2)3
_symmetry_space_group_name_H-M   'P 1'
_cell_length_a   8.98687082
_cell_length_b   9.21564390
_cell_length_c   15.69681075
_cell_angle_alpha   103.54512212
_cell_angle_beta   90.93182409
_cell_angle_gamma   116.04828120
_symmetry_Int_Tables_number   1
_chemical_formula_structural   CuBH10(C3N2)3
_chemical_formula_sum   'Cu4 B4 H40 C36 N24'
_cell_volume   1124.86405709
_cell_formula_units_Z   4
loop_
 _symmetry_equiv_pos_site_id
 _symmetry_equiv_pos_as_xyz
  1  'x, y, z'
loop_
 _atom_site_type_symbol
 _atom_site_label
 _atom_site_symmetry_multiplicity
 _atom_site_fract_x
 _atom_site_fract_y
 _atom_site_fract_z
 _atom_site_occupancy
 _atom_site_hle17_bader_spin_density
 _atom_site_hle17_ddec_charge
 _atom_site_hle17_ddec_spin_density
 _atom_site_hle17_ddec_sum_bond_order
 _atom_site_hle17_magmom
 _atom_site_hse06_10hf_bader_spin_density
 _atom_site_hse06_10hf_ddec_charge
 _atom_site_hse06_10hf_ddec_spin_density
 _atom_site_hse06_10hf_ddec_sum_bond_order
 _atom_site_hse06_10hf_magmom
 _atom_site_hse06_bader_spin_density
 _atom_site_hse06_ddec_charge
 _atom_site_hse06_ddec_spin_density
 _atom_site_hse06_ddec_sum_bond_order
 _atom_site_hse06_magmom
 _atom_site_pbe_bader_spin_density
 _atom_site_pbe_cm5_charge
 _atom_site_pbe_ddec_charge
 _atom_site_pbe_ddec_spin_density
 _atom_site_pbe_ddec_sum_bond_order
 _atom_site_pbe_magmom
Cu  Cu0  1  0.30222069  0.94309778  0.98178569  1  0  0.400012  0  1.898539  0  0  0.259792  0  2.393435  0  0  0.271227  0  2.341423  0  0  0.504933  0.254541  0  2.426921  0
Cu  Cu1  1  0.69778003  0.05690042  0.01821336  1  0  0.39996  0  1.898608  0  0  0.259759  0  2.393485  0  0  0.271206  0  2.341542  0  0  0.504932  0.254505  0  2.426993  0
Cu  Cu2  1  0.87037521  0.75881390  0.42719453  1  0  0.402159  0  1.856566  0  0  0.267689  0  2.327729  0  0  0.278144  0  2.279932  0  0  0.508081  0.263472  0  2.358455  0
Cu  Cu3  1  0.12962553  0.24118682  0.57280360  1  0  0.402219  0  1.856511  0  0  0.26774  0  2.327721  0  0  0.278199  0  2.279876  0  0  0.508109  0.263513  0  2.358427  0
B  B4  1  0.41971989  0.87454138  0.63754276  1  0  0.545374  0  3.164336  0  0  0.371021  0  3.481356  0  0  0.390911  0  3.482242  0  0  -0.058111  0.357178  0  3.481676  0
B  B5  1  0.58027917  0.12545808  0.36245517  1  0  0.545357  0  3.164279  0  0  0.370982  0  3.481313  0  0  0.390836  0  3.48225  0  0  -0.058128  0.357134  0  3.481643  0
B  B6  1  0.31787145  0.53336432  0.18634237  1  0  0.545427  0  3.159854  0  0  0.370065  0  3.47736  0  0  0.389982  0  3.477988  0  0  -0.05648  0.357114  0  3.476914  0
B  B7  1  0.68212816  0.46663638  0.81365765  1  0  0.545377  0  3.159973  0  0  0.370091  0  3.477447  0  0  0.390014  0  3.478052  0  0  -0.056486  0.357138  0  3.477001  0
H  H8  1  0.48819182  0.61176367  0.35893692  1  0  0.075537  0  0.96618  0  0  0.080677  0  1.042129  0  0  0.082784  0  1.039971  0  0  0.12742  0.079288  0  1.043464  0
H  H9  1  0.51181115  0.38823955  0.64106285  1  0  0.075552  0  0.96626  0  0  0.080692  0  1.042179  0  0  0.0828  0  1.04002  0  0  0.127431  0.079302  0  1.043516  0
H  H10  1  0.42652371  0.05795655  0.81136390  1  0  0.08194  0  0.976481  0  0  0.088393  0  1.046301  0  0  0.090297  0  1.04472  0  0  0.127391  0.08721  0  1.046994  0
H  H11  1  0.57347703  0.94204416  0.18863486  1  0  0.081933  0  0.976504  0  0  0.088396  0  1.046308  0  0  0.0903  0  1.044725  0  0  0.127392  0.087215  0  1.047003  0
H  H12  1  0.16055376  0.94420887  0.58317390  1  0  0.080901  0  0.955155  0  0  0.086994  0  1.029469  0  0  0.090987  0  1.02392  0  0  0.127092  0.084033  0  1.033307  0
H  H13  1  0.83944303  0.05578805  0.41682621  1  0  0.080895  0  0.955114  0  0  0.086945  0  1.029462  0  0  0.090937  0  1.023918  0  0  0.127084  0.083987  0  1.033297  0
H  H14  1  0.05041456  0.51897556  0.37109658  1  0  0.092682  0  0.971401  0  0  0.101977  0  1.036316  0  0  0.104303  0  1.035729  0  0  0.108963  0.100251  0  1.037002  0
H  H15  1  0.94958672  0.48102390  0.62890265  1  0  0.092681  0  0.97142  0  0  0.101993  0  1.036313  0  0  0.104318  0  1.035726  0  0  0.10897  0.100264  0  1.037001  0
H  H16  1  0.59646680  0.88715496  0.48806538  1  0  0.08038  0  0.953912  0  0  0.090285  0  1.019193  0  0  0.092184  0  1.017357  0  0  0.130849  0.088857  0  1.020562  0
H  H17  1  0.40352834  0.11284072  0.51193198  1  0  0.080384  0  0.953981  0  0  0.090291  0  1.019256  0  0  0.092187  0  1.017424  0  0  0.130855  0.088864  0  1.020625  0
H  H18  1  0.06467026  0.07875389  0.92789236  1  0  0.097445  0  0.957756  0  0  0.110258  0  1.012172  0  0  0.112765  0  1.011364  0  0  0.113396  0.108452  0  1.013011  0
H  H19  1  0.93532760  0.92124049  0.07211186  1  0  0.097424  0  0.957724  0  0  0.110219  0  1.012168  0  0  0.112725  0  1.011363  0  0  0.113388  0.108433  0  1.012983  0
H  H20  1  0.35649069  0.64846919  0.02531515  1  0  0.08012  0  0.948577  0  0  0.088826  0  1.016932  0  0  0.091436  0  1.013674  0  0  0.128322  0.086927  0  1.01923  0
H  H21  1  0.64350556  0.35152898  0.97468448  1  0  0.080116  0  0.948579  0  0  0.088823  0  1.01693  0  0  0.091431  0  1.013673  0  0  0.128328  0.086929  0  1.019222  0
H  H22  1  0.05686013  0.35897386  0.03607715  1  0  0.105844  0  0.963877  0  0  0.115015  0  1.025441  0  0  0.11814  0  1.023678  0  0  0.117453  0.112624  0  1.027201  0
H  H23  1  0.94313663  0.64102053  0.96392578  1  0  0.105806  0  0.9639  0  0  0.115067  0  1.025355  0  0  0.118194  0  1.023585  0  0  0.117433  0.112674  0  1.027116  0
H  H24  1  0.47005133  0.30972373  0.13266603  1  0  0.079075  0  0.978125  0  0  0.084305  0  1.052053  0  0  0.086731  0  1.049969  0  0  0.123571  0.082837  0  1.053018  0
H  H25  1  0.52995106  0.69027823  0.86733483  1  0  0.079104  0  0.978106  0  0  0.084334  0  1.05203  0  0  0.08676  0  1.049945  0  0  0.123595  0.082867  0  1.052993  0
H  H26  1  0.24172641  0.54643392  0.67505255  1  0  0.091307  0  0.995869  0  0  0.095204  0  1.07576  0  0  0.100618  0  1.06973  0  0  0.106393  0.090994  0  1.080727  0
H  H27  1  0.75827207  0.45356427  0.32494647  1  0  0.091351  0  0.995848  0  0  0.095247  0  1.075731  0  0  0.100662  0  1.0697  0  0  0.106405  0.091032  0  1.080705  0
H  H28  1  0.62889098  0.67080334  0.10907943  1  0  0.100424  0  0.981475  0  0  0.10983  0  1.045859  0  0  0.111572  0  1.04651  0  0  0.115024  0.108281  0  1.045961  0
H  H29  1  0.37110642  0.32919736  0.89091866  1  0  0.100455  0  0.981485  0  0  0.109865  0  1.045856  0  0  0.111607  0  1.046506  0  0  0.115022  0.108315  0  1.045959  0
H  H30  1  0.17044025  0.96283896  0.17130935  1  0  0.091221  0  0.965914  0  0  0.103892  0  1.023427  0  0  0.106015  0  1.02335  0  0  0.111648  0.102125  0  1.024317  0
H  H31  1  0.82956439  0.03716551  0.82869189  1  0  0.091215  0  0.965914  0  0  0.103878  0  1.02343  0  0  0.106002  0  1.02335  0  0  0.111635  0.102112  0  1.024317  0
H  H32  1  0.31893821  0.57444079  0.48613426  1  0  0.098669  0  0.973586  0  0  0.108566  0  1.037859  0  0  0.111351  0  1.036352  0  0  0.115715  0.106449  0  1.03905  0
H  H33  1  0.68106251  0.42555991  0.51386578  1  0  0.098672  0  0.973576  0  0  0.108567  0  1.03785  0  0  0.111352  0  1.036342  0  0  0.115719  0.10645  0  1.039042  0
H  H34  1  0.61786069  0.75587598  0.72623222  1  0  0.100059  0  0.97845  0  0  0.10767  0  1.04665  0  0  0.110131  0  1.045837  0  0  0.116084  0.105561  0  1.047871  0
H  H35  1  0.38214340  0.24412726  0.27376693  1  0  0.100062  0  0.978502  0  0  0.107665  0  1.046695  0  0  0.110133  0  1.045875  0  0  0.116105  0.105558  0  1.04791  0
H  H36  1  0.18278526  0.75204803  0.26976885  1  0  0.11093  0  0.949708  0  0  0.121441  0  1.010865  0  0  0.12468  0  1.008608  0  0  0.123025  0.119247  0  1.012189  0
H  H37  1  0.81721435  0.24795516  0.73023215  1  0  0.110941  0  0.949703  0  0  0.121449  0  1.010862  0  0  0.124687  0  1.008606  0  0  0.123032  0.119253  0  1.012183  0
H  H38  1  0.86328154  0.72151066  0.63069003  1  0  0.096722  0  0.96282  0  0  0.109234  0  1.018729  0  0  0.111478  0  1.018656  0  0  0.111418  0.107619  0  1.018909  0
H  H39  1  0.13672312  0.27849134  0.36930832  1  0  0.096722  0  0.962802  0  0  0.109233  0  1.018712  0  0  0.111478  0  1.018639  0  0  0.111442  0.107618  0  1.018893  0
H  H40  1  0.17482303  0.57315804  0.84810743  1  0  0.092597  0  0.961018  0  0  0.102931  0  1.02115  0  0  0.105043  0  1.021322  0  0  0.108925  0.10123  0  1.021386  0
H  H41  1  0.82517381  0.42684390  0.15189146  1  0  0.092634  0  0.961021  0  0  0.102964  0  1.021144  0  0  0.105082  0  1.02131  0  0  0.108953  0.101262  0  1.02138  0
H  H42  1  0.91312418  0.80412838  0.23025071  1  0  0.090368  0  0.984239  0  0  0.099872  0  1.048067  0  0  0.102273  0  1.047277  0  0  0.109274  0.097862  0  1.049162  0
H  H43  1  0.08687546  0.19587235  0.76974613  1  0  0.090411  0  0.984195  0  0  0.099911  0  1.048014  0  0  0.102312  0  1.047226  0  0  0.109285  0.097901  0  1.049109  0
H  H44  1  0.46520012  0.02441396  0.65376801  1  0  -0.219929  0  0.912085  0  0  -0.184098  0  1.009445  0  0  -0.189032  0  1.009681  0  0  0.049197  -0.180516  0  1.00896  0
H  H45  1  0.53480004  0.97558549  0.34623121  1  0  -0.219919  0  0.912109  0  0  -0.184079  0  1.009451  0  0  -0.189011  0  1.009697  0  0  0.049211  -0.180492  0  1.008962  0
H  H46  1  0.23698073  0.49253691  0.24533755  1  0  -0.218197  0  0.906181  0  0  -0.17869  0  0.996111  0  0  -0.183172  0  0.995752  0  0  0.04968  -0.176667  0  0.996737  0
H  H47  1  0.76301885  0.50746376  0.75466438  1  0  -0.218174  0  0.906189  0  0  -0.178693  0  0.996128  0  0  -0.183176  0  0.995768  0  0  0.049677  -0.17667  0  0.996753  0
C  C48  1  0.56739018  0.64738872  0.30860869  1  0  0.189986  0  3.682298  0  0  0.133934  0  3.943937  0  0  0.147305  0  3.957259  0  0  0.139539  0.125411  0  3.934679  0
C  C49  1  0.43261166  0.35260950  0.69138974  1  0  0.189936  0  3.682336  0  0  0.133908  0  3.943991  0  0  0.147278  0  3.957315  0  0  0.139567  0.125385  0  3.934729  0
C  C50  1  0.36789531  0.92305337  0.79943551  1  0  0.200883  0  3.677595  0  0  0.147373  0  3.931186  0  0  0.160629  0  3.944976  0  0  0.141181  0.139097  0  3.920682  0
C  C51  1  0.63210710  0.07694611  0.20056309  1  0  0.200866  0  3.67758  0  0  0.147322  0  3.931152  0  0  0.160582  0  3.944935  0  0  0.141178  0.139044  0  3.920655  0
C  C52  1  0.16502632  0.83520456  0.54064114  1  0  0.184011  0  3.676329  0  0  0.131415  0  3.932193  0  0  0.143956  0  3.944553  0  0  0.1362  0.123291  0  3.923735  0
C  C53  1  0.83497272  0.16479488  0.45935870  1  0  0.184052  0  3.676391  0  0  0.131479  0  3.93226  0  0  0.144021  0  3.944616  0  0  0.136201  0.123354  0  3.923805  0
C  C54  1  0.11342078  0.61648753  0.43204666  1  0  -0.020978  0  3.774879  0  0  -0.051142  0  4.037701  0  0  -0.050767  0  4.059029  0  0  -0.016804  -0.051491  0  4.023641  0
C  C55  1  0.88658050  0.38351192  0.56795321  1  0  -0.021015  0  3.774916  0  0  -0.051203  0  4.03775  0  0  -0.050829  0  4.059081  0  0  -0.01683  -0.05155  0  4.023687  0
C  C56  1  0.63713207  0.84603364  0.53917255  1  0  0.182295  0  3.692318  0  0  0.129619  0  3.946476  0  0  0.141832  0  3.959757  0  0  0.135092  0.121534  0  3.937655  0
C  C57  1  0.36286586  0.15396330  0.46082565  1  0  0.182292  0  3.692422  0  0  0.129634  0  3.946579  0  0  0.141834  0  3.959849  0  0  0.13509  0.121551  0  3.937755  0
C  C58  1  0.14851960  0.16883941  0.98646631  1  0  -0.026688  0  3.790901  0  0  -0.053484  0  4.051377  0  0  -0.052666  0  4.070645  0  0  -0.016828  -0.054511  0  4.038796  0
C  C59  1  0.85147713  0.83115246  0.01353754  1  0  -0.026525  0  3.790728  0  0  -0.053305  0  4.051196  0  0  -0.052488  0  4.070475  0  0  -0.016791  -0.054348  0  4.038608  0
C  C60  1  0.30603569  0.70510119  0.07780280  1  0  0.168962  0  3.696253  0  0  0.113836  0  3.958775  0  0  0.126825  0  3.969787  0  0  0.131312  0.105597  0  3.951246  0
C  C61  1  0.69396673  0.29490328  0.92219714  1  0  0.168965  0  3.696369  0  0  0.11384  0  3.95889  0  0  0.126832  0  3.969903  0  0  0.131297  0.105596  0  3.95136  0
C  C62  1  0.14424299  0.30818426  0.03966504  1  0  -0.041018  0  3.719709  0  0  -0.077615  0  3.972489  0  0  -0.076008  0  3.99118  0  0  -0.002458  -0.079123  0  3.960779  0
C  C63  1  0.85575209  0.69180887  0.96033706  1  0  -0.041148  0  3.719658  0  0  -0.077779  0  3.972453  0  0  -0.076171  0  3.99114  0  0  -0.002446  -0.079285  0  3.960748  0
C  C64  1  0.35842564  0.28349360  0.09135086  1  0  0.166585  0  3.675498  0  0  0.114894  0  3.930976  0  0  0.1279  0  3.942848  0  0  0.125647  0.107688  0  3.922054  0
C  C65  1  0.64157619  0.71650710  0.90865046  1  0  0.166575  0  3.675511  0  0  0.114924  0  3.931007  0  0  0.127932  0  3.94288  0  0  0.12566  0.107719  0  3.922087  0
C  C66  1  0.27027840  0.65646977  0.72927449  1  0  -0.029529  0  3.702697  0  0  -0.063497  0  3.952627  0  0  -0.063349  0  3.972837  0  0  -0.003548  -0.064174  0  3.940096  0
C  C67  1  0.72972178  0.34352968  0.27072409  1  0  -0.029639  0  3.702792  0  0  -0.063642  0  3.952707  0  0  -0.063491  0  3.972909  0  0  -0.003582  -0.064317  0  3.940185  0
C  C68  1  0.64202439  0.67814189  0.17889657  1  0  -0.041459  0  3.724878  0  0  -0.079094  0  3.981174  0  0  -0.078776  0  4.003695  0  0  -0.002149  -0.07885  0  3.965265  0
C  C69  1  0.35797468  0.32186006  0.82110234  1  0  -0.041507  0  3.724935  0  0  -0.079128  0  3.981238  0  0  -0.078809  0  4.003761  0  0  -0.00214  -0.078885  0  3.96533  0
C  C70  1  0.20900873  0.86461256  0.15494371  1  0  -0.026501  0  3.773813  0  0  -0.057569  0  4.036473  0  0  -0.058381  0  4.058424  0  0  -0.015508  -0.057528  0  4.022092  0
C  C71  1  0.79098864  0.13538811  0.84505692  1  0  -0.026483  0  3.773733  0  0  -0.057531  0  4.036395  0  0  -0.058341  0  4.058345  0  0  -0.015478  -0.057492  0  4.02201  0
C  C72  1  0.24753087  0.64387961  0.48834446  1  0  -0.041548  0  3.722035  0  0  -0.079536  0  3.978937  0  0  -0.078704  0  3.999892  0  0  -0.00407  -0.08009  0  3.965069  0
C  C73  1  0.75247152  0.35612234  0.51165704  1  0  -0.041447  0  3.721869  0  0  -0.079431  0  3.978758  0  0  -0.078599  0  3.999712  0  0  -0.004023  -0.079986  0  3.964891  0
C  C74  1  0.65052346  0.77792843  0.66278487  1  0  -0.041525  0  3.730845  0  0  -0.076962  0  3.980957  0  0  -0.075718  0  4.002345  0  0  -0.002314  -0.077485  0  3.966268  0
C  C75  1  0.34947895  0.22207354  0.33721409  1  0  -0.041562  0  3.730872  0  0  -0.076968  0  3.980981  0  0  -0.075743  0  4.002354  0  0  -0.002335  -0.077491  0  3.966296  0
C  C76  1  0.21457256  0.76132640  0.20426387  1  0  -0.020896  0  3.694117  0  0  -0.056272  0  3.945067  0  0  -0.05432  0  3.964513  0  0  0.008429  -0.056892  0  3.930909  0
C  C77  1  0.78543040  0.23867681  0.79573717  1  0  -0.020905  0  3.694176  0  0  -0.056286  0  3.945132  0  0  -0.054337  0  3.964583  0  0  0.008425  -0.056903  0  3.930969  0
C  C78  1  0.77169282  0.76134569  0.61474944  1  0  -0.03539  0  3.791281  0  0  -0.060345  0  4.045171  0  0  -0.061022  0  4.066552  0  0  -0.020561  -0.05967  0  4.03057  0
C  C79  1  0.22830959  0.23865627  0.38525015  1  0  -0.035302  0  3.791204  0  0  -0.060252  0  4.045074  0  0  -0.060933  0  4.066459  0  0  -0.020563  -0.059579  0  4.030476  0
C  C80  1  0.23843243  0.67103453  0.81548981  1  0  -0.02813  0  3.776548  0  0  -0.053142  0  4.028697  0  0  -0.053074  0  4.050502  0  0  -0.017584  -0.053171  0  4.014245  0
C  C81  1  0.76156273  0.32896615  0.18450825  1  0  -0.028137  0  3.776586  0  0  -0.053151  0  4.02876  0  0  -0.053085  0  4.05056  0  0  -0.017606  -0.053176  0  4.014303  0
C  C82  1  0.78279076  0.74571880  0.23963301  1  0  -0.023445  0  3.774202  0  0  -0.050449  0  4.029384  0  0  -0.049709  0  4.049732  0  0  -0.014151  -0.050313  0  4.014736  0
C  C83  1  0.21721000  0.25428443  0.76036483  1  0  -0.023555  0  3.774206  0  0  -0.050546  0  4.029392  0  0  -0.04981  0  4.049743  0  0  -0.014212  -0.050411  0  4.014739  0
N  N84  1  0.50563718  0.61536223  0.22328822  1  0  -0.272965  0  3.526782  0  0  -0.167736  0  3.752084  0  0  -0.186106  0  3.776666  0  0  -0.234259  -0.156243  0  3.735581  0
N  N85  1  0.49436299  0.38463972  0.77671198  1  0  -0.272908  0  3.526816  0  0  -0.167726  0  3.752139  0  0  -0.186099  0  3.776726  0  0  -0.234254  -0.156232  0  3.735634  0
N  N86  1  0.06189994  0.73734419  0.46559041  1  0  -0.360786  0  3.452796  0  0  -0.28537  0  3.776246  0  0  -0.298389  0  3.781845  0  0  -0.408375  -0.277211  0  3.772267  0
N  N87  1  0.93809798  0.26265274  0.53440907  1  0  -0.360848  0  3.452831  0  0  -0.285421  0  3.776279  0  0  -0.298436  0  3.781866  0  0  -0.408402  -0.277259  0  3.772287  0
N  N88  1  0.35283742  0.81764456  0.71982975  1  0  -0.271764  0  3.521232  0  0  -0.165363  0  3.741946  0  0  -0.183444  0  3.765786  0  0  -0.234435  -0.153302  0  3.725476  0
N  N89  1  0.64716331  0.18235615  0.28016964  1  0  -0.271679  0  3.521274  0  0  -0.165173  0  3.74185  0  0  -0.183249  0  3.765692  0  0  -0.234383  -0.153108  0  3.725381  0
N  N90  1  0.26681171  0.82842513  0.07546478  1  0  -0.360109  0  3.438697  0  0  -0.283594  0  3.758197  0  0  -0.29613  0  3.763228  0  0  -0.400701  -0.275593  0  3.754366  0
N  N91  1  0.73318790  0.17158054  0.92453785  1  0  -0.360066  0  3.438647  0  0  -0.283557  0  3.75815  0  0  -0.296105  0  3.763206  0  0  -0.400687  -0.27556  0  3.754337  0
N  N92  1  0.56510321  0.83155024  0.61399559  1  0  -0.265615  0  3.509089  0  0  -0.155629  0  3.72574  0  0  -0.17325  0  3.748786  0  0  -0.231619  -0.143742  0  3.709838  0
N  N93  1  0.43489697  0.16844922  0.38600299  1  0  -0.265601  0  3.509109  0  0  -0.155684  0  3.725822  0  0  -0.173254  0  3.748815  0  0  -0.231625  -0.143793  0  3.709916  0
N  N94  1  0.27891433  0.38151994  0.10583001  1  0  -0.269761  0  3.511684  0  0  -0.162069  0  3.731803  0  0  -0.179451  0  3.754682  0  0  -0.233788  -0.150614  0  3.71594  0
N  N95  1  0.72108469  0.61847698  0.89417139  1  0  -0.269699  0  3.511602  0  0  -0.162171  0  3.731907  0  0  -0.179552  0  3.754781  0  0  -0.233828  -0.150715  0  3.716047  0
N  N96  1  0.28052872  0.78424615  0.55668624  1  0  -0.271913  0  3.51729  0  0  -0.165362  0  3.738747  0  0  -0.183246  0  3.76293  0  0  -0.234239  -0.153384  0  3.722323  0
N  N97  1  0.71947033  0.21575329  0.44331360  1  0  -0.272004  0  3.517185  0  0  -0.165435  0  3.738622  0  0  -0.183318  0  3.762809  0  0  -0.234268  -0.153461  0  3.722205  0
N  N98  1  0.73505393  0.72569421  0.32139831  1  0  -0.367721  0  3.451486  0  0  -0.289715  0  3.768997  0  0  -0.303353  0  3.774139  0  0  -0.408343  -0.281366  0  3.764803  0
N  N99  1  0.26494905  0.27430653  0.67859921  1  0  -0.367634  0  3.451408  0  0  -0.28964  0  3.768924  0  0  -0.303274  0  3.774059  0  0  -0.408352  -0.281285  0  3.764711  0
N  N100  1  0.76197893  0.80411568  0.53667035  1  0  -0.370546  0  3.361936  0  0  -0.299958  0  3.676484  0  0  -0.311907  0  3.681625  0  0  -0.391558  -0.292696  0  3.673355  0
N  N101  1  0.23802069  0.19588253  0.46332742  1  0  -0.370637  0  3.362021  0  0  -0.300059  0  3.676591  0  0  -0.312004  0  3.681727  0  0  -0.39158  -0.292793  0  3.673457  0
N  N102  1  0.27610178  0.65999947  0.15472917  1  0  -0.273861  0  3.520879  0  0  -0.166614  0  3.742913  0  0  -0.18434  0  3.76609  0  0  -0.233701  -0.154731  0  3.726342  0
N  N103  1  0.72389838  0.33999997  0.84527068  1  0  -0.273903  0  3.520963  0  0  -0.166637  0  3.742948  0  0  -0.184364  0  3.766125  0  0  -0.23372  -0.154755  0  3.726379  0
N  N104  1  0.30109551  0.83982994  0.85939177  1  0  -0.369728  0  3.443829  0  0  -0.292934  0  3.766771  0  0  -0.30606  0  3.769946  0  0  -0.408718  -0.284645  0  3.764402  0
N  N105  1  0.69890412  0.16017078  0.14060634  1  0  -0.369708  0  3.443765  0  0  -0.292923  0  3.766726  0  0  -0.306061  0  3.769928  0  0  -0.408726  -0.284633  0  3.764369  0
N  N106  1  0.28292923  0.15319033  0.01961924  1  0  -0.361918  0  3.396937  0  0  -0.288788  0  3.717992  0  0  -0.301138  0  3.722131  0  0  -0.400954  -0.28078  0  3.714369  0
N  N107  1  0.71706922  0.84680782  0.98038360  1  0  -0.361942  0  3.396975  0  0  -0.288781  0  3.71799  0  0  -0.301143  0  3.722155  0  0  -0.400973  -0.280772  0  3.714385  0
