# generated using pymatgen
data_Zn2H12C37(BrO2)4
_symmetry_space_group_name_H-M   'P 1'
_cell_length_a   16.45818049
_cell_length_b   16.60573462
_cell_length_c   28.34555962
_cell_angle_alpha   90.93220106
_cell_angle_beta   89.74695896
_cell_angle_gamma   89.96196851
_symmetry_Int_Tables_number   1
_chemical_formula_structural   Zn2H12C37(BrO2)4
_chemical_formula_sum   'Zn4 H24 C74 Br8 O16'
_cell_volume   7745.74352155
_cell_formula_units_Z   2
loop_
 _symmetry_equiv_pos_site_id
 _symmetry_equiv_pos_as_xyz
  1  'x, y, z'
loop_
 _atom_site_type_symbol
 _atom_site_label
 _atom_site_symmetry_multiplicity
 _atom_site_fract_x
 _atom_site_fract_y
 _atom_site_fract_z
 _atom_site_occupancy
 _atom_site_pbe_bader_charge
 _atom_site_pbe_bader_spin_density
 _atom_site_pbe_cm5_charge
 _atom_site_pbe_ddec_charge
 _atom_site_pbe_ddec_spin_density
 _atom_site_pbe_ddec_sum_bond_order
 _atom_site_pbe_magmom
Zn  Zn0  1  0.50105276  0.91426408  0.49976614  1  1.309038  0  0.721871  0.957438  0  2.144776  0
Zn  Zn1  1  0.49953310  0.07676489  0.50084661  1  1.308359  0  0.723238  0.961589  0  2.139502  0
Zn  Zn2  1  0.08490712  0.50101386  0.99826123  1  1.29881  0  0.722213  0.961191  0  2.098395  0
Zn  Zn3  1  0.92048927  0.50353434  0.00055721  1  1.310049  0  0.724118  0.970821  0  2.148343  0
H  H4  1  0.30773961  0.90194443  0.59162203  1  0.096732  0  0.110382  0.119528  0  0.992609  0
H  H5  1  0.68333884  0.15791648  0.39821812  1  0.089757  0  0.112594  0.120148  0  0.987962  0
H  H6  1  0.73927057  0.06730503  0.69729478  1  0.072945  0  0.112347  0.130317  0  0.982242  0
H  H7  1  0.13640780  0.87601844  0.37482759  1  0.081081  0  0.111339  0.129528  0  0.983825  0
H  H8  1  0.16089008  0.78112214  0.83043444  1  0.072498  0  0.110792  0.115649  0  0.98151  0
H  H9  1  0.90249247  0.22753588  0.16406522  1  0.075257  0  0.110224  0.115094  0  0.982337  0
H  H10  1  0.96972902  0.27035350  0.79104414  1  0.095068  0  0.113926  0.133216  0  0.98222  0
H  H11  1  0.96958766  0.73553699  0.20880325  1  0.095319  0  0.113008  0.132192  0  0.983621  0
H  H12  1  0.95757534  0.10725098  0.90823945  1  0.102896  0  0.114369  0.13393  0  0.980893  0
H  H13  1  0.98598375  0.89848951  0.09171220  1  0.120855  0  0.11417  0.133156  0  0.98033  0
H  H14  1  0.89933541  0.78315571  0.84028632  1  0.09892  0  0.110692  0.116051  0  0.980885  0
H  H15  1  0.16415229  0.21450177  0.16109024  1  0.085044  0  0.109791  0.1141  0  0.982993  0
H  H16  1  0.85224537  0.86785346  0.62279346  1  0.110533  0  0.112236  0.117195  0  0.982535  0
H  H17  1  0.26221073  0.07686550  0.31324820  1  0.064275  0  0.112059  0.116835  0  0.981232  0
H  H18  1  0.16566245  0.66773177  0.88727317  1  0.094647  0  0.111703  0.118612  0  0.982417  0
H  H19  1  0.90730316  0.34028568  0.10671217  1  0.116044  0  0.108986  0.119478  0  0.989205  0
H  H20  1  0.90515189  0.66947192  0.89689421  1  0.126264  0  0.109761  0.119977  0  0.98811  0
H  H21  1  0.16791368  0.32721064  0.10373664  1  0.114005  0  0.112067  0.119418  0  0.983596  0
H  H22  1  0.32580133  0.15850333  0.61207490  1  0.128874  0  0.112721  0.133234  0  0.984332  0
H  H23  1  0.67800097  0.89906278  0.39617535  1  0.159124  0  0.112012  0.134401  0  0.988274  0
H  H24  1  0.73478898  0.86313147  0.56751691  1  0.109032  0  0.113648  0.118634  0  0.980684  0
H  H25  1  0.37118710  0.06287894  0.37326662  1  0.112524  0  0.113103  0.12063  0  0.982234  0
H  H26  1  0.19254707  0.89810316  0.64928671  1  0.079676  0  0.113093  0.118141  0  0.975845  0
H  H27  1  0.79815711  0.15505847  0.34017952  1  0.060292  0  0.11324  0.118164  0  0.976746  0
C  C28  1  0.60735974  0.02754786  0.43650621  1  1.523372  0  0.221557  0.604174  0  4.130988  0
C  C29  1  0.39163294  0.03041708  0.56363602  1  1.540907  0  0.21901  0.598658  0  4.140609  0
C  C30  1  0.96194058  0.32471238  0.86051260  1  -0.082172  0  -0.007548  0.107855  0  3.964063  0
C  C31  1  0.96731510  0.68156365  0.13910708  1  -0.07051  0  -0.007539  0.108249  0  3.963203  0
C  C32  1  0.95859885  0.16818708  0.89472422  1  0.104776  0  -0.086682  -0.18592  0  3.924591  0
C  C33  1  0.98058053  0.83768895  0.10509375  1  0.057139  0  -0.085759  -0.183309  0  3.922167  0
C  C34  1  0.95534801  0.23419011  0.92551779  1  -0.132831  0  -0.007444  0.106499  0  3.963012  0
C  C35  1  0.97645238  0.77199857  0.07416094  1  -0.086328  0  -0.007718  0.105242  0  3.962531  0
C  C36  1  0.95737711  0.75735561  0.85050780  1  -0.06741  0  -0.080392  -0.12609  0  3.944267  0
C  C37  1  0.10804868  0.24242610  0.14927512  1  -0.015997  0  -0.079288  -0.127418  0  3.940008  0
C  C38  1  0.96053320  0.69430834  0.88187687  1  0.024681  0  -0.082357  -0.084167  0  3.98558  0
C  C39  1  0.11020516  0.30515748  0.11734738  1  -0.046756  0  -0.076379  -0.081492  0  3.970801  0
C  C40  1  0.23319760  0.09907721  0.65296228  1  -0.09253  0  -0.007583  0.071165  0  3.91981  0
C  C41  1  0.76804583  0.95345483  0.35129763  1  -0.138595  0  -0.007047  0.072939  0  3.920862  0
C  C42  1  0.29678353  0.10163364  0.62050413  1  0.015485  0  -0.083791  -0.140267  0  3.951775  0
C  C43  1  0.70449112  0.95479088  0.38361345  1  -0.00562  0  -0.085776  -0.142971  0  3.961507  0
C  C44  1  0.80223010  0.91038871  0.62676241  1  0.017058  0  -0.080181  -0.131407  0  3.950231  0
C  C45  1  0.25927323  0.02949614  0.33931829  1  0.042061  0  -0.080797  -0.130655  0  3.953044  0
C  C46  1  0.73688178  0.90794056  0.59598368  1  -0.050863  0  -0.076502  -0.076059  0  3.983696  0
C  C47  1  0.32005739  0.02131983  0.37248453  1  -0.068353  0  -0.076237  -0.073936  0  3.984875  0
C  C48  1  0.99988422  0.99217132  0.75229043  1  0.341253  0  0.068291  0.317864  0  4.093022  0
C  C49  1  0.00330755  0.01414462  0.24821397  1  0.31692  0  0.069557  0.316589  0  4.096736  0
C  C50  1  0.60938067  0.96316783  0.56219885  1  1.574971  0  0.218795  0.614795  0  4.136161  0
C  C51  1  0.38647860  0.95991358  0.44090712  1  1.56983  0  0.218755  0.614332  0  4.129049  0
C  C52  1  0.19434334  0.02580974  0.66390034  1  0.152829  0  0.002231  0.099465  0  4.088418  0
C  C53  1  0.80352337  0.02566227  0.33521632  1  0.161189  0  0.00234  0.100044  0  4.087677  0
C  C54  1  0.32370131  0.03021774  0.59856794  1  -0.051478  0  -0.012952  -0.016871  0  3.963708  0
C  C55  1  0.67409265  0.02857745  0.40072327  1  0.021253  0  -0.013529  -0.017903  0  3.964418  0
C  C56  1  0.80437605  0.96890440  0.66329150  1  0.085206  0  0.009205  0.163076  0  4.102205  0
C  C57  1  0.19201782  0.97698291  0.33982831  1  0.095577  0  0.010082  0.162789  0  4.103041  0
C  C58  1  0.67277210  0.96363215  0.59970144  1  -0.000706  0  -0.015786  -0.072981  0  3.935492  0
C  C59  1  0.31810143  0.96035626  0.40638277  1  0.035716  0  -0.01631  -0.072483  0  3.928261  0
C  C60  1  0.02975830  0.79013445  0.83211298  1  0.064361  0  0.007821  0.148519  0  4.100064  0
C  C61  1  0.03295833  0.21331144  0.16601282  1  0.057485  0  0.007075  0.148047  0  4.10022  0
C  C62  1  0.03562075  0.66240925  0.89569772  1  -0.099608  0  -0.019998  -0.043959  0  3.98486  0
C  C63  1  0.03772673  0.34005087  0.10170428  1  0.025938  0  -0.018685  -0.040675  0  3.9797  0
C  C64  1  0.96499341  0.18097301  0.84585236  1  0.000377  0  0.008478  0.173877  0  4.100543  0
C  C65  1  0.97862766  0.82475964  0.15407649  1  0.058391  0  0.008499  0.173404  0  4.100194  0
C  C66  1  0.95784525  0.31353630  0.90939025  1  0.070118  0  -0.018931  -0.108997  0  3.929994  0
C  C67  1  0.97023526  0.69280479  0.09022525  1  0.036494  0  -0.018556  -0.108441  0  3.928256  0
C  C68  1  0.07136705  0.00887710  0.72225467  1  0.071659  0  -0.028176  -0.090875  0  3.925766  0
C  C69  1  0.92928678  0.02229956  0.27771781  1  -0.060518  0  -0.028001  -0.089434  0  3.925665  0
C  C70  1  0.01394348  0.91787814  0.77916657  1  0.089806  0  -0.034313  -0.106113  0  3.947079  0
C  C71  1  0.01741497  0.08812692  0.22107258  1  0.09675  0  -0.03572  -0.106913  0  3.951766  0
C  C72  1  0.22246186  0.95471755  0.64110716  1  -0.056358  0  -0.07488  -0.107142  0  3.942539  0
C  C73  1  0.77124290  0.09928634  0.35254134  1  -0.025932  0  -0.075086  -0.108868  0  3.940864  0
C  C74  1  0.92848699  0.98161288  0.72124859  1  -0.146175  0  -0.03109  -0.100032  0  3.941117  0
C  C75  1  0.07262932  0.99878905  0.27984772  1  0.152813  0  -0.031475  -0.098746  0  3.941057  0
C  C76  1  0.98526882  0.05982638  0.78583746  1  -0.294081  0  -0.031291  -0.098308  0  3.937918  0
C  C77  1  0.99327503  0.94584202  0.21460064  1  0.163048  0  -0.031661  -0.098891  0  3.939733  0
C  C78  1  0.12849195  0.02036829  0.69596278  1  -0.323702  0  -0.040475  -0.084972  0  4.144378  0
C  C79  1  0.87044585  0.02448124  0.30370202  1  -0.187192  0  -0.041028  -0.086202  0  4.141976  0
C  C80  1  0.97401907  0.11495616  0.81376023  1  0.04114  0  -0.033874  -0.084388  0  4.097267  0
C  C81  1  0.98557977  0.89052638  0.18644683  1  -0.417517  0  -0.033429  -0.08263  0  4.094686  0
C  C82  1  0.02433213  0.85807532  0.80251871  1  -0.352707  0  -0.035565  -0.089754  0  4.11306  0
C  C83  1  0.02768607  0.14652263  0.19650195  1  -0.38385  0  -0.035488  -0.090292  0  4.115462  0
C  C84  1  0.87130113  0.97462068  0.69456406  1  -0.12374  0  -0.033681  -0.086197  0  4.103331  0
C  C85  1  0.12756033  0.98723079  0.30738833  1  -0.411769  0  -0.032817  -0.084557  0  4.102408  0
C  C86  1  0.96233790  0.38397312  0.94330799  1  1.592607  0  0.209552  0.609312  0  4.197487  0
C  C87  1  0.97102897  0.62212578  0.05634935  1  1.601031  0  0.210025  0.610715  0  4.19649  0
C  C88  1  0.03621011  0.59901154  0.93213746  1  1.525883  0  0.215252  0.59023  0  4.160983  0
C  C89  1  0.03743004  0.40371363  0.06541588  1  1.524048  0  0.21639  0.592727  0  4.153433  0
C  C90  1  0.28621886  0.95674776  0.60914177  1  0.062928  0  -0.080859  -0.091357  0  3.984882  0
C  C91  1  0.70750994  0.10094218  0.38478794  1  0.021694  0  -0.079754  -0.094796  0  3.986533  0
C  C92  1  0.73897347  0.02306979  0.66855968  1  0.082528  0  -0.084969  -0.179595  0  3.920213  0
C  C93  1  0.18867503  0.91603440  0.37370452  1  0.009929  0  -0.085309  -0.180191  0  3.916418  0
C  C94  1  0.67440672  0.02043587  0.63709105  1  -0.129295  0  -0.005832  0.104797  0  3.948107  0
C  C95  1  0.25132966  0.90758559  0.40621255  1  -0.072101  0  -0.00506  0.106394  0  3.94713  0
C  C96  1  0.10501051  0.75636084  0.84496373  1  0.015421  0  -0.079585  -0.128424  0  3.939582  0
C  C97  1  0.96036051  0.24991502  0.15089178  1  0.009015  0  -0.081199  -0.126179  0  3.944428  0
C  C98  1  0.10772371  0.69321971  0.87657928  1  -0.015333  0  -0.076356  -0.079718  0  3.971294  0
C  C99  1  0.96296373  0.31241639  0.11912409  1  -0.080462  0  -0.082239  -0.085992  0  3.985918  0
C  C100  1  0.96541044  0.26012857  0.82877047  1  0.099071  0  -0.086391  -0.185254  0  3.926413  0
C  C101  1  0.97130016  0.74585589  0.17102196  1  0.067348  0  -0.086491  -0.185551  0  3.926749  0
Br  Br102  1  0.19814539  0.19606113  0.68294315  1  -0.048641  0  0.013814  -0.072857  0  1.322018  0
Br  Br103  1  0.80784628  0.85239804  0.32907435  1  -0.051317  0  0.015557  -0.072004  0  1.32942  0
Br  Br104  1  0.58737389  0.09351509  0.64917949  1  -0.042255  0  0.018328  -0.060355  0  1.367866  0
Br  Br105  1  0.23822763  0.82564786  0.45179587  1  -0.037641  0  0.012169  -0.07087  0  1.346771  0
Br  Br106  1  0.96468571  0.43111915  0.83657950  1  -0.048252  0  0.029037  -0.047107  0  1.341559  0
Br  Br107  1  0.95959476  0.57534183  0.16294586  1  -0.042581  0  0.027592  -0.0491  0  1.33907  0
Br  Br108  1  0.95014080  0.21573756  0.99159813  1  -0.048959  0  0.031019  -0.049191  0  1.365857  0
Br  Br109  1  0.98036646  0.79064810  0.00809596  1  -0.048306  0  0.033221  -0.046839  0  1.371948  0
O  O110  1  0.58204004  0.95922331  0.44972626  1  -1.177834  0  -0.312095  -0.566498  0  2.324607  0
O  O111  1  0.41810058  0.09903508  0.54918382  1  -1.127498  0  -0.318327  -0.529256  0  2.240443  0
O  O112  1  0.58635335  0.03060949  0.54691979  1  -1.167824  0  -0.309852  -0.57191  0  2.379192  0
O  O113  1  0.41441738  0.89201845  0.45493725  1  -1.125469  0  -0.315893  -0.528163  0  2.28647  0
O  O114  1  0.58436593  0.89399866  0.54675214  1  -1.120491  0  -0.317758  -0.52788  0  2.218695  0
O  O115  1  0.41367197  0.02858654  0.45335982  1  -1.173794  0  -0.311193  -0.570673  0  2.313311  0
O  O116  1  0.58009469  0.09603733  0.45195442  1  -1.130867  0  -0.317992  -0.529973  0  2.239096  0
O  O117  1  0.41906178  0.96245702  0.54984830  1  -1.17962  0  -0.310676  -0.571091  0  2.337232  0
O  O118  1  0.03269862  0.40734857  0.95456359  1  -1.149822  0  -0.302632  -0.554631  0  2.293268  0
O  O119  1  0.90164930  0.59458175  0.04326576  1  -1.121316  0  -0.313856  -0.521741  0  2.244758  0
O  O120  1  0.96799795  0.57468450  0.94743705  1  -1.178706  0  -0.313062  -0.58085  0  2.380921  0
O  O121  1  0.10649829  0.42710911  0.04857826  1  -1.124884  0  -0.31726  -0.522613  0  2.238779  0
O  O122  1  0.10564936  0.57337253  0.94694500  1  -1.121708  0  -0.317394  -0.523157  0  2.239575  0
O  O123  1  0.96893615  0.43058447  0.05238866  1  -1.175083  0  -0.312721  -0.580977  0  2.37791  0
O  O124  1  0.89475070  0.41417427  0.95796162  1  -1.119559  0  -0.314077  -0.520887  0  2.241788  0
O  O125  1  0.03990330  0.59587378  0.04375520  1  -1.155111  0  -0.3027  -0.554427  0  2.292365  0
