# generated using pymatgen
data_CdH22C11(N2O3)3
_symmetry_space_group_name_H-M   'P 1'
_cell_length_a   8.99250702
_cell_length_b   9.61998360
_cell_length_c   12.29955434
_cell_angle_alpha   76.49820626
_cell_angle_beta   73.63583019
_cell_angle_gamma   63.17321410
_symmetry_Int_Tables_number   1
_chemical_formula_structural   CdH22C11(N2O3)3
_chemical_formula_sum   'Cd2 H44 C22 N12 O18'
_cell_volume   903.97774821
_cell_formula_units_Z   2
loop_
 _symmetry_equiv_pos_site_id
 _symmetry_equiv_pos_as_xyz
  1  'x, y, z'
loop_
 _atom_site_type_symbol
 _atom_site_label
 _atom_site_symmetry_multiplicity
 _atom_site_fract_x
 _atom_site_fract_y
 _atom_site_fract_z
 _atom_site_occupancy
 _atom_site_pbe_bader_charge
 _atom_site_pbe_bader_spin_density
 _atom_site_pbe_cm5_charge
 _atom_site_pbe_ddec_charge
 _atom_site_pbe_ddec_spin_density
 _atom_site_pbe_ddec_sum_bond_order
 _atom_site_pbe_magmom
Cd  Cd0  1  0.32868781  0.21938410  0.03212674  1  1.359643  0  0.786576  1.025291  0  2.054357  0
Cd  Cd1  1  0.67130921  0.78061799  0.96787251  1  1.359536  0  0.786584  1.025301  0  2.054344  0
H  H2  1  0.28717531  0.51025099  0.89053682  1  0.644684  0  0.28978  0.371839  0  0.973126  0
H  H3  1  0.71282444  0.48974757  0.10946089  1  0.64469  0  0.289808  0.371851  0  0.973151  0
H  H4  1  0.15393766  0.45956156  0.87006612  1  0.664233  0  0.292436  0.38697  0  0.948206  0
H  H5  1  0.84606504  0.54043818  0.12992507  1  0.66399  0  0.292449  0.387005  0  0.948162  0
H  H6  1  0.13663242  0.03451197  0.11760620  1  0.513807  0  0.305651  0.288274  0  1.004401  0
H  H7  1  0.86336902  0.96548542  0.88238649  1  0.513832  0  0.305629  0.288277  0  1.004374  0
H  H8  1  0.53237255  0.69245879  0.23827990  1  0.515693  0  0.308297  0.296393  0  0.969656  0
H  H9  1  0.46762647  0.30754916  0.76172111  1  0.515805  0  0.308286  0.296433  0  0.969622  0
H  H10  1  0.12547568  0.78806044  0.05700040  1  0.525736  0  0.309603  0.286227  0  0.983027  0
H  H11  1  0.87452418  0.21194047  0.94300010  1  0.525731  0  0.309598  0.286229  0  0.983021  0
H  H12  1  0.62171029  0.93009442  0.17400984  1  0.49425  0  0.303991  0.282051  0  0.997502  0
H  H13  1  0.37828894  0.06990531  0.82598938  1  0.494256  0  0.304002  0.282085  0  0.997497  0
H  H14  1  0.07143320  0.65633486  0.34932661  1  0.04502  0  0.105412  0.132557  0  0.996873  0
H  H15  1  0.92856403  0.34367192  0.65067499  1  0.045007  0  0.105435  0.132613  0  0.996806  0
H  H16  1  0.22851822  0.61437213  0.22329326  1  0.055468  0  0.104817  0.134389  0  1.008108  0
H  H17  1  0.77147985  0.38562760  0.77670782  1  0.055441  0  0.104798  0.134372  0  1.008102  0
H  H18  1  0.45579691  0.45273983  0.30584066  1  0.056673  0  0.089642  0.129946  0  1.042634  0
H  H19  1  0.54420295  0.54726108  0.69415903  1  0.056671  0  0.089639  0.129935  0  1.042616  0
H  H20  1  0.33379187  0.46623477  0.44811504  1  0.041869  0  0.097284  0.145791  0  0.990997  0
H  H21  1  0.66620746  0.53376731  0.55188454  1  0.041829  0  0.097291  0.145784  0  0.991006  0
H  H22  1  0.51585696  0.51016140  0.40855726  1  0.02822  0  0.092027  0.127393  0  1.023708  0
H  H23  1  0.48414121  0.48984068  0.59144175  1  0.028322  0  0.092023  0.127384  0  1.023704  0
H  H24  1  0.31767387  0.76447714  0.49118852  1  0.017784  0  0.087576  0.12544  0  1.02023  0
H  H25  1  0.68232651  0.23552260  0.50881127  1  0.017789  0  0.087587  0.125452  0  1.020213  0
H  H26  1  0.12530141  0.74236642  0.51134291  1  0.053013  0  0.089467  0.138119  0  1.028187  0
H  H27  1  0.87469961  0.25763449  0.48865572  1  0.052995  0  0.089467  0.138097  0  1.028226  0
H  H28  1  0.15238004  0.90920767  0.42289057  1  0.040178  0  0.088382  0.126836  0  1.020136  0
H  H29  1  0.84762161  0.09079441  0.57710934  1  0.040064  0  0.08835  0.126807  0  1.020198  0
H  H30  1  0.86361247  0.08557535  0.25104114  1  0.042926  0  0.103307  0.122175  0  0.983349  0
H  H31  1  0.13638623  0.91442556  0.74895879  1  0.042988  0  0.103319  0.12219  0  0.983333  0
H  H32  1  0.91211385  0.96182215  0.37918892  1  0.040608  0  0.105304  0.126773  0  0.990561  0
H  H33  1  0.08788537  0.03817758  0.62081112  1  0.040605  0  0.105303  0.126767  0  0.990562  0
H  H34  1  0.57273424  0.17835064  0.29007324  1  0.041948  0  0.088859  0.12582  0  1.031471  0
H  H35  1  0.42726446  0.82165027  0.70992751  1  0.041956  0  0.08886  0.12583  0  1.031442  0
H  H36  1  0.57601087  0.08501156  0.43285303  1  0.041316  0  0.091219  0.127954  0  1.022452  0
H  H37  1  0.42398951  0.91498817  0.56714758  1  0.041462  0  0.091217  0.127932  0  1.02249  0
H  H38  1  0.46368047  0.05470415  0.34901254  1  0.048714  0  0.092157  0.139607  0  1.002191  0
H  H39  1  0.53631991  0.94529558  0.65098726  1  0.048709  0  0.092153  0.139585  0  1.002189  0
H  H40  1  0.61838029  0.77551912  0.40297616  1  0.037959  0  0.086068  0.120101  0  1.029863  0
H  H41  1  0.38162125  0.22448062  0.59702583  1  0.037936  0  0.086074  0.120108  0  1.029855  0
H  H42  1  0.76388429  0.78325014  0.47149948  1  0.034745  0  0.092407  0.13633  0  1.000864  0
H  H43  1  0.23611694  0.21675547  0.52849907  1  0.034787  0  0.092407  0.13635  0  1.000858  0
H  H44  1  0.83914789  0.67218818  0.35418075  1  0.065957  0  0.087364  0.131425  0  1.053884  0
H  H45  1  0.16085376  0.32781391  0.64582079  1  0.065992  0  0.08737  0.131428  0  1.053897  0
C  C46  1  0.33969498  0.88508517  0.18531319  1  1.86924  0  0.33287  0.659557  0  4.159155  0
C  C47  1  0.66030425  0.11491456  0.81468278  1  1.869186  0  0.332821  0.659515  0  4.159019  0
C  C48  1  0.29486668  0.69094366  0.34499968  1  0.359689  0  0.084605  0.391615  0  3.776668  0
C  C49  1  0.70513266  0.30905843  0.65499909  1  0.35979  0  0.084567  0.391617  0  3.77665  0
C  C50  1  0.16125215  0.69740640  0.28670492  1  -0.00681  0  -0.160103  -0.359903  0  3.773139  0
C  C51  1  0.83874665  0.30259686  0.71329537  1  -0.006777  0  -0.160097  -0.359962  0  3.773107  0
C  C52  1  0.06345826  0.85912243  0.22393137  1  0.698245  0  0.19253  0.443886  0  3.742165  0
C  C53  1  0.93654044  0.14087848  0.77606774  1  0.698254  0  0.192543  0.443947  0  3.742024  0
C  C54  1  0.40720025  0.51916292  0.37893857  1  -0.066766  0  -0.241657  -0.453136  0  3.860661  0
C  C55  1  0.59279908  0.48083916  0.62106020  1  -0.066911  0  -0.241619  -0.453074  0  3.860609  0
C  C56  1  0.21667024  0.78258102  0.44889423  1  -0.085322  0  -0.24765  -0.462916  0  3.868633  0
C  C57  1  0.78333025  0.21742107  0.55110512  1  -0.08525  0  -0.247635  -0.462881  0  3.868708  0
C  C58  1  0.87290398  0.86096417  0.10775489  1  1.867815  0  0.337038  0.660381  0  4.180482  0
C  C59  1  0.12709472  0.13903674  0.89224423  1  1.867826  0  0.337098  0.660505  0  4.180326  0
C  C60  1  0.74007541  0.92824847  0.30567699  1  0.377108  0  0.085344  0.384249  0  3.773078  0
C  C61  1  0.25992445  0.07175244  0.69432270  1  0.377107  0  0.085344  0.384331  0  3.773017  0
C  C62  1  0.89418017  0.96488550  0.29403850  1  -0.013699  0  -0.152533  -0.343323  0  3.788485  0
C  C63  1  0.10581969  0.03511541  0.70596119  1  -0.013743  0  -0.15252  -0.343328  0  3.78841  0
C  C64  1  0.57844740  0.07018667  0.34650953  1  -0.084773  0  -0.242032  -0.446693  0  3.857871  0
C  C65  1  0.42155246  0.92981424  0.65349016  1  -0.08491  0  -0.242036  -0.446674  0  3.857885  0
C  C66  1  0.74236531  0.78047863  0.38851411  1  -0.105988  0  -0.24949  -0.465876  0  3.872945  0
C  C67  1  0.25763571  0.21952228  0.61148615  1  -0.106048  0  -0.249516  -0.465952  0  3.872953  0
N  N68  1  0.17235981  0.94604892  0.18376990  1  -1.228742  0  -0.424811  -0.4877  0  3.42766  0
N  N69  1  0.82763837  0.05395316  0.81622749  1  -1.228669  0  -0.424742  -0.487655  0  3.427598  0
N  N70  1  0.40400021  0.75905305  0.26031346  1  -1.263528  0  -0.427499  -0.462606  0  3.434452  0
N  N71  1  0.59599860  0.24095021  0.73968358  1  -1.263681  0  -0.427471  -0.462683  0  3.434458  0
N  N72  1  0.02641073  0.83780519  0.12184353  1  -1.254454  0  -0.420769  -0.469624  0  3.438694  0
N  N73  1  0.97358797  0.16219572  0.87815640  1  -1.254452  0  -0.420798  -0.46971  0  3.438627  0
N  N74  1  0.73550556  0.90990995  0.19155960  1  -1.23442  0  -0.42663  -0.454004  0  3.456989  0
N  N75  1  0.26449482  0.09008979  0.80844020  1  -1.234431  0  -0.426635  -0.454098  0  3.456996  0
N  N76  1  0.08848770  0.35803248  0.23380026  1  0.831953  0  0.09811  0.703014  0  4.42619  0
N  N77  1  0.91151584  0.64196021  0.76620099  1  0.831347  0  0.098165  0.702695  0  4.426582  0
N  N78  1  0.57990617  0.32665096  0.07699200  1  0.834996  0  0.09764  0.707007  0  4.436748  0
N  N79  1  0.42009190  0.67334878  0.92300909  1  0.834976  0  0.097668  0.707063  0  4.436847  0
O  O80  1  0.43709164  0.94885129  0.11823593  1  -1.191719  0  -0.330959  -0.613164  0  2.317748  0
O  O81  1  0.56290748  0.05114610  0.88175805  1  -1.191688  0  -0.330969  -0.613151  0  2.317666  0
O  O82  1  0.86476737  0.83534540  0.01227138  1  -1.186189  0  -0.338866  -0.597258  0  2.313495  0
O  O83  1  0.13523302  0.16465434  0.98772923  1  -1.186135  0  -0.338933  -0.597335  0  2.313429  0
O  O84  1  0.22413836  0.23061787  0.23324242  1  -0.555633  0  -0.199644  -0.455289  0  2.038088  0
O  O85  1  0.77586287  0.76937482  0.76676336  1  -0.555465  0  -0.199676  -0.455184  0  2.038056  0
O  O86  1  0.05755700  0.43520879  0.13595282  1  -0.581087  0  -0.1939  -0.457306  0  2.002628  0
O  O87  1  0.94244907  0.56477568  0.86404696  1  -0.580593  0  -0.193947  -0.457263  0  2.00273  0
O  O88  1  0.99128573  0.40489264  0.32462591  1  -0.490313  0  -0.167165  -0.39893  0  1.935497  0
O  O89  1  0.00871581  0.59510710  0.67537283  1  -0.49031  0  -0.167134  -0.398756  0  1.935776  0
O  O90  1  0.58501913  0.21981971  0.02812345  1  -0.569472  0  -0.19392  -0.447738  0  2.124476  0
O  O91  1  0.41498010  0.78018003  0.97187577  1  -0.569374  0  -0.193906  -0.447745  0  2.124496  0
O  O92  1  0.44129947  0.42896755  0.11862367  1  -0.499455  0  -0.166554  -0.42474  0  2.026008  0
O  O93  1  0.55869913  0.57103101  0.88137834  1  -0.499463  0  -0.166585  -0.42475  0  2.026123  0
O  O94  1  0.72205364  0.32173192  0.08065983  1  -0.560282  0  -0.167505  -0.420012  0  2.009554  0
O  O95  1  0.27794443  0.67826781  0.91934126  1  -0.56033  0  -0.167517  -0.420066  0  2.009562  0
O  O96  1  0.27519843  0.41730907  0.87734799  1  -1.27086  0  -0.574083  -0.757194  0  2.131959  0
O  O97  1  0.72480195  0.58269067  0.12264774  1  -1.270623  0  -0.574106  -0.757221  0  2.131866  0
