# generated using pymatgen
data_HgH10C22N6(OF3)2
_symmetry_space_group_name_H-M   'P 1'
_cell_length_a   8.12079158
_cell_length_b   10.26074269
_cell_length_c   12.58365304
_cell_angle_alpha   96.89018614
_cell_angle_beta   90.00015932
_cell_angle_gamma   89.99986576
_symmetry_Int_Tables_number   1
_chemical_formula_structural   HgH10C22N6(OF3)2
_chemical_formula_sum   'Hg2 H20 C44 N12 O4 F12'
_cell_volume   1040.96469223
_cell_formula_units_Z   2
loop_
 _symmetry_equiv_pos_site_id
 _symmetry_equiv_pos_as_xyz
  1  'x, y, z'
loop_
 _atom_site_type_symbol
 _atom_site_label
 _atom_site_symmetry_multiplicity
 _atom_site_fract_x
 _atom_site_fract_y
 _atom_site_fract_z
 _atom_site_occupancy
 _atom_site_hle17_bader_spin_density
 _atom_site_hle17_ddec_charge
 _atom_site_hle17_ddec_spin_density
 _atom_site_hle17_ddec_sum_bond_order
 _atom_site_hle17_magmom
 _atom_site_hse06_10hf_bader_spin_density
 _atom_site_hse06_10hf_ddec_charge
 _atom_site_hse06_10hf_ddec_spin_density
 _atom_site_hse06_10hf_ddec_sum_bond_order
 _atom_site_hse06_10hf_magmom
 _atom_site_hse06_bader_spin_density
 _atom_site_hse06_ddec_charge
 _atom_site_hse06_ddec_spin_density
 _atom_site_hse06_ddec_sum_bond_order
 _atom_site_hse06_magmom
 _atom_site_pbe_bader_spin_density
 _atom_site_pbe_cm5_charge
 _atom_site_pbe_ddec_charge
 _atom_site_pbe_ddec_spin_density
 _atom_site_pbe_ddec_sum_bond_order
 _atom_site_pbe_magmom
Hg  Hg0  1  0.99999891  0.49999982  0.50000116  1  0  0.840701  0  1.91597  0  0  0.648384  0  2.375531  0  0  0.70159  0  2.344439  0  0  0.685952  0.609039  0  2.398382  0
Hg  Hg1  1  0.50000013  0.99999902  0.49999841  1  0  0.840739  0  1.91597  0  0  0.648399  0  2.375541  0  0  0.701604  0  2.344448  0  0  0.685978  0.609049  0  2.398402  0
H  H2  1  0.06005528  0.62856580  0.80199688  1  0  0.092226  0  0.954075  0  0  0.093502  0  1.02621  0  0  0.096573  0  1.024491  0  0  0.113252  0.091532  0  1.027241  0
H  H3  1  0.56005417  0.87142984  0.19800079  1  0  0.092203  0  0.954091  0  0  0.093474  0  1.026247  0  0  0.096542  0  1.02453  0  0  0.113252  0.0915  0  1.027283  0
H  H4  1  0.93994643  0.37143270  0.19800443  1  0  0.09223  0  0.954096  0  0  0.093514  0  1.026212  0  0  0.096588  0  1.024487  0  0  0.113261  0.091541  0  1.027241  0
H  H5  1  0.43994384  0.12856866  0.80199813  1  0  0.092203  0  0.954118  0  0  0.09348  0  1.026268  0  0  0.09655  0  1.024548  0  0  0.113255  0.091505  0  1.027303  0
H  H6  1  0.09291648  0.85695581  0.90022303  1  0  0.101916  0  0.922407  0  0  0.098903  0  0.995218  0  0  0.104035  0  0.989826  0  0  0.115293  0.095259  0  0.999021  0
H  H7  1  0.59291192  0.64303880  0.09977618  1  0  0.101914  0  0.922475  0  0  0.098923  0  0.995258  0  0  0.104056  0  0.989863  0  0  0.115283  0.09528  0  0.999067  0
H  H8  1  0.90708153  0.14304368  0.09977837  1  0  0.101877  0  0.922442  0  0  0.098866  0  0.995253  0  0  0.103996  0  0.989861  0  0  0.11526  0.095223  0  0.999057  0
H  H9  1  0.40708486  0.35695970  0.90022273  1  0  0.101897  0  0.922463  0  0  0.098919  0  0.995236  0  0  0.104052  0  0.989841  0  0  0.115285  0.095273  0  0.999044  0
H  H10  1  0.15245563  0.00399317  0.60884566  1  0  0.085007  0  0.953233  0  0  0.088177  0  1.024474  0  0  0.092143  0  1.020705  0  0  0.110636  0.085214  0  1.027364  0
H  H11  1  0.65245498  0.49600572  0.39115533  1  0  0.08499  0  0.953245  0  0  0.088158  0  1.024477  0  0  0.092124  0  1.020708  0  0  0.110626  0.085192  0  1.027364  0
H  H12  1  0.84754607  0.99600631  0.39115574  1  0  0.085016  0  0.953222  0  0  0.088182  0  1.024462  0  0  0.092149  0  1.020692  0  0  0.110642  0.08521  0  1.027356  0
H  H13  1  0.34754796  0.50399277  0.60884279  1  0  0.085022  0  0.953241  0  0  0.088182  0  1.024481  0  0  0.09215  0  1.020711  0  0  0.110648  0.085212  0  1.027377  0
H  H14  1  0.27089103  0.48351136  0.30624159  1  0  0.162648  0  0.957778  0  0  0.169252  0  1.021787  0  0  0.173764  0  1.018821  0  0  0.111151  0.16611  0  1.023883  0
H  H15  1  0.77088442  0.01648929  0.69375662  1  0  0.162633  0  0.957817  0  0  0.169264  0  1.021759  0  0  0.173774  0  1.018792  0  0  0.11114  0.166122  0  1.023852  0
H  H16  1  0.72911068  0.51648911  0.69376229  1  0  0.16264  0  0.957839  0  0  0.169239  0  1.021832  0  0  0.173749  0  1.018866  0  0  0.111122  0.166095  0  1.02393  0
H  H17  1  0.22911113  0.98351215  0.30623941  1  0  0.162594  0  0.957835  0  0  0.169224  0  1.021797  0  0  0.173736  0  1.018829  0  0  0.11112  0.166085  0  1.023896  0
H  H18  1  0.92317177  0.80137575  0.28693574  1  0  0.142423  0  0.94516  0  0  0.149331  0  1.010822  0  0  0.152224  0  1.00991  0  0  0.11162  0.147312  0  1.01148  0
H  H19  1  0.42316984  0.69862223  0.71306122  1  0  0.142406  0  0.94515  0  0  0.149307  0  1.010816  0  0  0.152201  0  1.009899  0  0  0.111598  0.147288  0  1.011473  0
H  H20  1  0.07682871  0.19862471  0.71306496  1  0  0.142422  0  0.945181  0  0  0.149329  0  1.010842  0  0  0.152223  0  1.009924  0  0  0.11162  0.147309  0  1.011502  0
H  H21  1  0.57683064  0.30137627  0.28693769  1  0  0.142413  0  0.945175  0  0  0.149316  0  1.010836  0  0  0.152205  0  1.009937  0  0  0.11161  0.147298  0  1.011488  0
C  C22  1  0.07946573  0.71321836  0.75901606  1  0  0.093906  0  3.664538  0  0  0.063754  0  3.928706  0  0  0.066801  0  3.944586  0  0  0.056236  0.061645  0  3.917708  0
C  C23  1  0.57946382  0.78677823  0.24098174  1  0  0.094056  0  3.664483  0  0  0.063871  0  3.92869  0  0  0.066914  0  3.94459  0  0  0.056295  0.061773  0  3.91769  0
C  C24  1  0.92053351  0.28678113  0.24098534  1  0  0.09393  0  3.664461  0  0  0.063785  0  3.928635  0  0  0.066833  0  3.944513  0  0  0.056217  0.061683  0  3.917631  0
C  C25  1  0.42053542  0.21322026  0.75901639  1  0  0.094005  0  3.664512  0  0  0.06381  0  3.928742  0  0  0.066854  0  3.944634  0  0  0.056248  0.061701  0  3.917749  0
C  C26  1  0.09825570  0.83972686  0.81301761  1  0  0.085324  0  3.661196  0  0  0.054535  0  3.940804  0  0  0.058097  0  3.953143  0  0  0.057001  0.052262  0  3.932278  0
C  C27  1  0.59825146  0.66026970  0.18698101  1  0  0.085208  0  3.661405  0  0  0.054415  0  3.941016  0  0  0.057975  0  3.953354  0  0  0.056966  0.052134  0  3.932504  0
C  C28  1  0.90174231  0.16027262  0.18698379  1  0  0.085425  0  3.661127  0  0  0.054613  0  3.940765  0  0  0.058176  0  3.953102  0  0  0.057087  0.052336  0  3.932246  0
C  C29  1  0.40174655  0.33972977  0.81301721  1  0  0.085236  0  3.661333  0  0  0.054428  0  3.940965  0  0  0.05799  0  3.953303  0  0  0.056958  0.05216  0  3.932441  0
C  C30  1  0.13245512  0.92074826  0.65366810  1  0  0.06121  0  3.688557  0  0  0.034957  0  3.942368  0  0  0.036959  0  3.959222  0  0  0.053514  0.033602  0  3.931449  0
C  C31  1  0.63245302  0.57924923  0.34633146  1  0  0.0612  0  3.688455  0  0  0.035008  0  3.942273  0  0  0.03701  0  3.959117  0  0  0.053555  0.033666  0  3.93134  0
C  C32  1  0.86754412  0.07925122  0.34633329  1  0  0.061217  0  3.688534  0  0  0.034967  0  3.942336  0  0  0.036971  0  3.959187  0  0  0.05353  0.033628  0  3.931407  0
C  C33  1  0.36754869  0.42074927  0.65366666  1  0  0.061084  0  3.688543  0  0  0.034886  0  3.942338  0  0  0.036889  0  3.959197  0  0  0.053444  0.033519  0  3.931411  0
C  C34  1  0.11537187  0.79440920  0.59847738  1  0  0.068259  0  3.745974  0  0  0.078525  0  3.979374  0  0  0.076192  0  4.000127  0  0  0.114562  0.079564  0  3.965553  0
C  C35  1  0.61536718  0.70558929  0.40152066  1  0  0.068358  0  3.745991  0  0  0.078481  0  3.979571  0  0  0.076161  0  4.000302  0  0  0.114508  0.079511  0  3.965758  0
C  C36  1  0.88462614  0.20559126  0.40152411  1  0  0.068293  0  3.745909  0  0  0.07856  0  3.979318  0  0  0.076225  0  4.00007  0  0  0.114577  0.079602  0  3.965493  0
C  C37  1  0.38463453  0.29440921  0.59847746  1  0  0.06841  0  3.74598  0  0  0.078593  0  3.979486  0  0  0.07625  0  4.000258  0  0  0.114601  0.079686  0  3.965588  0
C  C38  1  0.13187619  0.77699855  0.47840939  1  0  0.495907  0  3.892623  0  0  0.44773  0  4.174371  0  0  0.478816  0  4.175419  0  0  0.219684  0.426707  0  4.172839  0
C  C39  1  0.63187319  0.72300090  0.52158798  1  0  0.495894  0  3.892611  0  0  0.447727  0  4.174381  0  0  0.478809  0  4.175428  0  0  0.219714  0.426712  0  4.172838  0
C  C40  1  0.86812182  0.22300192  0.52159210  1  0  0.495992  0  3.892577  0  0  0.447767  0  4.174321  0  0  0.478854  0  4.175367  0  0  0.2197  0.426741  0  4.172792  0
C  C41  1  0.36812975  0.27699858  0.47841024  1  0  0.495868  0  3.892566  0  0  0.447661  0  4.174335  0  0  0.478748  0  4.175387  0  0  0.219705  0.42663  0  4.172782  0
C  C42  1  0.09711710  0.64557193  0.31043402  1  0  0.279679  0  3.810739  0  0  0.273849  0  4.065423  0  0  0.283941  0  4.087753  0  0  0.080645  0.267161  0  4.05021  0
C  C43  1  0.59711319  0.85442954  0.68956348  1  0  0.279724  0  3.81072  0  0  0.273881  0  4.065386  0  0  0.283972  0  4.087715  0  0  0.080659  0.267187  0  4.050183  0
C  C44  1  0.90288460  0.35442756  0.68956817  1  0  0.279863  0  3.810552  0  0  0.273914  0  4.065343  0  0  0.284005  0  4.087675  0  0  0.080654  0.267223  0  4.050138  0
C  C45  1  0.40288605  0.14557092  0.31043324  1  0  0.279855  0  3.810552  0  0  0.273864  0  4.065409  0  0  0.283957  0  4.087737  0  0  0.080654  0.26717  0  4.050207  0
C  C46  1  0.20069448  0.54771425  0.26005459  1  0  -0.271096  0  3.701255  0  0  -0.308498  0  3.967031  0  0  -0.31597  0  3.985483  0  0  -0.113294  -0.303599  0  3.954836  0
C  C47  1  0.70068681  0.95228705  0.73994309  1  0  -0.271151  0  3.701365  0  0  -0.30858  0  3.967167  0  0  -0.316053  0  3.98562  0  0  -0.113328  -0.303682  0  3.954977  0
C  C48  1  0.79930723  0.45228622  0.73994850  1  0  -0.271063  0  3.701297  0  0  -0.308451  0  3.967065  0  0  -0.315925  0  3.985518  0  0  -0.113223  -0.303548  0  3.954873  0
C  C49  1  0.29930997  0.04771635  0.26005392  1  0  -0.271081  0  3.701353  0  0  -0.30849  0  3.967121  0  0  -0.315962  0  3.985573  0  0  -0.11326  -0.303595  0  3.954939  0
C  C50  1  0.21015270  0.53203121  0.14916588  1  0  0.237184  0  3.835489  0  0  0.211696  0  4.135839  0  0  0.221807  0  4.14523  0  0  0.08745  0.204598  0  4.129344  0
C  C51  1  0.71014669  0.96797007  0.85083102  1  0  0.237283  0  3.835345  0  0  0.211826  0  4.135681  0  0  0.221937  0  4.145077  0  0  0.087528  0.204733  0  4.12918  0
C  C52  1  0.78985023  0.46796729  0.85083701  1  0  0.237096  0  3.835588  0  0  0.211694  0  4.135849  0  0  0.221809  0  4.145234  0  0  0.087437  0.204592  0  4.129353  0
C  C53  1  0.28985009  0.03203529  0.14916539  1  0  0.23713  0  3.835595  0  0  0.211766  0  4.135802  0  0  0.221875  0  4.145198  0  0  0.087513  0.20467  0  4.129307  0
C  C54  1  0.11967975  0.61004470  0.08734019  1  0  0.080132  0  3.814235  0  0  0.041691  0  4.12065  0  0  0.048073  0  4.127631  0  0  0.072659  0.037778  0  4.115974  0
C  C55  1  0.61967792  0.88995574  0.91265726  1  0  0.080309  0  3.814183  0  0  0.041796  0  4.120656  0  0  0.048169  0  4.127646  0  0  0.07274  0.037878  0  4.11598  0
C  C56  1  0.88032195  0.38995380  0.91266191  1  0  0.080289  0  3.814204  0  0  0.041693  0  4.12077  0  0  0.048087  0  4.127749  0  0  0.072665  0.037782  0  4.116089  0
C  C57  1  0.38032256  0.11004864  0.08733984  1  0  0.080245  0  3.814306  0  0  0.041687  0  4.120802  0  0  0.048063  0  4.127792  0  0  0.072649  0.037775  0  4.116127  0
C  C58  1  0.01471459  0.70467852  0.13890396  1  0  0.243675  0  3.832893  0  0  0.217107  0  4.137179  0  0  0.227586  0  4.14583  0  0  0.089941  0.209704  0  4.13145  0
C  C59  1  0.51471527  0.79532112  0.86109481  1  0  0.243555  0  3.832937  0  0  0.217002  0  4.137231  0  0  0.227479  0  4.145887  0  0  0.089879  0.209603  0  4.131501  0
C  C60  1  0.98528712  0.29531998  0.86109814  1  0  0.243721  0  3.83291  0  0  0.217196  0  4.137201  0  0  0.227676  0  4.145847  0  0  0.09001  0.209799  0  4.131463  0
C  C61  1  0.48528643  0.20468032  0.13890360  1  0  0.243686  0  3.83295  0  0  0.21715  0  4.137221  0  0  0.227629  0  4.145875  0  0  0.089991  0.209746  0  4.131496  0
C  C62  1  0.00376143  0.72466807  0.24965137  1  0  -0.251093  0  3.708279  0  0  -0.291719  0  3.980888  0  0  -0.298044  0  3.999857  0  0  -0.108135  -0.287603  0  3.968302  0
C  C63  1  0.50375924  0.77533060  0.75034728  1  0  -0.251074  0  3.708133  0  0  -0.291729  0  3.980813  0  0  -0.298049  0  3.999777  0  0  -0.108141  -0.287612  0  3.968226  0
C  C64  1  0.99623905  0.27533140  0.75034923  1  0  -0.251204  0  3.708309  0  0  -0.291838  0  3.980999  0  0  -0.298161  0  3.999969  0  0  -0.10818  -0.287721  0  3.968411  0
C  C65  1  0.49624247  0.22466887  0.24965094  1  0  -0.251152  0  3.70826  0  0  -0.291773  0  3.980983  0  0  -0.298097  0  3.999949  0  0  -0.108143  -0.287652  0  3.968391  0
N  N66  1  0.08795116  0.69119203  0.65221230  1  0  -0.297531  0  3.187783  0  0  -0.241978  0  3.444726  0  0  -0.25442  0  3.463178  0  0  -0.295366  -0.232916  0  3.4322  0
N  N67  1  0.58794841  0.80880553  0.34778640  1  0  -0.297565  0  3.187813  0  0  -0.241959  0  3.444798  0  0  -0.254404  0  3.46324  0  0  -0.29535  -0.232898  0  3.432276  0
N  N68  1  0.91204685  0.30880844  0.34778920  1  0  -0.297598  0  3.187702  0  0  -0.242051  0  3.444657  0  0  -0.254495  0  3.463112  0  0  -0.295387  -0.232992  0  3.432131  0
N  N69  1  0.41205207  0.19119198  0.65221242  1  0  -0.297553  0  3.187818  0  0  -0.241962  0  3.44479  0  0  -0.254406  0  3.463254  0  0  -0.295365  -0.232918  0  3.43225  0
N  N70  1  0.12438713  0.94392172  0.76035454  1  0  -0.240443  0  3.036593  0  0  -0.215438  0  3.316607  0  0  -0.221585  0  3.330058  0  0  -0.299888  -0.210967  0  3.307222  0
N  N71  1  0.62438465  0.55607479  0.23964492  1  0  -0.240453  0  3.036681  0  0  -0.215452  0  3.316687  0  0  -0.221598  0  3.330138  0  0  -0.2999  -0.21098  0  3.307301  0
N  N72  1  0.87561088  0.05607776  0.23964686  1  0  -0.240486  0  3.036578  0  0  -0.215469  0  3.316597  0  0  -0.221615  0  3.330046  0  0  -0.299915  -0.211002  0  3.307217  0
N  N73  1  0.37561336  0.44392370  0.76035321  1  0  -0.240402  0  3.036703  0  0  -0.215402  0  3.316724  0  0  -0.22155  0  3.330178  0  0  -0.299846  -0.210933  0  3.307342  0
N  N74  1  0.08394003  0.66186018  0.42416175  1  0  -0.499666  0  3.22867  0  0  -0.406259  0  3.506334  0  0  -0.440753  0  3.522848  0  0  -0.356652  -0.382306  0  3.494472  0
N  N75  1  0.58393569  0.83813738  0.57583694  1  0  -0.499745  0  3.228806  0  0  -0.406276  0  3.506414  0  0  -0.440772  0  3.522928  0  0  -0.356682  -0.38233  0  3.494567  0
N  N76  1  0.91605798  0.33813930  0.57584124  1  0  -0.499767  0  3.228665  0  0  -0.40621  0  3.506242  0  0  -0.440701  0  3.522753  0  0  -0.356631  -0.382267  0  3.494405  0
N  N77  1  0.41606355  0.16186111  0.42415959  1  0  -0.499716  0  3.22866  0  0  -0.406143  0  3.50624  0  0  -0.440635  0  3.522753  0  0  -0.356665  -0.382193  0  3.494385  0
O  O78  1  0.19031116  0.87130611  0.43547707  1  0  -0.575672  0  1.975828  0  0  -0.52658  0  2.216356  0  0  -0.550737  0  2.210098  0  0  -0.308045  -0.508599  0  2.21964  0
O  O79  1  0.69030861  0.62869423  0.56452287  1  0  -0.575669  0  1.975738  0  0  -0.526571  0  2.216261  0  0  -0.550729  0  2.210003  0  0  -0.308057  -0.508587  0  2.219532  0
O  O80  1  0.80968809  0.12869436  0.56452442  1  0  -0.575716  0  1.975807  0  0  -0.526616  0  2.216337  0  0  -0.550772  0  2.210077  0  0  -0.308073  -0.508634  0  2.219623  0
O  O81  1  0.30969556  0.37130623  0.43547623  1  0  -0.575645  0  1.975718  0  0  -0.526546  0  2.216256  0  0  -0.550704  0  2.209997  0  0  -0.308054  -0.508574  0  2.219549  0
F  F82  1  0.30725410  0.43760303  0.09684952  1  0  -0.180829  0  1.253735  0  0  -0.123703  0  1.415584  0  0  -0.132919  0  1.405621  0  0  -0.086583  -0.116924  0  1.422176  0
F  F83  1  0.80724332  0.06240050  0.90314823  1  0  -0.180919  0  1.253645  0  0  -0.123752  0  1.415438  0  0  -0.132967  0  1.405476  0  0  -0.086616  -0.116975  0  1.422027  0
F  F84  1  0.69275007  0.56239743  0.90315356  1  0  -0.180919  0  1.253656  0  0  -0.123751  0  1.415418  0  0  -0.132966  0  1.405453  0  0  -0.086627  -0.116974  0  1.422012  0
F  F85  1  0.19274976  0.93760682  0.09684757  1  0  -0.18086  0  1.25367  0  0  -0.123755  0  1.415467  0  0  -0.13297  0  1.405504  0  0  -0.086634  -0.116976  0  1.422059  0
F  F86  1  0.13036658  0.59171998  0.97934279  1  0  -0.154816  0  1.292904  0  0  -0.100955  0  1.465597  0  0  -0.112896  0  1.458849  0  0  -0.078983  -0.094352  0  1.471762  0
F  F87  1  0.63036462  0.90827849  0.02065449  1  0  -0.154858  0  1.292899  0  0  -0.100981  0  1.465615  0  0  -0.112913  0  1.458866  0  0  -0.079004  -0.094377  0  1.471781  0
F  F88  1  0.86963635  0.40827951  0.02066020  1  0  -0.154869  0  1.292785  0  0  -0.100986  0  1.465541  0  0  -0.112966  0  1.458825  0  0  -0.079018  -0.094385  0  1.471705  0
F  F89  1  0.36963586  0.09172295  0.97934233  1  0  -0.154828  0  1.292829  0  0  -0.100954  0  1.46557  0  0  -0.11289  0  1.45882  0  0  -0.078983  -0.094348  0  1.471733  0
F  F90  1  0.92154714  0.77514957  0.07716632  1  0  -0.1787  0  1.248568  0  0  -0.132082  0  1.419883  0  0  -0.140483  0  1.409246  0  0  -0.089682  -0.12571  0  1.426832  0
F  F91  1  0.42154725  0.72484841  0.92283144  1  0  -0.178679  0  1.248598  0  0  -0.13206  0  1.419914  0  0  -0.140462  0  1.409279  0  0  -0.089657  -0.125689  0  1.426864  0
F  F92  1  0.07845580  0.22484893  0.92283577  1  0  -0.178742  0  1.248631  0  0  -0.132114  0  1.41993  0  0  -0.140515  0  1.40929  0  0  -0.089694  -0.125745  0  1.426878  0
F  F93  1  0.57845692  0.27515205  0.07716767  1  0  -0.178768  0  1.248567  0  0  -0.132125  0  1.419857  0  0  -0.140524  0  1.409216  0  0  -0.089719  -0.125751  0  1.426808  0
