# generated using pymatgen
data_HgH6C7(IN)2
_symmetry_space_group_name_H-M   'P 1'
_cell_length_a   4.42000750
_cell_length_b   13.14778793
_cell_length_c   18.44663428
_cell_angle_alpha   89.99996650
_cell_angle_beta   96.71982557
_cell_angle_gamma   90.00038939
_symmetry_Int_Tables_number   1
_chemical_formula_structural   HgH6C7(IN)2
_chemical_formula_sum   'Hg4 H24 C28 I8 N8'
_cell_volume   1064.63081293
_cell_formula_units_Z   4
loop_
 _symmetry_equiv_pos_site_id
 _symmetry_equiv_pos_as_xyz
  1  'x, y, z'
loop_
 _atom_site_type_symbol
 _atom_site_label
 _atom_site_symmetry_multiplicity
 _atom_site_fract_x
 _atom_site_fract_y
 _atom_site_fract_z
 _atom_site_occupancy
 _atom_site_hle17_bader_spin_density
 _atom_site_hle17_ddec_charge
 _atom_site_hle17_ddec_spin_density
 _atom_site_hle17_ddec_sum_bond_order
 _atom_site_hle17_magmom
 _atom_site_hse06_10hf_bader_spin_density
 _atom_site_hse06_10hf_ddec_charge
 _atom_site_hse06_10hf_ddec_spin_density
 _atom_site_hse06_10hf_ddec_sum_bond_order
 _atom_site_hse06_10hf_magmom
 _atom_site_hse06_bader_spin_density
 _atom_site_hse06_ddec_charge
 _atom_site_hse06_ddec_spin_density
 _atom_site_hse06_ddec_sum_bond_order
 _atom_site_hse06_magmom
 _atom_site_pbe_bader_spin_density
 _atom_site_pbe_cm5_charge
 _atom_site_pbe_ddec_charge
 _atom_site_pbe_ddec_spin_density
 _atom_site_pbe_ddec_sum_bond_order
 _atom_site_pbe_magmom
Hg  Hg0  1  0.68552910  0.31304483  0.62940729  1  0  0.511234  0  2.217067  0  0  0.396319  0  2.712579  0  0  0.438044  0  2.688022  0  0  0.361371  0.368238  0  2.729522  0
Hg  Hg1  1  0.81446461  0.81304609  0.87059336  1  0  0.511231  0  2.217078  0  0  0.396302  0  2.712591  0  0  0.438025  0  2.688033  0  0  0.361358  0.368225  0  2.729503  0
Hg  Hg2  1  0.31447301  0.68695379  0.37059544  1  0  0.511241  0  2.217069  0  0  0.396317  0  2.712573  0  0  0.438041  0  2.688017  0  0  0.361365  0.368239  0  2.729508  0
Hg  Hg3  1  0.18554193  0.18695481  0.12940406  1  0  0.511255  0  2.217093  0  0  0.396334  0  2.712596  0  0  0.438056  0  2.68804  0  0  0.36138  0.368255  0  2.729522  0
H  H4  1  0.26962588  0.33985506  0.34094583  1  0  0.289557  0  0.916709  0  0  0.268906  0  0.990139  0  0  0.277354  0  0.982857  0  0  0.290437  0.262921  0  0.995417  0
H  H5  1  0.23037389  0.83985555  0.15905428  1  0  0.289532  0  0.916681  0  0  0.268894  0  0.990104  0  0  0.277342  0  0.982824  0  0  0.290441  0.262918  0  0.995393  0
H  H6  1  0.73036486  0.66014356  0.65905713  1  0  0.289552  0  0.91673  0  0  0.268917  0  0.990143  0  0  0.277365  0  0.982856  0  0  0.29046  0.262941  0  0.995427  0
H  H7  1  0.76963267  0.16014459  0.84094368  1  0  0.289547  0  0.916734  0  0  0.268917  0  0.99014  0  0  0.277362  0  0.982851  0  0  0.290461  0.262942  0  0.995429  0
H  H8  1  0.25378186  0.40949179  0.47026287  1  0  0.075284  0  0.972209  0  0  0.079028  0  1.051598  0  0  0.081892  0  1.047218  0  0  0.111303  0.076916  0  1.054635  0
H  H9  1  0.24621699  0.90949091  0.02973666  1  0  0.075249  0  0.972281  0  0  0.078994  0  1.051651  0  0  0.081856  0  1.047271  0  0  0.111275  0.076877  0  1.054685  0
H  H10  1  0.74620660  0.59050606  0.52974003  1  0  0.075224  0  0.972268  0  0  0.078989  0  1.051592  0  0  0.081852  0  1.04721  0  0  0.111321  0.076875  0  1.054631  0
H  H11  1  0.75379866  0.09050847  0.97026101  1  0  0.075246  0  0.972259  0  0  0.078986  0  1.051624  0  0  0.081851  0  1.047239  0  0  0.111311  0.076868  0  1.054659  0
H  H12  1  0.05463756  0.14368180  0.53962292  1  0  0.097926  0  0.964747  0  0  0.10438  0  1.037023  0  0  0.107323  0  1.035342  0  0  0.090287  0.10227  0  1.038289  0
H  H13  1  0.44535545  0.64367949  0.96037748  1  0  0.09794  0  0.964674  0  0  0.104392  0  1.036943  0  0  0.107335  0  1.035261  0  0  0.090298  0.10228  0  1.038204  0
H  H14  1  0.94534634  0.85631378  0.46037986  1  0  0.097967  0  0.964703  0  0  0.104401  0  1.03703  0  0  0.107344  0  1.035348  0  0  0.090334  0.102286  0  1.038293  0
H  H15  1  0.55466242  0.35631837  0.03961807  1  0  0.097939  0  0.964754  0  0  0.104375  0  1.037055  0  0  0.107321  0  1.035371  0  0  0.090329  0.102262  0  1.038318  0
H  H16  1  0.22156080  0.03190886  0.44216689  1  0  0.090125  0  0.951601  0  0  0.102978  0  1.009153  0  0  0.105445  0  1.008978  0  0  0.095766  0.101208  0  1.009357  0
H  H17  1  0.27843975  0.53190651  0.05783445  1  0  0.090151  0  0.951707  0  0  0.102998  0  1.009259  0  0  0.105465  0  1.009085  0  0  0.09578  0.101228  0  1.009468  0
H  H18  1  0.77842763  0.96808748  0.55783493  1  0  0.090154  0  0.951756  0  0  0.103001  0  1.009295  0  0  0.105467  0  1.009122  0  0  0.095791  0.101212  0  1.009526  0
H  H19  1  0.72158044  0.46809363  0.94216225  1  0  0.090175  0  0.951702  0  0  0.103047  0  1.009223  0  0  0.105512  0  1.009054  0  0  0.095801  0.101279  0  1.009431  0
H  H20  1  0.00458723  0.05050190  0.31380633  1  0  0.078641  0  0.986448  0  0  0.085226  0  1.058994  0  0  0.08832  0  1.057225  0  0  0.075987  0.083016  0  1.060331  0
H  H21  1  0.49541140  0.55049919  0.18619495  1  0  0.078648  0  0.986479  0  0  0.085229  0  1.059019  0  0  0.088325  0  1.057242  0  0  0.075998  0.083021  0  1.060352  0
H  H22  1  0.99541030  0.94949976  0.68619519  1  0  0.078649  0  0.986493  0  0  0.085248  0  1.059016  0  0  0.088341  0  1.057246  0  0  0.075991  0.083037  0  1.060355  0
H  H23  1  0.50458830  0.44950399  0.81380229  1  0  0.078705  0  0.986431  0  0  0.085261  0  1.058992  0  0  0.088366  0  1.057189  0  0  0.076002  0.08305  0  1.060335  0
H  H24  1  0.61261380  0.18292871  0.27591274  1  0  0.081975  0  1.014908  0  0  0.08584  0  1.093583  0  0  0.088291  0  1.092454  0  0  0.074737  0.084123  0  1.094314  0
H  H25  1  0.88738479  0.68292875  0.22408823  1  0  0.081991  0  1.014871  0  0  0.085856  0  1.093554  0  0  0.088308  0  1.092425  0  0  0.074734  0.084141  0  1.09429  0
H  H26  1  0.38738148  0.81707295  0.72408980  1  0  0.081997  0  1.014928  0  0  0.08587  0  1.093607  0  0  0.088322  0  1.092476  0  0  0.074745  0.084152  0  1.094338  0
H  H27  1  0.11261038  0.31707519  0.77590997  1  0  0.081959  0  1.014988  0  0  0.085821  0  1.09368  0  0  0.088272  0  1.092551  0  0  0.074729  0.084104  0  1.094419  0
C  C28  1  0.40193525  0.34881485  0.45564306  1  0  0.241936  0  3.707322  0  0  0.17741  0  3.988002  0  0  0.195494  0  3.99896  0  0  0.141874  0.165691  0  3.980154  0
C  C29  1  0.09806470  0.84881437  0.04435706  1  0  0.241957  0  3.707408  0  0  0.177437  0  3.988085  0  0  0.195522  0  3.999046  0  0  0.141906  0.165745  0  3.980229  0
C  C30  1  0.59805322  0.65118377  0.54436038  1  0  0.242011  0  3.707364  0  0  0.177496  0  3.988071  0  0  0.195582  0  3.999022  0  0  0.141789  0.165791  0  3.980235  0
C  C31  1  0.90195094  0.15118577  0.95564006  1  0  0.242076  0  3.707248  0  0  0.177575  0  3.987964  0  0  0.195656  0  3.998907  0  0  0.141867  0.165886  0  3.980114  0
C  C32  1  0.95826594  0.15225847  0.48274448  1  0  -0.139013  0  3.741034  0  0  -0.155251  0  3.989655  0  0  -0.157987  0  4.009919  0  0  -0.099234  -0.153345  0  3.975941  0
C  C33  1  0.54172979  0.65225788  0.01725751  1  0  -0.138888  0  3.741011  0  0  -0.155081  0  3.989612  0  0  -0.157817  0  4.009877  0  0  -0.099198  -0.153169  0  3.975889  0
C  C34  1  0.04172705  0.84773711  0.51725746  1  0  -0.13882  0  3.740882  0  0  -0.155075  0  3.989484  0  0  -0.157809  0  4.009745  0  0  -0.099187  -0.153164  0  3.975754  0
C  C35  1  0.45828361  0.34774226  0.98274117  1  0  -0.138665  0  3.740787  0  0  -0.154927  0  3.989377  0  0  -0.157658  0  4.00963  0  0  -0.099183  -0.153017  0  3.975654  0
C  C36  1  0.04950451  0.09023787  0.42812288  1  0  -0.064498  0  3.762373  0  0  -0.079461  0  4.010701  0  0  -0.081768  0  4.033481  0  0  -0.097363  -0.077815  0  3.995146  0
C  C37  1  0.45049035  0.59023591  0.07187828  1  0  -0.064615  0  3.762537  0  0  -0.079601  0  4.010895  0  0  -0.081911  0  4.033676  0  0  -0.097406  -0.077963  0  3.995349  0
C  C38  1  0.95048397  0.90976151  0.57188110  1  0  -0.064603  0  3.762435  0  0  -0.079569  0  4.0108  0  0  -0.081875  0  4.033574  0  0  -0.097402  -0.077916  0  3.995264  0
C  C39  1  0.54951840  0.40976575  0.92811649  1  0  -0.064748  0  3.762458  0  0  -0.079754  0  4.010835  0  0  -0.082066  0  4.033615  0  0  -0.097435  -0.078115  0  3.995293  0
C  C40  1  0.92575064  0.10109246  0.35450529  1  0  -0.066317  0  3.784034  0  0  -0.080568  0  4.034339  0  0  -0.082749  0  4.057154  0  0  -0.105162  -0.078959  0  4.018721  0
C  C41  1  0.57424634  0.60109260  0.14549622  1  0  -0.066358  0  3.784152  0  0  -0.080606  0  4.034471  0  0  -0.082785  0  4.057288  0  0  -0.105188  -0.078991  0  4.018849  0
C  C42  1  0.07424236  0.89890844  0.64549719  1  0  -0.06642  0  3.78423  0  0  -0.080688  0  4.034553  0  0  -0.082868  0  4.057366  0  0  -0.105216  -0.07908  0  4.018935  0
C  C43  1  0.42575564  0.39891210  0.85450108  1  0  -0.066463  0  3.784201  0  0  -0.08069  0  4.03455  0  0  -0.082864  0  4.057366  0  0  -0.105212  -0.079078  0  4.018941  0
C  C44  1  0.70716419  0.17445969  0.33271357  1  0  -0.15599  0  3.782142  0  0  -0.171072  0  4.028783  0  0  -0.174827  0  4.05082  0  0  -0.108768  -0.168437  0  4.013726  0
C  C45  1  0.79283194  0.67445956  0.16728679  1  0  -0.15601  0  3.782169  0  0  -0.171075  0  4.028757  0  0  -0.174835  0  4.0508  0  0  -0.108775  -0.168445  0  4.013715  0
C  C46  1  0.29283106  0.82554045  0.66728788  1  0  -0.156  0  3.78213  0  0  -0.171094  0  4.028727  0  0  -0.174849  0  4.050762  0  0  -0.10879  -0.168461  0  4.013673  0
C  C47  1  0.20716547  0.32554362  0.83270984  1  0  -0.155935  0  3.782064  0  0  -0.171012  0  4.028597  0  0  -0.174768  0  4.050631  0  0  -0.108774  -0.168377  0  4.013552  0
C  C48  1  0.61499523  0.23646238  0.38744774  1  0  0.152772  0  3.788001  0  0  0.148255  0  4.023459  0  0  0.152052  0  4.046321  0  0  0.088301  0.145711  0  4.008016  0
C  C49  1  0.88500440  0.73646252  0.11255270  1  0  0.152776  0  3.788034  0  0  0.14829  0  4.023489  0  0  0.152088  0  4.046354  0  0  0.08834  0.145751  0  4.00807  0
C  C50  1  0.38500003  0.76353623  0.61255426  1  0  0.152886  0  3.787944  0  0  0.148413  0  4.023349  0  0  0.152209  0  4.04621  0  0  0.088364  0.145879  0  4.007913  0
C  C51  1  0.11500216  0.26353838  0.88744526  1  0  0.152843  0  3.787857  0  0  0.148394  0  4.023204  0  0  0.152187  0  4.046058  0  0  0.088382  0.145859  0  4.007782  0
C  C52  1  0.73788507  0.22632467  0.46151256  1  0  0.12752  0  3.820011  0  0  0.126481  0  4.060618  0  0  0.129386  0  4.085351  0  0  0.076455  0.124459  0  4.043927  0
C  C53  1  0.76210754  0.72632382  0.03848823  1  0  0.127503  0  3.820087  0  0  0.126394  0  4.060748  0  0  0.129298  0  4.085483  0  0  0.076408  0.124378  0  4.044046  0
C  C54  1  0.26210110  0.77367547  0.53849028  1  0  0.127356  0  3.820122  0  0  0.126317  0  4.060695  0  0  0.129224  0  4.085422  0  0  0.076334  0.124309  0  4.043983  0
C  C55  1  0.23790127  0.27367860  0.96150871  1  0  0.127236  0  3.820106  0  0  0.126272  0  4.060559  0  0  0.12918  0  4.085283  0  0  0.076311  0.124263  0  4.043849  0
I  I56  1  0.55492857  0.13916597  0.69638847  1  0  -0.321831  0  1.205024  0  0  -0.281532  0  1.556056  0  0  -0.298315  0  1.538505  0  0  -0.150053  -0.270507  0  1.568743  0
I  I57  1  0.94506174  0.63916684  0.80361378  1  0  -0.321816  0  1.205028  0  0  -0.281512  0  1.556071  0  0  -0.298302  0  1.538517  0  0  -0.150052  -0.270503  0  1.568752  0
I  I58  1  0.44505985  0.86083341  0.30361281  1  0  -0.321842  0  1.204992  0  0  -0.281531  0  1.556022  0  0  -0.298319  0  1.538473  0  0  -0.15006  -0.27051  0  1.568704  0
I  I59  1  0.05493803  0.36083178  0.19638617  1  0  -0.32185  0  1.205012  0  0  -0.281541  0  1.55605  0  0  -0.29833  0  1.538499  0  0  -0.150083  -0.27053  0  1.568727  0
I  I60  1  0.15627026  0.45713612  0.64043719  1  0  -0.278523  0  1.33083  0  0  -0.226509  0  1.71634  0  0  -0.245728  0  1.695534  0  0  -0.12323  -0.213153  0  1.731598  0
I  I61  1  0.34372666  0.95713671  0.85956320  1  0  -0.278534  0  1.330839  0  0  -0.226514  0  1.716351  0  0  -0.245728  0  1.695545  0  0  -0.123238  -0.213162  0  1.731573  0
I  I62  1  0.84372724  0.54286402  0.35956270  1  0  -0.278546  0  1.330827  0  0  -0.226521  0  1.716343  0  0  -0.245742  0  1.695536  0  0  -0.123234  -0.213171  0  1.731605  0
I  I63  1  0.65627994  0.04286419  0.14043693  1  0  -0.27856  0  1.330818  0  0  -0.22653  0  1.716309  0  0  -0.245751  0  1.695502  0  0  -0.123249  -0.213181  0  1.731555  0
N  N64  1  0.40394833  0.31451405  0.38635787  1  0  -0.331501  0  3.442336  0  0  -0.266115  0  3.668894  0  0  -0.283711  0  3.68149  0  0  -0.380616  -0.25435  0  3.660298  0
N  N65  1  0.09604638  0.81451351  0.11364212  1  0  -0.331406  0  3.442357  0  0  -0.266043  0  3.6689  0  0  -0.283631  0  3.681477  0  0  -0.380632  -0.254327  0  3.660358  0
N  N66  1  0.59604240  0.68548533  0.61364509  1  0  -0.331547  0  3.442456  0  0  -0.266194  0  3.669003  0  0  -0.283804  0  3.681624  0  0  -0.380616  -0.254472  0  3.660454  0
N  N67  1  0.90396015  0.18548739  0.88635475  1  0  -0.331502  0  3.442462  0  0  -0.26617  0  3.668995  0  0  -0.283782  0  3.681642  0  0  -0.380609  -0.254468  0  3.66046  0
N  N68  1  0.60015126  0.29844080  0.50213871  1  0  -0.389256  0  3.236907  0  0  -0.314307  0  3.51518  0  0  -0.3385  0  3.536124  0  0  -0.342065  -0.297961  0  3.500401  0
N  N69  1  0.89984442  0.79844064  0.99786146  1  0  -0.389328  0  3.23696  0  0  -0.314336  0  3.51521  0  0  -0.338529  0  3.536154  0  0  -0.342045  -0.297989  0  3.500411  0
N  N70  1  0.39984172  0.70155553  0.49786323  1  0  -0.389283  0  3.23686  0  0  -0.314306  0  3.51509  0  0  -0.338497  0  3.536031  0  0  -0.341996  -0.297962  0  3.500303  0
N  N71  1  0.10016668  0.20155950  0.00213608  1  0  -0.389302  0  3.236784  0  0  -0.314374  0  3.515022  0  0  -0.338566  0  3.535965  0  0  -0.34205  -0.298029  0  3.500226  0
