# generated using pymatgen
data_AlHC8S2O5F2
_symmetry_space_group_name_H-M   'P 1'
_cell_length_a   6.75504711
_cell_length_b   15.33636605
_cell_length_c   19.30104407
_cell_angle_alpha   90.00677473
_cell_angle_beta   89.93753799
_cell_angle_gamma   89.09097798
_symmetry_Int_Tables_number   1
_chemical_formula_structural   AlHC8S2O5F2
_chemical_formula_sum   'Al4 H4 C32 S8 O20 F8'
_cell_volume   1999.29429698
_cell_formula_units_Z   4
loop_
 _symmetry_equiv_pos_site_id
 _symmetry_equiv_pos_as_xyz
  1  'x, y, z'
loop_
 _atom_site_type_symbol
 _atom_site_label
 _atom_site_symmetry_multiplicity
 _atom_site_fract_x
 _atom_site_fract_y
 _atom_site_fract_z
 _atom_site_occupancy
 _atom_site_pbe_bader_charge
 _atom_site_pbe_bader_spin_density
 _atom_site_pbe_cm5_charge
 _atom_site_pbe_ddec_charge
 _atom_site_pbe_ddec_spin_density
 _atom_site_pbe_ddec_sum_bond_order
 _atom_site_pbe_magmom
Al  Al0  1  0.99254295  0.00059305  0.49932146  1  2.503917  0  0.402234  1.649265  0  2.565309  0
Al  Al1  1  0.49276626  0.99935987  0.50047853  1  2.501772  0  0.400364  1.652298  0  2.566062  0
Al  Al2  1  0.00722840  0.50060575  0.99950497  1  2.502247  0  0.400399  1.652113  0  2.566097  0
Al  Al3  1  0.50745841  0.49936223  0.00067127  1  2.504615  0  0.402422  1.649874  0  2.564525  0
H  H4  1  0.73776849  0.11513116  0.50221443  1  0.609327  0  0.357261  0.438975  0  0.839361  0
H  H5  1  0.24491018  0.88482858  0.50158256  1  0.609168  0  0.357215  0.439673  0  0.838644  0
H  H6  1  0.76226325  0.38482713  0.99786691  1  0.608006  0  0.357294  0.438869  0  0.839701  0
H  H7  1  0.25510890  0.61513109  0.99852632  1  0.61002  0  0.357215  0.439557  0  0.838761  0
C  C8  1  0.24323089  0.10196097  0.40540622  1  1.604027  0  0.260112  0.672032  0  4.138133  0
C  C9  1  0.23453450  0.10235177  0.59440925  1  1.614524  0  0.258864  0.672162  0  4.135213  0
C  C10  1  0.74458190  0.89791288  0.59446374  1  1.603458  0  0.259852  0.671153  0  4.136435  0
C  C11  1  0.74979995  0.89784720  0.40559233  1  1.604217  0  0.259541  0.669484  0  4.139586  0
C  C12  1  0.25674901  0.39802454  0.09460712  1  1.604147  0  0.260011  0.67201  0  4.138015  0
C  C13  1  0.26542093  0.39759651  0.90559321  1  1.613653  0  0.258598  0.671649  0  4.135209  0
C  C14  1  0.75539993  0.60203045  0.90551259  1  1.602506  0  0.259823  0.670762  0  4.136863  0
C  C15  1  0.75023515  0.60219650  0.09434568  1  1.605356  0  0.25909  0.668765  0  4.13983  0
C  C16  1  0.08599237  0.20510037  0.68727013  1  0.54266  0  0.100178  0.255693  0  4.073159  0
C  C17  1  0.41399810  0.29487844  0.81272250  1  0.542929  0  0.099908  0.255123  0  4.073885  0
C  C18  1  0.23940522  0.15958752  0.65530310  1  -0.103505  0  -0.031918  -0.252587  0  3.969082  0
C  C19  1  0.26056928  0.34037178  0.84469678  1  -0.106813  0  -0.031627  -0.25219  0  3.968984  0
C  C20  1  0.35259285  0.24531796  0.75523902  1  -0.132707  0  -0.031233  -0.123199  0  4.124902  0
C  C21  1  0.14741364  0.25468100  0.74474067  1  -0.068436  0  -0.031458  -0.12395  0  4.125366  0
C  C22  1  0.59483029  0.79277151  0.31740963  1  0.596647  0  0.101859  0.25691  0  4.065877  0
C  C23  1  0.90519843  0.70730352  0.18251284  1  0.539928  0  0.101818  0.256868  0  4.065901  0
C  C24  1  0.74886002  0.84048103  0.34478728  1  -0.090947  0  -0.031644  -0.252093  0  3.963422  0
C  C25  1  0.75116553  0.65961097  0.15512121  1  -0.089467  0  -0.031926  -0.251909  0  3.963155  0
C  C26  1  0.85020907  0.75612251  0.24166272  1  -0.08732  0  -0.031734  -0.124565  0  4.123927  0
C  C27  1  0.64982020  0.74391601  0.25827633  1  -0.204446  0  -0.031708  -0.124058  0  4.123408  0
C  C28  1  0.90485772  0.79262354  0.68329133  1  0.605123  0  0.101261  0.257087  0  4.068818  0
C  C29  1  0.59516143  0.70737183  0.81672025  1  0.605111  0  0.101284  0.257269  0  4.068925  0
C  C30  1  0.74882657  0.84058942  0.65529570  1  -0.083584  0  -0.031455  -0.251397  0  3.962499  0
C  C31  1  0.75118409  0.65938838  0.84470293  1  -0.083588  0  -0.031447  -0.251515  0  3.962613  0
C  C32  1  0.64913126  0.75624040  0.75788041  1  -0.144644  0  -0.031544  -0.124127  0  4.124291  0
C  C33  1  0.85090536  0.74376730  0.74214050  1  -0.206325  0  -0.031491  -0.123817  0  4.124204  0
C  C34  1  0.09035356  0.20799193  0.31557687  1  0.534763  0  0.100272  0.255201  0  4.071594  0
C  C35  1  0.40963478  0.29208027  0.18449037  1  0.577599  0  0.100679  0.255757  0  4.071609  0
C  C36  1  0.24379897  0.15942544  0.34465104  1  -0.03804  0  -0.031601  -0.251716  0  3.965464  0
C  C37  1  0.25617247  0.34060770  0.15539132  1  -0.080542  0  -0.03173  -0.251788  0  3.965495  0
C  C38  1  0.35125025  0.24344879  0.24292879  1  -0.17289  0  -0.032246  -0.124504  0  4.125199  0
C  C39  1  0.14876395  0.25665854  0.25716074  1  -0.108827  0  -0.031258  -0.123352  0  4.123949  0
S  S40  1  0.46567109  0.17781023  0.69535979  1  0.329695  0  0.105972  0.189879  0  2.838906  0
S  S41  1  0.03431655  0.32216206  0.80463077  1  0.330106  0  0.106039  0.190125  0  2.839125  0
S  S42  1  0.96721988  0.82556408  0.29786811  1  0.334755  0  0.105296  0.189025  0  2.811231  0
S  S43  1  0.53280616  0.67449662  0.20205228  1  0.334707  0  0.105288  0.18888  0  2.811015  0
S  S44  1  0.52969706  0.82591762  0.70121113  1  0.322003  0  0.104576  0.187552  0  2.818505  0
S  S45  1  0.97032956  0.67407316  0.79880201  1  0.321987  0  0.104455  0.187451  0  2.818647  0
S  S46  1  0.46596997  0.17340725  0.30047050  1  0.311731  0  0.105673  0.189518  0  2.820536  0
S  S47  1  0.03401707  0.32665779  0.19958845  1  0.311421  0  0.105543  0.189271  0  2.820424  0
O  O48  1  0.07675629  0.08579206  0.43312066  1  -1.242376  0  -0.234873  -0.585041  0  2.326542  0
O  O49  1  0.40306400  0.08363978  0.56755866  1  -1.259171  0  -0.238816  -0.595238  0  2.333031  0
O  O50  1  0.57284931  0.92553541  0.57629105  1  -1.24715  0  -0.238157  -0.590279  0  2.33148  0
O  O51  1  0.91887729  0.92655934  0.42336583  1  -1.25182  0  -0.23726  -0.586788  0  2.323851  0
O  O52  1  0.90894181  0.91449338  0.56531115  1  -1.251671  0  -0.236016  -0.587587  0  2.322396  0
O  O53  1  0.58450252  0.91334641  0.43527038  1  -1.246265  0  -0.235436  -0.586591  0  2.327862  0
O  O54  1  0.41325186  0.07381369  0.42501482  1  -1.251839  0  -0.238198  -0.591107  0  2.329163  0
O  O55  1  0.06605707  0.07694144  0.57391208  1  -1.24775  0  -0.23356  -0.581742  0  2.320023  0
O  O56  1  0.74024522  0.05206768  0.49989812  1  -1.408898  0  -0.447262  -0.99388  0  2.182492  0
O  O57  1  0.24398312  0.94793474  0.50011894  1  -1.409228  0  -0.446966  -0.994338  0  2.179017  0
O  O58  1  0.08672597  0.42613465  0.07496588  1  -1.251477  0  -0.238203  -0.591084  0  2.329132  0
O  O59  1  0.43389399  0.42300034  0.92609815  1  -1.243637  0  -0.23369  -0.581797  0  2.320097  0
O  O60  1  0.59103008  0.58543238  0.93464963  1  -1.252524  0  -0.235979  -0.587396  0  2.322791  0
O  O61  1  0.91553601  0.58666664  0.06467954  1  -1.247459  0  -0.234996  -0.586029  0  2.328019  0
O  O62  1  0.92713114  0.57440337  0.92368269  1  -1.245784  0  -0.238275  -0.5901  0  2.331541  0
O  O63  1  0.58116264  0.57345370  0.07659757  1  -1.252149  0  -0.237255  -0.586842  0  2.323701  0
O  O64  1  0.42324277  0.41419338  0.06690617  1  -1.243391  0  -0.234875  -0.585194  0  2.326622  0
O  O65  1  0.09688698  0.41631048  0.93244017  1  -1.259598  0  -0.238595  -0.594867  0  2.332751  0
O  O66  1  0.75974560  0.44789545  0.00010030  1  -1.407746  0  -0.447179  -0.993834  0  2.182691  0
O  O67  1  0.25602489  0.55202040  0.99988787  1  -1.410446  0  -0.446945  -0.994315  0  2.179187  0
F  F68  1  0.89677027  0.20472782  0.66559902  1  -0.628269  0  -0.085449  -0.113398  0  1.428658  0
F  F69  1  0.60320860  0.29523587  0.83440562  1  -0.628171  0  -0.085407  -0.113262  0  1.429089  0
F  F70  1  0.41088428  0.79100569  0.34406202  1  -0.624171  0  -0.084854  -0.111522  0  1.406849  0
F  F71  1  0.08915151  0.70908382  0.15586346  1  -0.625269  0  -0.084762  -0.111561  0  1.406421  0
F  F72  1  0.08982977  0.79049835  0.65736019  1  -0.626311  0  -0.085676  -0.112725  0  1.408539  0
F  F73  1  0.41019383  0.70949195  0.84265596  1  -0.626169  0  -0.085646  -0.11268  0  1.408532  0
F  F74  1  0.90394839  0.21078977  0.34016242  1  -0.626108  0  -0.084929  -0.112052  0  1.412736  0
F  F75  1  0.59602839  0.28927383  0.15989144  1  -0.625195  0  -0.085117  -0.11223  0  1.41283  0
