# generated using pymatgen
data_Al2H9C16S2NO10
_symmetry_space_group_name_H-M   'P 1'
_cell_length_a   6.65427236
_cell_length_b   11.05644403
_cell_length_c   12.77447503
_cell_angle_alpha   70.21473566
_cell_angle_beta   74.20302266
_cell_angle_gamma   73.15196003
_symmetry_Int_Tables_number   1
_chemical_formula_structural   Al2H9C16S2NO10
_chemical_formula_sum   'Al2 H9 C16 S2 N1 O10'
_cell_volume   830.43888557
_cell_formula_units_Z   1
loop_
 _symmetry_equiv_pos_site_id
 _symmetry_equiv_pos_as_xyz
  1  'x, y, z'
loop_
 _atom_site_type_symbol
 _atom_site_label
 _atom_site_symmetry_multiplicity
 _atom_site_fract_x
 _atom_site_fract_y
 _atom_site_fract_z
 _atom_site_occupancy
 _atom_site_pbe_bader_charge
 _atom_site_pbe_bader_spin_density
 _atom_site_pbe_cm5_charge
 _atom_site_pbe_ddec_charge
 _atom_site_pbe_ddec_spin_density
 _atom_site_pbe_ddec_sum_bond_order
 _atom_site_pbe_magmom
Al  Al0  1  0.49850669  0.50223304  0.49979336  1  2.503194  0  0.396534  1.642742  0  2.585111  0
Al  Al1  1  0.99913017  0.49856185  0.50522504  1  2.502312  0  0.39613  1.642633  0  2.571755  0
H  H2  1  0.26522269  0.60111050  0.36190163  1  0.623276  0  0.351878  0.43091  0  0.853298  0
H  H3  1  0.77531511  0.33876430  0.59108903  1  0.643934  0  0.353049  0.431663  0  0.852028  0
H  H4  1  0.85066106  0.86666704  0.55596512  1  0.132763  0  0.111785  0.117852  0  0.993731  0
H  H5  1  0.15242016  0.12980869  0.45032980  1  0.095482  0  0.107792  0.110977  0  1.001352  0
H  H6  1  0.71897059  0.10039618  0.56566077  1  0.070686  0  0.106917  0.107217  0  1.003786  0
H  H7  1  0.28438760  0.89555818  0.44095091  1  0.091224  0  0.112695  0.119107  0  0.99062  0
H  H8  1  0.65519799  0.43462958  0.16798635  1  0.130098  0  0.114705  0.137069  0  0.997222  0
H  H9  1  0.49633416  0.57049693  0.87520715  1  0.433991  0  0.286218  0.274258  0  1.013362  0
H  H10  1  0.47144433  0.55759712  0.74828250  1  0.502554  0  0.311415  0.322552  0  0.950119  0
C  C11  1  0.84275153  0.51311488  0.30259181  1  1.585  0  0.257159  0.645816  0  4.150203  0
C  C12  1  0.65197924  0.72918353  0.49290076  1  1.573215  0  0.267535  0.631994  0  4.108403  0
C  C13  1  0.16122226  0.48595570  0.70108310  1  1.51104  0  0.246423  0.648516  0  4.156067  0
C  C14  1  0.34958352  0.26764216  0.51390700  1  1.550472  0  0.268887  0.644593  0  4.089278  0
C  C15  1  0.57505508  0.86842998  0.49751748  1  -0.050934  0  -0.011332  -0.038586  0  3.969025  0
C  C16  1  0.42778725  0.12836971  0.50895384  1  -0.011444  0  -0.010789  -0.038384  0  3.960539  0
C  C17  1  0.69841791  0.92545072  0.53280126  1  -0.025939  0  -0.077453  -0.09059  0  3.964876  0
C  C18  1  0.30453364  0.07108727  0.47372345  1  -0.079843  0  -0.080317  -0.092413  0  3.971601  0
C  C19  1  0.62506791  0.05477717  0.53835551  1  -0.056121  0  -0.080453  -0.090008  0  3.974774  0
C  C20  1  0.37778086  0.94177521  0.46805545  1  0.048519  0  -0.077091  -0.08952  0  3.964662  0
C  C21  1  0.21800612  0.52513895  0.87487412  1  0.567053  0  0.108455  0.285563  0  4.115596  0
C  C22  1  0.80644696  0.46476907  0.12860994  1  0.070738  0  -0.090756  -0.138365  0  3.979819  0
C  C23  1  0.10329417  0.48648613  0.81830998  1  -0.123099  0  -0.04652  -0.270268  0  3.950682  0
C  C24  1  0.91393227  0.50463400  0.18539686  1  -0.169264  0  -0.02213  -0.120128  0  3.972456  0
C  C25  1  0.91846385  0.46945392  0.01690455  1  -0.201382  0  -0.02471  2e-05  0  4.121835  0
C  C26  1  0.10855337  0.51427569  0.98956284  1  -0.143903  0  -0.028815  -0.119909  0  4.021582  0
S  S27  1  0.87126625  0.43637487  0.90419600  1  0.200331  0  0.069546  0.098951  0  2.841652  0
S  S28  1  0.15232148  0.54730021  0.10327036  1  0.230077  0  0.079514  0.126644  0  2.754447  0
N  N29  1  0.39896853  0.57190040  0.82577160  1  -1.244651  0  -0.581149  -0.579607  0  3.3588  0
O  O30  1  0.65335865  0.49668288  0.35001644  1  -1.257889  0  -0.239749  -0.591262  0  2.328036  0
O  O31  1  0.83815487  0.66994209  0.51330443  1  -1.259435  0  -0.231572  -0.579237  0  2.342473  0
O  O32  1  0.03103703  0.45980486  0.65830487  1  -1.264698  0  -0.248698  -0.602837  0  2.325256  0
O  O33  1  0.47939677  0.32073223  0.53146508  1  -1.259892  0  -0.241016  -0.608696  0  2.344798  0
O  O34  1  0.34429384  0.51185899  0.64639062  1  -1.264178  0  -0.238182  -0.593251  0  2.351088  0
O  O35  1  0.15798200  0.32333616  0.50026976  1  -1.262874  0  -0.239556  -0.602623  0  2.346653  0
O  O36  1  0.97310178  0.53623959  0.34700204  1  -1.257918  0  -0.245713  -0.607087  0  2.330244  0
O  O37  1  0.52609480  0.67896836  0.46915925  1  -1.258165  0  -0.234128  -0.589144  0  2.353826  0
O  O38  1  0.24647621  0.56492682  0.44357795  1  -1.426312  0  -0.447347  -0.985621  0  2.182698  0
O  O39  1  0.75096800  0.43333016  0.55744866  1  -1.448015  0  -0.449159  -0.991543  0  2.193008  0
