# generated using pymatgen
data_CuH5C6(NO2)2
_symmetry_space_group_name_H-M   'P 1'
_cell_length_a   8.06426700
_cell_length_b   8.91030604
_cell_length_c   10.99143578
_cell_angle_alpha   111.06761472
_cell_angle_beta   89.99993153
_cell_angle_gamma   89.99992828
_symmetry_Int_Tables_number   1
_chemical_formula_structural   CuH5C6(NO2)2
_chemical_formula_sum   'Cu4 H20 C24 N8 O16'
_cell_volume   736.99849722
_cell_formula_units_Z   4
loop_
 _symmetry_equiv_pos_site_id
 _symmetry_equiv_pos_as_xyz
  1  'x, y, z'
loop_
 _atom_site_type_symbol
 _atom_site_label
 _atom_site_symmetry_multiplicity
 _atom_site_fract_x
 _atom_site_fract_y
 _atom_site_fract_z
 _atom_site_occupancy
 _atom_site_pbe_cm5_charge
 _atom_site_pbe_ddec_charge
 _atom_site_pbe_ddec_spin_density
 _atom_site_pbe_ddec_sum_bond_order
 _atom_site_pbe_magmom
Cu  Cu0  1  0.82422040  0.34576234  0.77724927  1  0.738196  0.801868  0.702575  2.242797  0.537
Cu  Cu1  1  0.32422100  0.15423366  0.72274965  1  0.738212  0.801789  -0.702572  2.242847  -0.537
Cu  Cu2  1  0.17578349  0.65423397  0.22274838  1  0.738217  0.80191  -0.702598  2.242805  -0.537
Cu  Cu3  1  0.67578164  0.84575784  0.27724569  1  0.738185  0.801756  0.702581  2.242725  0.537
H  H4  1  0.78760338  0.08874366  0.91977106  1  0.127839  0.108785  0.000774  1.015171  0.001
H  H5  1  0.28760632  0.41125963  0.58023638  1  0.12781  0.108737  -0.000774  1.015053  -0.001
H  H6  1  0.21239927  0.91126108  0.08023267  1  0.127804  0.108745  -0.000774  1.015064  -0.001
H  H7  1  0.71238888  0.58872709  0.41976850  1  0.127804  0.108706  0.000774  1.01506  0.001
H  H8  1  0.89849316  0.08828672  0.13231249  1  0.118112  0.140547  0.0003  1.020688  0.0
H  H9  1  0.39848699  0.41171737  0.36769541  1  0.118108  0.140551  -0.0003  1.020726  0.0
H  H10  1  0.10151073  0.91171803  0.86769397  1  0.118109  0.140559  -0.0003  1.020693  0.0
H  H11  1  0.60148838  0.58827656  0.63230974  1  0.11805  0.140503  0.0003  1.020744  0.0
H  H12  1  0.08708003  0.32122846  0.26347466  1  0.130525  0.100564  -0.000679  0.992254  -0.001
H  H13  1  0.58707351  0.17878335  0.23652213  1  0.130464  0.100504  0.000679  0.992122  0.001
H  H14  1  0.91293626  0.67877866  0.73651976  1  0.130493  0.100495  0.000679  0.992233  0.001
H  H15  1  0.41290805  0.82122616  0.76347116  1  0.130524  0.100616  -0.000678  0.992278  -0.001
H  H16  1  0.92304002  0.90467548  0.61770590  1  0.106861  0.022331  0.005817  0.996237  0.007
H  H17  1  0.42304171  0.59532331  0.88228508  1  0.106883  0.022382  -0.005816  0.996246  -0.007
H  H18  1  0.07696882  0.09532804  0.38229020  1  0.106855  0.022371  -0.005817  0.996161  -0.007
H  H19  1  0.57695845  0.40467302  0.11771804  1  0.106868  0.02238  0.005818  0.996169  0.007
H  H20  1  0.99568070  0.29815297  0.54082405  1  0.098906  0.002393  -0.000116  1.044642  0.0
H  H21  1  0.49566105  0.20187160  0.95918754  1  0.098843  0.002359  0.000115  1.044813  0.0
H  H22  1  0.00432070  0.70185657  0.45917743  1  0.098803  0.00228  0.000115  1.04462  0.0
H  H23  1  0.50431679  0.79813554  0.04081598  1  0.098896  0.002461  -0.000115  1.044661  0.0
C  C24  1  0.98743599  0.43152327  0.02037638  1  0.261905  0.290523  2.9e-05  4.026622  0.0
C  C25  1  0.48744253  0.06848064  0.47962501  1  0.26183  0.290523  -2.9e-05  4.026733  0.0
C  C26  1  0.01256790  0.56847906  0.97962483  1  0.261826  0.290578  -2.9e-05  4.026628  0.0
C  C27  1  0.51257004  0.93152048  0.52037312  1  0.261864  0.290496  2.8e-05  4.026615  0.0
C  C28  1  0.86388422  0.18759790  0.98254005  1  0.081762  0.151513  0.001902  3.839763  0.001
C  C29  1  0.36389607  0.31240044  0.51746316  1  0.081781  0.151553  -0.001903  3.839597  -0.001
C  C30  1  0.13610603  0.81239721  0.01745817  1  0.081746  0.151497  -0.001904  3.839783  -0.001
C  C31  1  0.63610533  0.68759469  0.48254325  1  0.081805  0.151598  0.001904  3.839752  0.001
C  C32  1  0.92829867  0.18728758  0.09990318  1  -0.057836  -0.140093  0.001068  3.842141  0.001
C  C33  1  0.42829631  0.31272006  0.40010572  1  -0.057799  -0.140094  -0.001067  3.842128  -0.001
C  C34  1  0.07170397  0.81271716  0.90010146  1  -0.057819  -0.140062  -0.001067  3.842303  -0.001
C  C35  1  0.57168525  0.68728108  0.59989970  1  -0.057782  -0.139977  0.001068  3.842232  0.001
C  C36  1  0.03029751  0.31475718  0.17216358  1  0.096783  0.196699  -0.001071  3.841957  0.0
C  C37  1  0.53029829  0.18524514  0.32783961  1  0.096761  0.196685  0.001071  3.841873  0.0
C  C38  1  0.96970762  0.68524394  0.82783456  1  0.096738  0.196667  0.001071  3.842054  0.0
C  C39  1  0.46969196  0.81475358  0.67216147  1  0.096731  0.196495  -0.001071  3.842208  0.0
C  C40  1  0.92814583  0.03793154  0.65231306  1  0.133332  0.492178  0.000128  4.221769  -0.003
C  C41  1  0.42814459  0.46206787  0.84768585  1  0.133366  0.492219  -0.000129  4.221642  0.003
C  C42  1  0.07185929  0.96206958  0.34768689  1  0.133372  0.492192  -0.000129  4.221768  0.003
C  C43  1  0.57186798  0.53793087  0.15231978  1  0.133408  0.492215  0.000128  4.221659  -0.003
C  C44  1  0.87661096  0.34972890  0.52338586  1  0.128939  0.469186  -0.001029  4.237467  -0.004
C  C45  1  0.37660127  0.15027659  0.97660667  1  0.128947  0.46907  0.00103  4.237721  0.004
C  C46  1  0.12340408  0.65026981  0.47661067  1  0.129066  0.46929  0.001028  4.237785  0.004
C  C47  1  0.62338401  0.84972093  0.02339315  1  0.128981  0.46903  -0.001031  4.237167  -0.004
N  N48  1  0.89523233  0.31103901  0.94269675  1  -0.323401  -0.273263  0.044608  3.541184  0.056
N  N49  1  0.39524430  0.18895566  0.55730355  1  -0.323404  -0.273281  -0.044611  3.541323  -0.056
N  N50  1  0.10476411  0.68895249  0.05729951  1  -0.323377  -0.273334  -0.044613  3.541469  -0.056
N  N51  1  0.60476703  0.81103585  0.44269635  1  -0.323351  -0.273256  0.044611  3.541311  0.056
N  N52  1  0.05831116  0.43815361  0.13224820  1  -0.318936  -0.288225  -0.038397  3.524308  -0.049
N  N53  1  0.55831825  0.06185224  0.36774688  1  -0.318795  -0.288113  0.038399  3.524298  0.049
N  N54  1  0.94169149  0.56185109  0.86774278  1  -0.318804  -0.288144  0.038396  3.524208  0.049
N  N55  1  0.44168936  0.93815368  0.63225082  1  -0.318891  -0.288093  -0.038399  3.524338  -0.049
O  O56  1  0.78862285  0.10844743  0.69192249  1  -0.32795  -0.497339  0.068206  2.341358  0.094
O  O57  1  0.28862052  0.39154983  0.80807957  1  -0.327974  -0.497352  -0.068202  2.34131  -0.094
O  O58  1  0.21138600  0.89155008  0.30807733  1  -0.327969  -0.49736  -0.068212  2.34131  -0.094
O  O59  1  0.71138213  0.60844168  0.19192034  1  -0.327912  -0.497256  0.068193  2.341749  0.094
O  O60  1  0.77302550  0.39058331  0.62034751  1  -0.339635  -0.511858  0.072251  2.388808  0.1
O  O61  1  0.27303214  0.10940917  0.87965227  1  -0.339502  -0.511651  -0.072227  2.389215  -0.1
O  O62  1  0.22696722  0.60941420  0.37965140  1  -0.339611  -0.511797  -0.072223  2.38919  -0.1
O  O63  1  0.72696431  0.89057751  0.12034168  1  -0.339558  -0.511615  0.072225  2.389109  0.1
O  O64  1  0.06262261  0.10704270  0.65068415  1  -0.336229  -0.56807  0.001109  2.405715  0.002
O  O65  1  0.56262555  0.39295257  0.84931663  1  -0.336245  -0.568096  -0.001107  2.405525  -0.002
O  O66  1  0.93738623  0.89296204  0.34931685  1  -0.33623  -0.568062  -0.001107  2.405715  -0.002
O  O67  1  0.43738082  0.60705098  0.15069039  1  -0.336346  -0.568231  0.001111  2.405293  0.002
O  O68  1  0.84844480  0.36509556  0.41721472  1  -0.319171  -0.497706  0.01433  2.185955  0.019
O  O69  1  0.34843077  0.13491103  0.08279486  1  -0.319235  -0.497762  -0.014342  2.185613  -0.019
O  O70  1  0.15155908  0.63491039  0.58278936  1  -0.319246  -0.497814  -0.01433  2.186014  -0.019
O  O71  1  0.65155328  0.86508767  0.91719711  1  -0.319301  -0.497893  0.014346  2.185208  0.019
