# generated using pymatgen
data_ZnH14C23SO6
_symmetry_space_group_name_H-M   'P 1'
_cell_length_a   7.82114714
_cell_length_b   11.44583053
_cell_length_c   12.64402109
_cell_angle_alpha   87.36739133
_cell_angle_beta   76.67929625
_cell_angle_gamma   82.40190031
_symmetry_Int_Tables_number   1
_chemical_formula_structural   ZnH14C23SO6
_chemical_formula_sum   'Zn2 H28 C46 S2 O12'
_cell_volume   1091.62306815
_cell_formula_units_Z   2
loop_
 _symmetry_equiv_pos_site_id
 _symmetry_equiv_pos_as_xyz
  1  'x, y, z'
loop_
 _atom_site_type_symbol
 _atom_site_label
 _atom_site_symmetry_multiplicity
 _atom_site_fract_x
 _atom_site_fract_y
 _atom_site_fract_z
 _atom_site_occupancy
 _atom_site_pbe_bader_spin_density
 _atom_site_pbe_cm5_charge
 _atom_site_pbe_ddec_charge
 _atom_site_pbe_ddec_spin_density
 _atom_site_pbe_ddec_sum_bond_order
 _atom_site_pbe_magmom
Zn  Zn0  1  0.15939052  0.42513180  0.53831039  1  0  0.633418  0.818006  0  2.395839  0
Zn  Zn1  1  0.84085523  0.57459663  0.46164310  1  0  0.634296  0.818311  0  2.396492  0
H  H2  1  0.43684163  0.43210676  0.67677840  1  0  0.106966  0.114574  0  1.044342  0
H  H3  1  0.56235942  0.56814790  0.32344499  1  0  0.107089  0.114741  0  1.044137  0
H  H4  1  0.77389221  0.24554615  0.35682712  1  0  0.100772  0.093895  0  1.059871  0
H  H5  1  0.22655802  0.75423494  0.64310891  1  0  0.10092  0.09429  0  1.059608  0
H  H6  1  0.50289841  0.03597022  0.62161158  1  0  0.105037  0.105148  0  1.006552  0
H  H7  1  0.49758370  0.96388450  0.37838263  1  0  0.105235  0.105339  0  1.006368  0
H  H8  1  0.27795677  0.25382317  0.26662950  1  0  0.105876  0.111929  0  1.011724  0
H  H9  1  0.72202750  0.74641148  0.73341828  1  0  0.105645  0.111578  0  1.011931  0
H  H10  1  0.62739862  0.07782614  0.88382575  1  0  0.106279  0.118309  0  1.038429  0
H  H11  1  0.37262716  0.92220476  0.11594801  1  0  0.105777  0.117375  0  1.038983  0
H  H12  1  0.21088404  0.32244308  0.79448441  1  0  0.111165  0.120815  0  0.998933  0
H  H13  1  0.78860885  0.67755456  0.20574936  1  0  0.111196  0.121244  0  0.999102  0
H  H14  1  0.85409974  0.18869620  0.76293702  1  0  0.108755  0.123818  0  1.009948  0
H  H15  1  0.14564335  0.81153210  0.23675435  1  0  0.108398  0.12363  0  1.010313  0
H  H16  1  0.49680201  0.37476405  0.36036526  1  0  0.107583  0.114562  0  1.003592  0
H  H17  1  0.50383258  0.62519929  0.63979125  1  0  0.107796  0.115312  0  1.003696  0
H  H18  1  0.22485413  0.16413560  0.62261240  1  0  0.107673  0.119773  0  0.993678  0
H  H19  1  0.77579725  0.83584804  0.37748409  1  0  0.108094  0.12069  0  0.9922  0
H  H20  1  0.39017962  0.12765166  0.10158041  1  0  0.109326  0.12468  0  1.022663  0
H  H21  1  0.60987046  0.87252278  0.89853485  1  0  0.10938  0.124816  0  1.022857  0
H  H22  1  0.81436678  0.38871183  0.15036417  1  0  0.111885  0.11907  0  0.985714  0
H  H23  1  0.18550523  0.61111511  0.84955560  1  0  0.111905  0.119015  0  0.985787  0
H  H24  1  0.92011675  0.25789204  0.98691397  1  0  0.114259  0.1243  0  0.988672  0
H  H25  1  0.07992470  0.74182944  0.01314243  1  0  0.114152  0.12437  0  0.988017  0
H  H26  1  0.96844678  0.10988884  0.33061564  1  0  0.104354  0.104059  0  1.026851  0
H  H27  1  0.03201971  0.88986627  0.66935784  1  0  0.104489  0.10415  0  1.026498  0
H  H28  1  0.25287211  0.00264495  0.34034824  1  0  0.103895  0.100031  0  1.02866  0
H  H29  1  0.74760099  0.99711211  0.65963197  1  0  0.103539  0.099565  0  1.02847  0
C  C30  1  0.79059517  0.37597866  0.62751933  1  0  0.222272  0.586187  0  4.147165  0
C  C31  1  0.20877773  0.62427603  0.37246044  1  0  0.222987  0.588018  0  4.144723  0
C  C32  1  0.34923435  0.28510275  0.50019338  1  0  -0.080115  -0.133169  0  3.744097  0
C  C33  1  0.65106628  0.71491694  0.49985935  1  0  -0.078082  -0.128747  0  3.740822  0
C  C34  1  0.83245849  0.06375731  0.49462320  1  0  0.015481  0.092485  0  3.938141  0
C  C35  1  0.16805058  0.93604716  0.50532090  1  0  0.015692  0.092122  0  3.938849  0
C  C36  1  0.66338347  0.13277388  0.49128747  1  0  0.006274  0.071727  0  3.955438  0
C  C37  1  0.33711266  0.86706956  0.50869868  1  0  0.006519  0.07194  0  3.955393  0
C  C38  1  0.47806491  0.35495820  0.72234478  1  0  -0.079662  -0.085355  0  3.946752  0
C  C39  1  0.52131018  0.64525859  0.27778540  1  0  -0.080251  -0.085696  0  3.94764  0
C  C40  1  0.65440208  0.22628878  0.41460475  1  0  -0.075705  -0.093057  0  3.897523  0
C  C41  1  0.34604441  0.77356705  0.58539685  1  0  -0.075686  -0.093297  0  3.898289  0
C  C42  1  0.50355680  0.11005664  0.56420953  1  0  -0.075939  -0.107873  0  3.931643  0
C  C43  1  0.49693076  0.88983636  0.43579999  1  0  -0.07529  -0.106756  0  3.930344  0
C  C44  1  0.65852402  0.31467932  0.70946008  1  0  -0.010406  -0.023969  0  3.939221  0
C  C45  1  0.34090955  0.68553585  0.29051729  1  0  -0.010458  -0.025504  0  3.940536  0
C  C46  1  0.15911612  0.18658464  0.03655111  1  0  -0.013881  -0.064171  0  3.962604  0
C  C47  1  0.84089559  0.81335147  0.96351958  1  0  -0.014257  -0.064715  0  3.962611  0
C  C48  1  0.20179118  0.25425378  0.20443442  1  0  -0.07677  -0.078799  0  3.937021  0
C  C49  1  0.79819226  0.74588870  0.79560169  1  0  -0.076529  -0.07832  0  3.937967  0
C  C50  1  0.40755677  0.19104456  0.84206825  1  0  -0.020979  -0.081572  0  3.987579  0
C  C51  1  0.59224188  0.80897691  0.15790096  1  0  -0.021125  -0.082209  0  3.988607  0
C  C52  1  0.58719522  0.15425573  0.83665498  1  0  -0.083623  -0.095565  0  3.962523  0
C  C53  1  0.41266242  0.84577840  0.16317958  1  0  -0.083335  -0.094151  0  3.961709  0
C  C54  1  0.04049249  0.32830565  0.21723264  1  0  -0.011967  -0.031883  0  3.967878  0
C  C55  1  0.95939482  0.67173351  0.78273369  1  0  -0.012184  -0.032368  0  3.96716  0
C  C56  1  0.97762384  0.40488777  0.31489179  1  0  0.205651  0.561999  0  4.20583  0
C  C57  1  0.02193149  0.59525646  0.68496868  1  0  0.206526  0.564124  0  4.203882  0
C  C58  1  0.35114652  0.29351516  0.78875633  1  0  -0.081103  -0.09123  0  3.97937  0
C  C59  1  0.64841454  0.70657435  0.21137673  1  0  -0.080823  -0.09114  0  3.979378  0
C  C60  1  0.71333916  0.21681467  0.76984681  1  0  -0.077665  -0.084895  0  3.931127  0
C  C61  1  0.28633645  0.78333259  0.22997468  1  0  -0.077198  -0.084205  0  3.930182  0
C  C62  1  0.49798020  0.29977645  0.41664796  1  0  -0.08533  -0.059981  0  4.001809  0
C  C63  1  0.50249123  0.70015857  0.58346966  1  0  -0.084978  -0.060517  0  4.002066  0
C  C64  1  0.34574240  0.18232903  0.56491215  1  0  -0.087283  -0.071545  0  4.015466  0
C  C65  1  0.65482999  0.81764746  0.43514709  1  0  -0.087252  -0.073066  0  4.01428  0
C  C66  1  0.26298139  0.18346194  0.11350610  1  0  -0.079757  -0.094058  0  3.950734  0
C  C67  1  0.73697638  0.81659349  0.88656411  1  0  -0.080047  -0.094594  0  3.95193  0
C  C68  1  0.93881142  0.33028090  0.13912174  1  0  -0.074449  -0.082863  0  3.942276  0
C  C69  1  0.06111544  0.66963336  0.86084932  1  0  -0.074314  -0.082715  0  3.941206  0
C  C70  1  0.99733013  0.25861796  0.04839363  1  0  -0.075073  -0.082194  0  3.965137  0
C  C71  1  0.00262531  0.74122398  0.95166276  1  0  -0.074754  -0.082049  0  3.963294  0
C  C72  1  0.98131557  0.06367932  0.40604915  1  0  -0.073571  -0.097398  0  3.916846  0
C  C73  1  0.01919068  0.93609600  0.59391276  1  0  -0.073965  -0.09737  0  3.916877  0
C  C74  1  0.14359539  0.00278529  0.41147101  1  0  -0.073148  -0.101271  0  3.937732  0
C  C75  1  0.85691323  0.99700427  0.58849610  1  0  -0.072885  -0.101185  0  3.937278  0
S  S76  1  0.24418434  0.10453590  0.91512717  1  0  0.472272  0.959848  0  5.759778  0
S  S77  1  0.75582985  0.89536133  0.08494673  1  0  0.472537  0.96027  0  5.758904  0
O  O78  1  0.72599993  0.45114969  0.56541453  1  0  -0.295394  -0.51065  0  2.368467  0
O  O79  1  0.27318978  0.54915042  0.43462474  1  0  -0.295746  -0.51177  0  2.368734  0
O  O80  1  0.84458964  0.48332999  0.31837775  1  0  -0.304334  -0.520114  0  2.275611  0
O  O81  1  0.15500936  0.51682804  0.68129831  1  0  -0.304792  -0.520676  0  2.276396  0
O  O82  1  0.95335133  0.34605555  0.62741057  1  0  -0.29635  -0.505801  0  2.3252  0
O  O83  1  0.04600831  0.65429398  0.37249283  1  0  -0.296806  -0.505985  0  2.3232  0
O  O84  1  0.05945087  0.38860759  0.39134432  1  0  -0.298404  -0.545854  0  2.332636  0
O  O85  1  0.93976478  0.61173281  0.60868461  1  0  -0.298632  -0.546684  0  2.331653  0
O  O86  1  0.33323841  0.99108604  0.94153349  1  0  -0.313724  -0.524382  0  2.198823  0
O  O87  1  0.66698803  0.00887795  0.05848689  1  0  -0.313755  -0.524646  0  2.197263  0
O  O88  1  0.10503074  0.10923497  0.85573571  1  0  -0.316656  -0.520035  0  2.152438  0
O  O89  1  0.89489134  0.89052190  0.14440897  1  0  -0.316932  -0.520066  0  2.152617  0
