# generated using pymatgen
data_CuH10C6(N4Cl)2
_symmetry_space_group_name_H-M   'P 1'
_cell_length_a   6.71853496
_cell_length_b   11.49037039
_cell_length_c   14.58380128
_cell_angle_alpha   89.99994975
_cell_angle_beta   90.00004680
_cell_angle_gamma   90.01472489
_symmetry_Int_Tables_number   1
_chemical_formula_structural   CuH10C6(N4Cl)2
_chemical_formula_sum   'Cu4 H40 C24 N32 Cl8'
_cell_volume   1125.84689172
_cell_formula_units_Z   4
loop_
 _symmetry_equiv_pos_site_id
 _symmetry_equiv_pos_as_xyz
  1  'x, y, z'
loop_
 _atom_site_type_symbol
 _atom_site_label
 _atom_site_symmetry_multiplicity
 _atom_site_fract_x
 _atom_site_fract_y
 _atom_site_fract_z
 _atom_site_occupancy
 _atom_site_hle17_ddec_charge
 _atom_site_hle17_ddec_spin_density
 _atom_site_hle17_ddec_sum_bond_order
 _atom_site_hle17_magmom
 _atom_site_hse06_10hf_ddec_charge
 _atom_site_hse06_10hf_ddec_spin_density
 _atom_site_hse06_10hf_ddec_sum_bond_order
 _atom_site_hse06_10hf_magmom
 _atom_site_hse06_ddec_charge
 _atom_site_hse06_ddec_spin_density
 _atom_site_hse06_ddec_sum_bond_order
 _atom_site_hse06_magmom
 _atom_site_pbe_cm5_charge
 _atom_site_pbe_ddec_charge
 _atom_site_pbe_ddec_spin_density
 _atom_site_pbe_ddec_sum_bond_order
 _atom_site_pbe_magmom
Cu  Cu0  1  0.16899210  0.12577825  0.99999982  1  0.763094  0.68636  1.888001  0.461  0.744467  0.781956  2.301179  0.579  0.836612  0.877436  2.223862  0.664  0.604028  0.691953  0.718557  2.35114  0.529
Cu  Cu1  1  0.66907546  0.37413473  0.50000032  1  0.762882  -0.646328  1.888068  -0.462  0.744283  -0.74627  2.300826  -0.58  0.836161  -0.819099  2.224032  -0.664  0.604032  0.69201  -0.700033  2.350592  -0.532
Cu  Cu2  1  0.33105326  0.62586454  0.50000035  1  0.76279  -0.646294  1.887952  -0.462  0.744357  -0.746317  2.30078  -0.58  0.836224  -0.819202  2.223928  -0.664  0.603983  0.692029  -0.699926  2.350559  -0.532
Cu  Cu3  1  0.83087764  0.87423058  0.00000016  1  0.762962  -0.645392  1.888193  -0.461  0.744054  -0.745004  2.301471  -0.579  0.836265  -0.81879  2.224192  -0.664  0.604106  0.691617  -0.696097  2.351324  -0.529
H  H4  1  0.11274513  0.12803860  0.42212992  1  0.126869  -4e-06  0.939136  0.0  0.146105  -0.000127  1.001188  0.0  0.147957  -0.000104  1.000111  0.0  0.114095  0.144726  -0.00014  1.001993  0.0
H  H5  1  0.11274414  0.12803937  0.57787053  1  0.126877  -7e-06  0.939184  0.0  0.146113  -0.000127  1.001233  0.0  0.147965  -0.000104  1.000155  0.0  0.114093  0.144734  -0.00014  1.002037  0.0
H  H6  1  0.61275428  0.37198207  0.92214679  1  0.126909  -0.000308  0.939081  0.0  0.146137  -0.000346  1.001129  0.0  0.147981  -0.000253  1.000073  0.0  0.114118  0.144768  -0.000419  1.001907  0.0
H  H7  1  0.38725064  0.62803930  0.92215570  1  0.126705  -0.000125  0.939229  0.0  0.146065  -9.5e-05  1.001199  0.0  0.147923  -4.6e-05  1.000114  0.0  0.114097  0.144692  -0.000143  1.001988  0.0
H  H8  1  0.88726007  0.87198329  0.57788720  1  0.126732  -0.000474  0.939251  0.0  0.146077  -0.000595  1.001217  0.0  0.147924  -0.000432  1.000148  0.0  0.11402  0.144711  -0.000722  1.001989  0.0
H  H9  1  0.88726254  0.87198426  0.42211368  1  0.126865  -0.000474  0.93923  0.0  0.146169  -0.000595  1.001211  0.0  0.148015  -0.000432  1.000144  0.0  0.114062  0.144802  -0.000722  1.001985  0.0
H  H10  1  0.38725240  0.62803895  0.07784427  1  0.126694  -0.000128  0.939251  0.0  0.146056  -9.5e-05  1.001218  0.0  0.147914  -4.6e-05  1.000132  0.0  0.114099  0.144683  -0.000143  1.002008  0.0
H  H11  1  0.61275604  0.37198085  0.07785320  1  0.126815  -0.000307  0.939042  0.0  0.146045  -0.000346  1.001135  0.0  0.14789  -0.000253  1.000075  0.0  0.114064  0.144676  -0.000419  1.001913  0.0
H  H12  1  0.36872899  0.15300121  0.39384983  1  0.120195  -3e-06  0.968033  0.0  0.131035  -9.6e-05  1.045322  0.0  0.132323  -5.4e-05  1.044783  0.0  0.103796  0.129967  -0.000131  1.045832  0.0
H  H13  1  0.36872967  0.15300108  0.60614976  1  0.120203  -3e-06  0.968044  0.0  0.131041  -9.6e-05  1.045332  0.0  0.132329  -5.4e-05  1.044793  0.0  0.103795  0.129973  -0.000131  1.045841  0.0
H  H14  1  0.86870923  0.34703681  0.89386603  1  0.120164  -0.00028  0.968184  0.0  0.131069  -0.000266  1.045389  0.0  0.132329  -0.000222  1.044868  0.0  0.103807  0.130008  -0.000294  1.045898  0.0
H  H15  1  0.13128061  0.65296459  0.89387507  1  0.120102  0.000328  0.968283  0.0  0.131052  0.00028  1.045459  0.0  0.132327  0.00023  1.04492  0.0  0.103791  0.129979  0.000307  1.045984  0.0
H  H16  1  0.63128959  0.84700240  0.60616249  1  0.12028  4.3e-05  0.967958  0.0  0.131129  -8.1e-05  1.045261  0.0  0.132379  -4.8e-05  1.044748  0.0  0.103833  0.130076  -0.000113  1.045738  0.0
H  H17  1  0.63129189  0.84700340  0.39383719  1  0.120303  4.3e-05  0.96795  0.0  0.131142  -8.1e-05  1.045244  0.0  0.132392  -4.8e-05  1.044732  0.0  0.103835  0.130089  -0.000113  1.045726  0.0
H  H18  1  0.13128256  0.65296506  0.10612366  1  0.120105  0.000328  0.968291  0.0  0.131058  0.00028  1.045464  0.0  0.132332  0.00023  1.044925  0.0  0.103789  0.129984  0.000307  1.04599  0.0
H  H19  1  0.86871118  0.34703642  0.10613451  1  0.120087  -0.000281  0.968184  0.0  0.131031  -0.000266  1.045379  0.0  0.13229  -0.000222  1.044859  0.0  0.10381  0.12997  -0.000294  1.045888  0.0
H  H20  1  0.26866489  0.00699992  0.39222962  1  0.119164  -0.000926  0.955061  0.0  0.137471  -0.000904  1.020595  0.0  0.13931  -0.000685  1.019286  0.0  0.099224  0.136182  -0.001064  1.021465  0.0
H  H21  1  0.26866409  0.00700066  0.60777013  1  0.119181  -0.000926  0.955018  0.0  0.137487  -0.000903  1.020549  0.0  0.139325  -0.000685  1.019242  0.0  0.099225  0.136199  -0.001064  1.021418  0.0
H  H22  1  0.76874310  0.49303047  0.89223270  1  0.11928  -0.000902  0.9551  0.0  0.137543  -0.000897  1.020682  0.0  0.139389  -0.000692  1.019374  0.0  0.099312  0.136258  -0.001046  1.021542  0.0
H  H23  1  0.23126906  0.50697267  0.89225411  1  0.119243  0.000988  0.955279  0.0  0.137511  0.000942  1.020905  0.0  0.139358  0.000736  1.0196  0.0  0.09929  0.136221  0.001078  1.021762  0.0
H  H24  1  0.73133137  0.99300630  0.60779711  1  0.119272  -0.000873  0.955006  0.0  0.137572  -0.000866  1.020579  0.0  0.139407  -0.000667  1.019274  0.0  0.099288  0.136278  -0.001013  1.021446  0.0
H  H25  1  0.73133365  0.99300644  0.39220311  1  0.119289  -0.000873  0.955016  0.0  0.13758  -0.000866  1.020581  0.0  0.139415  -0.000667  1.019275  0.0  0.099291  0.136292  -0.001013  1.021444  0.0
H  H26  1  0.23126953  0.50697315  0.10774534  1  0.119246  0.00099  0.955268  0.0  0.137515  0.000942  1.020891  0.0  0.139363  0.000736  1.019587  0.0  0.099291  0.136224  0.001078  1.021749  0.0
H  H27  1  0.76874505  0.49303007  0.10776781  1  0.119264  -0.000901  0.955126  0.0  0.137538  -0.000897  1.020716  0.0  0.139384  -0.000691  1.019409  0.0  0.09932  0.136253  -0.001046  1.021578  0.0
H  H28  1  0.56895243  0.10543171  0.25797780  1  0.106058  3e-06  0.928091  0.0  0.116835  4.3e-05  0.994455  0.0  0.119099  1.6e-05  0.99358  0.0  0.10664  0.115252  6.5e-05  0.995089  0.0
H  H29  1  0.56895398  0.10543054  0.74202170  1  0.106069  6e-06  0.928085  0.0  0.116825  4.3e-05  0.994471  0.0  0.119089  1.6e-05  0.993596  0.0  0.106621  0.115249  6.5e-05  0.995096  0.0
H  H30  1  0.06896731  0.39461318  0.75798673  1  0.106024  -1.8e-05  0.928269  0.0  0.116759  -1.9e-05  0.994637  0.0  0.119018  3e-06  0.993764  0.0  0.106583  0.115183  -3.9e-05  0.995266  0.0
H  H31  1  0.93103655  0.60539795  0.75798435  1  0.106045  4.6e-05  0.92815  0.0  0.116774  3e-05  0.994562  0.0  0.119035  4.2e-05  0.993688  0.0  0.106606  0.115226  1.7e-05  0.995157  0.0
H  H32  1  0.43104680  0.89457887  0.74201875  1  0.106064  0.000116  0.928137  0.0  0.116832  7.6e-05  0.994477  0.0  0.119097  7.9e-05  0.993604  0.0  0.106649  0.115248  7.1e-05  0.995109  0.0
H  H33  1  0.43104823  0.89457829  0.25798171  1  0.106081  0.000116  0.928114  0.0  0.116831  7.6e-05  0.99448  0.0  0.119095  7.9e-05  0.993608  0.0  0.106646  0.115253  7.1e-05  0.995107  0.0
H  H34  1  0.93103639  0.60539653  0.24201599  1  0.106049  4.6e-05  0.928136  0.0  0.116787  3e-05  0.994535  0.0  0.119048  4.2e-05  0.993661  0.0  0.106603  0.115235  1.7e-05  0.995134  0.0
H  H35  1  0.06896863  0.39461262  0.24201426  1  0.105993  -1.8e-05  0.928255  0.0  0.116744  -1.9e-05  0.99463  0.0  0.119004  3e-06  0.993756  0.0  0.106581  0.115167  -3.9e-05  0.99526  0.0
H  H36  1  0.55330907  0.10199533  0.13659862  1  0.124574  -0.000203  0.958324  0.0  0.136127  -0.000302  1.023084  0.0  0.139144  -0.000247  1.020775  0.0  0.097814  0.133871  -0.000344  1.024904  0.0
H  H37  1  0.55331140  0.10199402  0.86340090  1  0.124605  -0.000203  0.958289  0.0  0.136175  -0.000302  1.023031  0.0  0.139196  -0.000247  1.020709  0.0  0.097835  0.133919  -0.000344  1.024851  0.0
H  H38  1  0.05334414  0.39801993  0.63660412  1  0.124765  4e-06  0.958037  0.0  0.136233  -8.1e-05  1.022835  0.0  0.139264  -1.9e-05  1.020499  0.0  0.097866  0.133958  -0.000144  1.024675  0.0
H  H39  1  0.94668425  0.60198613  0.63660310  1  0.12475  9e-06  0.958056  0.0  0.136211  -7.7e-05  1.0229  0.0  0.139238  -1.4e-05  1.020576  0.0  0.097867  0.133937  -0.000142  1.024738  0.0
H  H40  1  0.44664849  0.89801263  0.86340068  1  0.12461  0.000226  0.958187  0.0  0.136133  0.000316  1.02299  0.0  0.139166  0.000265  1.020656  0.0  0.097788  0.133873  0.000352  1.024813  0.0
H  H41  1  0.44664914  0.89801308  0.13659977  1  0.124613  0.000225  0.958193  0.0  0.136155  0.000316  1.022961  0.0  0.139187  0.000265  1.020625  0.0  0.097783  0.133894  0.000352  1.024788  0.0
H  H42  1  0.94668635  0.60198543  0.36339655  1  0.124738  8e-06  0.958071  0.0  0.136177  -7.7e-05  1.022941  0.0  0.139203  -1.4e-05  1.020621  0.0  0.097867  0.133903  -0.000142  1.024779  0.0
H  H43  1  0.05334326  0.39801922  0.36339688  1  0.124714  2e-06  0.958047  0.0  0.136195  -8.1e-05  1.022856  0.0  0.139228  -1.9e-05  1.020519  0.0  0.097852  0.133921  -0.000144  1.024696  0.0
C  C44  1  0.27713915  0.10255077  0.20604082  1  0.326003  -0.003063  3.647345  -0.002  0.278997  0.000154  3.925105  0.001  0.294892  -0.000771  3.939983  -0.001  0.253119  0.268842  0.000837  3.915001  0.002
C  C45  1  0.27713955  0.10255128  0.79395955  1  0.326029  -0.003054  3.647239  -0.002  0.279022  0.000154  3.924978  0.001  0.294917  -0.000769  3.939858  -0.001  0.25313  0.268866  0.000837  3.914878  0.002
C  C46  1  0.77715522  0.39739165  0.70604601  1  0.325363  0.003384  3.647955  0.002  0.2782  -1.7e-05  3.925656  -0.001  0.294085  0.000979  3.94057  0.0  0.252774  0.268092  -0.00078  3.915478  -0.002
C  C47  1  0.22285872  0.60259431  0.70605914  1  0.324972  0.003427  3.647804  0.002  0.277951  2e-06  3.925523  -0.001  0.293843  0.000986  3.940418  0.001  0.25272  0.267847  -0.000748  3.915344  -0.002
C  C48  1  0.72283923  0.89743718  0.79397699  1  0.325716  0.003355  3.647358  0.002  0.278392  -5.9e-05  3.92532  -0.001  0.294316  0.000964  3.940185  0.0  0.252911  0.268272  -0.000837  3.915179  -0.002
C  C49  1  0.72284182  0.89743754  0.20602397  1  0.325719  0.003354  3.647424  0.002  0.278428  -5.9e-05  3.925354  -0.001  0.294351  0.000966  3.940221  0.0  0.252921  0.268309  -0.000837  3.915211  -0.002
C  C50  1  0.22286037  0.60259369  0.29394094  1  0.324923  0.00343  3.647818  0.002  0.277915  2e-06  3.925545  -0.001  0.293808  0.000986  3.940439  0.001  0.25271  0.26781  -0.000748  3.915366  -0.002
C  C51  1  0.77715539  0.39739190  0.29395455  1  0.325348  0.003387  3.648083  0.002  0.278152  -1.7e-05  3.925731  -0.001  0.294039  0.00098  3.940643  0.0  0.252774  0.268048  -0.00078  3.915547  -0.002
C  C52  1  0.23740378  0.09938580  0.37937287  1  -0.190907  -0.000371  3.586707  0.0  -0.300455  -0.000653  3.818932  0.0  -0.298484  -0.000429  3.82583  0.0  -0.127088  -0.301208  -0.000831  3.814069  -0.001
C  C53  1  0.23740306  0.09938652  0.62062684  1  -0.190985  -0.000367  3.586827  0.0  -0.300545  -0.000654  3.819044  0.0  -0.298573  -0.00043  3.825939  0.0  -0.127118  -0.301296  -0.000831  3.814177  -0.001
C  C54  1  0.73741756  0.40063814  0.87938080  1  -0.191111  -0.001714  3.586921  -0.002  -0.300724  -0.001628  3.818994  -0.001  -0.298713  -0.001247  3.825891  -0.001  -0.127211  -0.301443  -0.001909  3.814071  -0.002
C  C55  1  0.26257814  0.59936415  0.87940077  1  -0.190962  0.00043  3.587396  0.0  -0.300792  0.000586  3.819616  0.0  -0.298787  0.000448  3.826491  0.0  -0.127202  -0.301495  0.000666  3.814706  0.0
C  C56  1  0.76260736  0.90061956  0.62065180  1  -0.191194  -0.001719  3.586797  -0.002  -0.300937  -0.001729  3.819076  -0.001  -0.298929  -0.001283  3.826019  -0.001  -0.127199  -0.301627  -0.002076  3.814166  -0.002
C  C57  1  0.76260957  0.90062057  0.37934777  1  -0.191345  -0.001719  3.58691  -0.002  -0.301004  -0.001729  3.819143  -0.001  -0.298998  -0.001283  3.826087  -0.001  -0.127208  -0.301705  -0.002076  3.814232  -0.002
C  C58  1  0.26257869  0.59936461  0.12059861  1  -0.190991  0.000431  3.587387  0.0  -0.300812  0.000585  3.819643  0.0  -0.298815  0.000448  3.82653  0.0  -0.127211  -0.301518  0.000666  3.814736  0.0
C  C59  1  0.73741960  0.40063860  0.12061978  1  -0.19079  -0.001717  3.586871  -0.002  -0.300555  -0.001628  3.818952  -0.001  -0.298543  -0.001247  3.825854  -0.001  -0.127169  -0.301276  -0.001909  3.814031  -0.002
C  C60  1  0.48814475  0.06697768  0.19988256  1  -0.19177  0.000106  3.670171  0.001  -0.230894  -7.3e-05  3.916815  0.0  -0.233966  3e-05  3.925323  0.0  -0.149373  -0.228569  -0.000149  3.910703  0.0
C  C61  1  0.48814518  0.06697732  0.80011770  1  -0.19189  0.000102  3.670151  0.001  -0.230993  -7.4e-05  3.916729  0.0  -0.234064  3e-05  3.925237  0.0  -0.149405  -0.228671  -0.000149  3.910611  0.0
C  C62  1  0.98815828  0.43301818  0.69988225  1  -0.191875  0.000553  3.670405  0.0  -0.230779  0.000295  3.916749  0.0  -0.233841  0.000323  3.925229  0.0  -0.149363  -0.228463  0.000244  3.910662  0.0
C  C63  1  0.01184670  0.56698171  0.69988387  1  -0.191766  0.000558  3.670342  0.0  -0.230719  0.000294  3.916669  0.0  -0.233789  0.000327  3.925164  0.0  -0.149353  -0.228417  0.000241  3.910556  0.0
C  C64  1  0.51184406  0.93302332  0.80012085  1  -0.191881  -2e-05  3.670277  -0.001  -0.230806  0.000134  3.91676  0.0  -0.233899  3.6e-05  3.925269  0.0  -0.149377  -0.228465  0.000201  3.910625  0.0
C  C65  1  0.51184512  0.93302369  0.19987954  1  -0.191949  -2.1e-05  3.670275  -0.001  -0.230885  0.000134  3.916772  0.0  -0.233974  3.5e-05  3.92527  0.0  -0.149409  -0.228549  0.000201  3.910641  0.0
C  C66  1  0.01184691  0.56698108  0.30011636  1  -0.191796  0.000558  3.670361  0.0  -0.230703  0.000294  3.916681  0.0  -0.233774  0.000327  3.92518  0.0  -0.149369  -0.2284  0.000241  3.910572  0.0
C  C67  1  0.98815849  0.43301755  0.30011816  1  -0.191702  0.000553  3.670336  0.0  -0.230686  0.000294  3.916769  0.0  -0.233752  0.000323  3.925255  0.0  -0.149336  -0.228372  0.000244  3.910681  0.0
N  N68  1  0.17492985  0.11632924  0.28493797  1  0.028592  0.002342  3.519913  0.003  0.147413  0.001495  3.712177  0.002  0.135828  0.001419  3.734958  0.002  -0.118182  0.153998  0.001527  3.698259  0.002
N  N69  1  0.17493123  0.11632985  0.71506177  1  0.028563  0.002335  3.519922  0.003  0.147425  0.001496  3.712115  0.002  0.13584  0.001418  3.734897  0.002  -0.118188  0.153996  0.001527  3.698226  0.002
N  N70  1  0.67492018  0.38367231  0.78494729  1  0.028969  -0.002224  3.519473  -0.003  0.148051  -0.001482  3.711371  -0.002  0.136464  -0.001326  3.734155  -0.002  -0.117926  0.15449  -0.0016  3.697707  -0.002
N  N71  1  0.32507045  0.61631791  0.78496652  1  0.029391  -0.002113  3.519487  -0.003  0.148401  -0.001398  3.711587  -0.002  0.136818  -0.001281  3.734386  -0.002  -0.117852  0.154823  -0.001477  3.697937  -0.002
N  N72  1  0.82507682  0.88366219  0.71508670  1  0.0292  -0.002294  3.519474  -0.003  0.14827  -0.001495  3.711395  -0.002  0.136677  -0.001356  3.734166  -0.002  -0.117934  0.154611  -0.001591  3.697916  -0.002
N  N73  1  0.82507842  0.88366245  0.28491353  1  0.029204  -0.002292  3.519604  -0.003  0.148235  -0.001494  3.711543  -0.002  0.136641  -0.001357  3.734316  -0.002  -0.117953  0.154594  -0.001591  3.698035  -0.002
N  N74  1  0.32507160  0.61631738  0.21503349  1  0.029468  -0.002115  3.519361  -0.003  0.148392  -0.001396  3.711567  -0.002  0.136809  -0.001281  3.734365  -0.002  -0.117875  0.154824  -0.001478  3.6979  -0.002
N  N75  1  0.67491985  0.38367265  0.21505335  1  0.028718  -0.002226  3.519715  -0.003  0.148047  -0.001481  3.71135  -0.002  0.136462  -0.001326  3.734132  -0.002  -0.117878  0.154492  -0.001601  3.697675  -0.002
N  N76  1  0.98731372  0.15120678  0.26526863  1  -0.099751  0.005252  2.860245  0.006  -0.115792  0.003673  3.147935  0.004  -0.114666  0.00248  3.157568  0.003  -0.070992  -0.115871  0.004704  3.140966  0.005
N  N77  1  0.98731522  0.15120650  0.73473128  1  -0.099741  0.005249  2.860209  0.006  -0.115817  0.003671  3.147922  0.004  -0.114691  0.002481  3.157554  0.003  -0.071005  -0.115891  0.004704  3.14095  0.005
N  N78  1  0.48725424  0.34882549  0.76528033  1  -0.099691  -0.004707  2.859989  -0.006  -0.115927  -0.003405  3.147689  -0.004  -0.114806  -0.002206  3.157318  -0.003  -0.070979  -0.115971  -0.00449  3.140727  -0.006
N  N79  1  0.51274073  0.65116213  0.76531588  1  -0.099889  -0.004579  2.859963  -0.006  -0.1161  -0.003303  3.147678  -0.004  -0.114996  -0.002106  3.157333  -0.003  -0.07113  -0.116135  -0.004386  3.140702  -0.005
N  N80  1  0.01268849  0.84878465  0.73477250  1  -0.100352  -0.004621  2.86087  -0.006  -0.116388  -0.003289  3.148482  -0.004  -0.115263  -0.002103  3.158117  -0.003  -0.07127  -0.116427  -0.004361  3.141528  -0.006
N  N81  1  0.01268996  0.84878493  0.26522825  1  -0.100412  -0.004622  2.860885  -0.006  -0.116437  -0.003289  3.14849  -0.004  -0.115309  -0.002105  3.158119  -0.003  -0.071302  -0.11648  -0.004362  3.14154  -0.006
N  N82  1  0.51274201  0.65116246  0.23468400  1  -0.099887  -0.004576  2.859875  -0.006  -0.116058  -0.003303  3.147601  -0.004  -0.114952  -0.002106  3.157255  -0.003  -0.071099  -0.116096  -0.004386  3.140627  -0.005
N  N83  1  0.48725403  0.34882582  0.23471975  1  -0.099699  -0.004708  2.860049  -0.006  -0.115994  -0.003406  3.147674  -0.004  -0.114873  -0.002205  3.157302  -0.003  -0.07103  -0.11604  -0.00449  3.140714  -0.006
N  N84  1  0.97464506  0.15867440  0.17672587  1  -0.031123  -0.002322  2.967223  -0.003  -0.028755  0.000148  3.283738  -0.001  -0.024768  -0.000512  3.296497  -0.001  -0.071682  -0.030875  0.000662  3.275284  0.0
N  N85  1  0.97464564  0.15867401  0.82327404  1  -0.031057  -0.002314  2.967147  -0.003  -0.028674  0.000146  3.283648  -0.001  -0.024688  -0.000509  3.296406  -0.001  -0.071647  -0.030793  0.000662  3.275189  0.0
N  N86  1  0.47458048  0.34130491  0.67674169  1  -0.031072  0.002321  2.967024  0.003  -0.028626  -0.000269  3.283343  0.0  -0.024617  0.000563  3.296092  0.001  -0.07163  -0.030772  -0.000969  3.274874  -0.001
N  N87  1  0.52545411  0.65867151  0.67677929  1  -0.031344  0.002446  2.966303  0.003  -0.028828  -0.000195  3.282716  0.0  -0.024817  0.000601  3.295459  0.001  -0.071691  -0.030967  -0.000862  3.274226  -0.001
N  N88  1  0.02531695  0.84130746  0.82331662  1  -0.030753  0.002412  2.967385  0.003  -0.028472  -0.000149  3.283801  0.0  -0.024471  0.000584  3.296565  0.001  -0.0715  -0.030582  -0.000747  3.27532  0.0
N  N89  1  0.02531935  0.84130785  0.17668343  1  -0.030729  0.002412  2.967395  0.003  -0.028454  -0.00015  3.283807  0.0  -0.024453  0.000586  3.296571  0.001  -0.071511  -0.030566  -0.000746  3.275332  0.0
N  N90  1  0.52545446  0.65867173  0.32322058  1  -0.031348  0.002443  2.966333  0.003  -0.028841  -0.000196  3.282742  0.0  -0.024829  0.000602  3.295484  0.001  -0.0717  -0.030981  -0.000862  3.274255  -0.001
N  N91  1  0.47457935  0.34130512  0.32325772  1  -0.031  0.002326  2.966928  0.003  -0.028566  -0.00027  3.283273  0.0  -0.024557  0.000564  3.296022  0.001  -0.071609  -0.030713  -0.000969  3.274807  -0.001
N  N92  1  0.15049060  0.12820627  0.13815731  1  -0.292885  0.070688  3.231081  0.083  -0.257068  0.054199  3.554554  0.068  -0.288709  0.04698  3.575126  0.061  -0.239475  -0.238596  0.05757  3.542684  0.071
N  N93  1  0.15049143  0.12820583  0.86184312  1  -0.292889  0.070678  3.231052  0.083  -0.257079  0.054202  3.554528  0.068  -0.288722  0.046976  3.575102  0.061  -0.239462  -0.238606  0.05757  3.542657  0.071
N  N94  1  0.65049514  0.37171634  0.63816252  1  -0.292673  -0.066332  3.230856  -0.083  -0.256649  -0.051575  3.553924  -0.068  -0.288263  -0.043661  3.57453  -0.061  -0.239229  -0.238215  -0.055819  3.542091  -0.071
N  N95  1  0.34955111  0.62826187  0.63818379  1  -0.2922  -0.066355  3.229778  -0.083  -0.256448  -0.051598  3.553113  -0.068  -0.288057  -0.043675  3.573702  -0.061  -0.23909  -0.238  -0.055836  3.541247  -0.071
N  N96  1  0.84945802  0.87177819  0.86186873  1  -0.292591  -0.066557  3.230905  -0.083  -0.256425  -0.051674  3.554065  -0.068  -0.288105  -0.043777  3.574683  -0.061  -0.239287  -0.237951  -0.055847  3.542177  -0.071
N  N97  1  0.84946017  0.87177863  0.13813149  1  -0.292594  -0.066558  3.230942  -0.083  -0.256429  -0.051674  3.554088  -0.068  -0.28811  -0.043778  3.574705  -0.061  -0.239271  -0.237954  -0.055847  3.542203  -0.071
N  N98  1  0.34955172  0.62826203  0.36181552  1  -0.292198  -0.066356  3.229818  -0.083  -0.256433  -0.051599  3.553138  -0.068  -0.288043  -0.043674  3.573731  -0.061  -0.239076  -0.237985  -0.055836  3.541273  -0.071
N  N99  1  0.65049425  0.37171738  0.36183745  1  -0.292653  -0.066336  3.230788  -0.083  -0.256653  -0.051574  3.553893  -0.068  -0.288266  -0.043662  3.574498  -0.061  -0.239238  -0.23822  -0.055819  3.54206  -0.071
Cl  Cl100  1  0.24024153  0.93130798  0.00000032  1  -0.512075  0.135844  1.082014  0.144  -0.524886  0.085275  1.406613  0.096  -0.560827  0.067643  1.381338  0.077  -0.280914  -0.503412  0.094884  1.424992  0.105
Cl  Cl101  1  0.73993393  0.56864609  0.50000092  1  -0.511229  -0.123675  1.082363  -0.144  -0.524437  -0.079156  1.40739  -0.097  -0.56033  -0.060291  1.382082  -0.078  -0.280419  -0.502748  -0.090817  1.42561  -0.107
Cl  Cl102  1  0.25999833  0.43138885  0.49999974  1  -0.511386  -0.123706  1.082393  -0.144  -0.524605  -0.079149  1.407319  -0.097  -0.560504  -0.060275  1.382  -0.078  -0.28049  -0.502907  -0.090794  1.425552  -0.107
Cl  Cl103  1  0.75982001  0.06873976  0.00000043  1  -0.512005  -0.126962  1.082029  -0.144  -0.524904  -0.080701  1.40687  -0.096  -0.560689  -0.062305  1.381335  -0.077  -0.280825  -0.503463  -0.091596  1.425304  -0.105
Cl  Cl104  1  0.22096618  0.32230632  0.99999974  1  -0.541242  0.13353  0.891338  0.146  -0.541799  0.085506  1.165962  0.1  -0.57199  0.069362  1.142035  0.083  -0.319195  -0.524146  0.093332  1.183143  0.107
Cl  Cl105  1  0.72101539  0.17757798  0.49999968  1  -0.541517  -0.125268  0.891025  -0.146  -0.542087  -0.0815  1.165617  -0.101  -0.572067  -0.064185  1.141727  -0.083  -0.319505  -0.524696  -0.091123  1.182861  -0.109
Cl  Cl106  1  0.27891090  0.82240909  0.49999961  1  -0.541587  -0.125214  0.890829  -0.146  -0.542175  -0.081509  1.165392  -0.101  -0.572134  -0.064177  1.141473  -0.083  -0.319613  -0.524777  -0.091132  1.182634  -0.108
Cl  Cl107  1  0.77906579  0.67769121  0.00000024  1  -0.54102  -0.124741  0.891294  -0.146  -0.541692  -0.080972  1.16613  -0.1  -0.571909  -0.063867  1.142219  -0.083  -0.319114  -0.524046  -0.090201  1.183307  -0.107
