# generated using pymatgen
data_CuH42C36(N9Cl)2
_symmetry_space_group_name_H-M   'P 1'
_cell_length_a   9.60481396
_cell_length_b   11.27762934
_cell_length_c   12.13901428
_cell_angle_alpha   74.68674878
_cell_angle_beta   71.09022739
_cell_angle_gamma   82.24307080
_symmetry_Int_Tables_number   1
_chemical_formula_structural   CuH42C36(N9Cl)2
_chemical_formula_sum   'Cu1 H42 C36 N18 Cl2'
_cell_volume   1198.00534559
_cell_formula_units_Z   1
loop_
 _symmetry_equiv_pos_site_id
 _symmetry_equiv_pos_as_xyz
  1  'x, y, z'
loop_
 _atom_site_type_symbol
 _atom_site_label
 _atom_site_symmetry_multiplicity
 _atom_site_fract_x
 _atom_site_fract_y
 _atom_site_fract_z
 _atom_site_occupancy
 _atom_site_pbe_cm5_charge
 _atom_site_pbe_ddec_charge
 _atom_site_pbe_ddec_spin_density
 _atom_site_pbe_ddec_sum_bond_order
 _atom_site_pbe_magmom
Cu  Cu0  1  0.50000039  0.49999918  0.99999811  1  0.741247  0.702733  0.754748  2.412382  0.604
H  H1  1  0.92952004  0.36040589  0.58553797  1  0.083128  0.110871  6e-06  1.024438  0.0
H  H2  1  0.07047348  0.63958824  0.41446576  1  0.083109  0.110837  6e-06  1.024365  0.0
H  H3  1  0.74421051  0.39030785  0.58242005  1  0.094829  0.142613  3.6e-05  1.058374  0.0
H  H4  1  0.25578468  0.60969365  0.41758231  1  0.094805  0.14256  3.6e-05  1.058388  0.0
H  H5  1  0.88917558  0.39156206  0.44853575  1  0.085154  0.114257  1.3e-05  1.020936  0.0
H  H6  1  0.11082189  0.60843852  0.55146704  1  0.085139  0.114228  1.3e-05  1.020919  0.0
H  H7  1  0.90091407  0.09316208  0.83088975  1  0.11619  0.100279  1.2e-05  0.989351  0.0
H  H8  1  0.09907603  0.90683386  0.16911527  1  0.116216  0.100282  1.2e-05  0.989348  0.0
H  H9  1  0.96785963  0.23225891  0.72951480  1  0.115859  0.094959  -5e-06  0.978467  0.0
H  H10  1  0.03213489  0.76773704  0.27049070  1  0.115823  0.094918  -5e-06  0.978522  0.0
H  H11  1  0.39840119  0.29418838  0.90015841  1  0.128639  0.110147  6.9e-05  0.990775  0.0
H  H12  1  0.60159136  0.70580391  0.09984600  1  0.128664  0.110213  6.9e-05  0.990673  0.0
H  H13  1  0.82254266  0.37770312  0.87283122  1  0.130325  0.119054  8.8e-05  1.014374  0.0
H  H14  1  0.17745005  0.62230032  0.12716145  1  0.130355  0.119094  8.8e-05  1.014287  0.0
H  H15  1  0.78917140  0.89666315  0.85990773  1  0.100623  0.145697  3.2e-05  0.970424  0.0
H  H16  1  0.21083276  0.10333480  0.14008651  1  0.100665  0.145802  3.2e-05  0.970402  0.0
H  H17  1  0.97829909  0.92938285  0.80101749  1  0.090083  0.121186  1.3e-05  1.016217  0.0
H  H18  1  0.02170517  0.07061415  0.19897941  1  0.090027  0.12112  1.3e-05  1.016232  0.0
H  H19  1  0.91444412  0.81137459  0.76411721  1  0.092177  0.124701  -8e-06  1.036165  0.0
H  H20  1  0.08556219  0.18862427  0.23587788  1  0.092196  0.124758  -8e-06  1.036144  0.0
H  H21  1  0.80154653  0.80148977  0.51746508  1  0.114587  0.096655  1.5e-05  1.007519  0.0
H  H22  1  0.19846192  0.19851089  0.48253314  1  0.114582  0.096616  1.5e-05  1.007515  0.0
H  H23  1  0.91205564  0.77048219  0.61345549  1  0.113459  0.090078  9e-06  1.030082  0.0
H  H24  1  0.08795249  0.22952220  0.38653864  1  0.113412  0.090016  9e-06  1.029911  0.0
H  H25  1  0.79556861  0.60980319  0.80034907  1  0.136715  0.118754  3.6e-05  1.001823  0.0
H  H26  1  0.20444234  0.39019204  0.19964319  1  0.136703  0.118715  3.6e-05  1.001929  0.0
H  H27  1  0.35329523  0.73318106  0.84929788  1  0.130559  0.103831  3.5e-05  0.997195  0.0
H  H28  1  0.64671525  0.26682235  0.15070163  1  0.130524  0.103778  3.5e-05  0.997159  0.0
H  H29  1  0.80057765  0.97396557  0.33367710  1  0.084685  0.117056  1.9e-05  1.008382  0.0
H  H30  1  0.19942231  0.02603133  0.66632755  1  0.084717  0.117058  1.9e-05  1.008334  0.0
H  H31  1  0.63708469  0.06689084  0.37739217  1  0.093628  0.134093  6.8e-05  1.046362  0.0
H  H32  1  0.36291511  0.93310705  0.62260571  1  0.093627  0.134106  6.8e-05  1.046339  0.0
H  H33  1  0.64982804  0.91574934  0.45914622  1  0.093571  0.134302  5.7e-05  1.034763  0.0
H  H34  1  0.35016839  0.08425032  0.54085624  1  0.09356  0.134303  5.7e-05  1.034781  0.0
H  H35  1  0.84726675  0.32736349  0.32655106  1  0.112349  0.094041  -2.1e-05  0.98669  0.0
H  H36  1  0.15272872  0.67263519  0.67345683  1  0.112347  0.094054  -2.1e-05  0.986609  0.0
H  H37  1  0.76196149  0.21309471  0.30157675  1  0.113135  0.0958  -5e-06  1.003653  0.0
H  H38  1  0.23803056  0.78690491  0.69842854  1  0.113153  0.095845  -5e-06  1.003654  0.0
H  H39  1  0.63847064  0.48294375  0.25502673  1  0.116279  0.109006  -1e-05  1.046921  0.0
H  H40  1  0.36153535  0.51706058  0.74497210  1  0.116311  0.109088  -1e-05  1.046942  0.0
H  H41  1  0.29539381  0.35558125  0.56887572  1  0.122738  0.083898  1e-06  0.980347  0.0
H  H42  1  0.70460294  0.64442858  0.43112179  1  0.122744  0.083859  1e-06  0.980379  0.0
C  C43  1  0.85083640  0.34369496  0.54354214  1  -0.249517  -0.419632  -1.3e-05  3.976587  0.0
C  C44  1  0.14916211  0.65630654  0.45646099  1  -0.249463  -0.419517  -1.3e-05  3.976505  0.0
C  C45  1  0.83695821  0.20857646  0.55924971  1  -0.002739  0.091874  0.000766  3.942273  0.001
C  C46  1  0.16303831  0.79142226  0.44075460  1  -0.00272  0.091911  0.000765  3.94228  0.001
C  C47  1  0.79500177  0.16671779  0.47566533  1  -0.015307  -0.033319  -0.000352  3.921289  0.0
C  C48  1  0.20498902  0.83328368  0.52433820  1  -0.01533  -0.033332  -0.000352  3.921361  0.0
C  C49  1  0.77680197  0.04066784  0.49211999  1  0.003346  0.105117  0.000723  3.914663  0.001
C  C50  1  0.22319216  0.95933275  0.50788121  1  0.003335  0.105024  0.000723  3.914838  0.001
C  C51  1  0.81467866  0.95576433  0.58750180  1  -0.016929  -0.034554  -8.5e-05  3.926195  0.0
C  C52  1  0.18532551  0.04423448  0.41249717  1  -0.016937  -0.034475  -8.5e-05  3.9262  0.0
C  C53  1  0.85420849  0.99575885  0.67322511  1  -0.004074  0.086525  0.000708  3.945001  0.001
C  C54  1  0.14579347  0.00423995  0.32677363  1  -0.004103  0.086485  0.000708  3.944971  0.001
C  C55  1  0.85933074  0.12285882  0.66067475  1  -0.019959  -0.040114  -0.000104  3.936512  0.0
C  C56  1  0.14066804  0.87713900  0.33932835  1  -0.019894  -0.040058  -0.000104  3.936297  0.0
C  C57  1  0.87779598  0.16925992  0.76056861  1  -0.040902  -0.113633  0.000552  3.905853  0.001
C  C58  1  0.12219614  0.83073791  0.23943296  1  -0.040957  -0.113658  0.000552  3.905696  0.001
C  C59  1  0.51768290  0.28890813  0.87865417  1  0.145469  0.143947  -0.00084  3.966745  0.0
C  C60  1  0.48230931  0.71108877  0.12134843  1  0.145427  0.143794  -0.00084  3.966675  0.0
C  C61  1  0.73284584  0.33617731  0.86278172  1  0.15585  0.068801  -0.000965  3.893012  0.0
C  C62  1  0.26714600  0.66382333  0.13721431  1  0.15583  0.06876  -0.000964  3.892858  0.0
C  C63  1  0.88562774  0.90415504  0.77925067  1  -0.236212  -0.407005  -1.7e-05  3.966681  0.0
C  C64  1  0.11437851  0.09584474  0.22074423  1  -0.236209  -0.40711  -1.7e-05  3.966711  0.0
C  C65  1  0.81067943  0.81980031  0.59900232  1  -0.042666  -0.125572  0.000627  3.926574  0.001
C  C66  1  0.18933028  0.18019763  0.40099374  1  -0.042584  -0.125429  0.000627  3.92625  0.001
C  C67  1  0.69633462  0.66101620  0.78623396  1  0.163881  0.085283  -0.001655  3.89717  0.0
C  C68  1  0.30367515  0.33898083  0.21376148  1  0.163934  0.085348  -0.001655  3.897123  0.0
C  C69  1  0.47228374  0.72887144  0.81090252  1  0.146082  0.133754  -0.001004  3.991566  0.0
C  C70  1  0.52772464  0.27113014  0.18909550  1  0.146091  0.133779  -0.001004  3.991491  0.0
C  C71  1  0.71388132  0.99739358  0.41149833  1  -0.242876  -0.410924  6.4e-05  3.93951  0.0
C  C72  1  0.28611837  0.00260613  0.58850079  1  -0.242899  -0.410936  6.4e-05  3.939502  0.0
C  C73  1  0.76300645  0.25884776  0.37047332  1  -0.044253  -0.118891  -1.9e-05  3.910907  0.0
C  C74  1  0.23699095  0.74115374  0.62952928  1  -0.044304  -0.119034  -1.9e-05  3.910919  0.0
C  C75  1  0.57159443  0.43305670  0.34234286  1  0.142721  0.069101  -6.2e-05  3.924164  0.0
C  C76  1  0.42840951  0.56694576  0.65765860  1  0.142717  0.068953  -6.2e-05  3.924499  0.0
C  C77  1  0.40080517  0.36346872  0.49897321  1  0.122759  0.108779  1.6e-05  4.09115  0.0
C  C78  1  0.59919155  0.63654112  0.50102264  1  0.122897  0.109071  1.6e-05  4.091287  0.0
N  N79  1  0.56001810  0.63771635  0.85767163  1  -0.369927  -0.295617  0.056158  3.668556  0.076
N  N80  1  0.43999038  0.36228342  0.14232432  1  -0.369951  -0.295632  0.056157  3.668413  0.076
N  N81  1  0.54745592  0.80733251  0.71403472  1  -0.212163  -0.240732  0.005033  3.094437  0.006
N  N82  1  0.45255263  0.19266721  0.28596618  1  -0.212132  -0.240697  0.005033  3.09444  0.006
N  N83  1  0.68947558  0.76218144  0.69970162  1  -0.133223  0.172145  0.001412  3.723773  0.002
N  N84  1  0.31053404  0.23781831  0.30029733  1  -0.133239  0.172122  0.001412  3.723611  0.002
N  N85  1  0.51210658  0.28052710  0.50631689  1  -0.228407  -0.268465  -3.2e-05  3.121641  0.0
N  N86  1  0.48789282  0.71947718  0.49368452  1  -0.228494  -0.26859  -3.3e-05  3.121724  0.0
N  N87  1  0.62099080  0.32739051  0.40565152  1  -0.138557  0.159724  -2.5e-05  3.713071  0.0
N  N88  1  0.37900876  0.67261191  0.59435194  1  -0.138506  0.15984  -2.5e-05  3.712905  0.0
N  N89  1  0.43102254  0.45849377  0.39962769  1  -0.343077  -0.341425  -8.4e-05  3.300201  0.0
N  N90  1  0.56897416  0.54151696  0.60037126  1  -0.343172  -0.341535  -8.4e-05  3.300726  0.0
N  N91  1  0.74368230  0.23843360  0.81599950  1  -0.133009  0.168041  0.001428  3.713789  0.002
N  N92  1  0.25631207  0.76156334  0.18400004  1  -0.133007  0.168007  0.001427  3.713911  0.002
N  N93  1  0.60751632  0.20632099  0.82595763  1  -0.219574  -0.250838  0.005462  3.060103  0.006
N  N94  1  0.39247499  0.79367313  0.17404585  1  -0.219539  -0.250754  0.005462  3.060394  0.006
N  N95  1  0.59045380  0.37025329  0.90291912  1  -0.356501  -0.294332  0.054901  3.596738  0.074
N  N96  1  0.40953817  0.62974552  0.09707649  1  -0.356458  -0.294205  0.0549  3.596385  0.074
Cl  Cl97  1  0.76936387  0.50178065  0.03792986  1  -0.469601  -0.710716  -0.000422  0.820065  0.002
Cl  Cl98  1  0.23063291  0.49821353  0.96207052  1  -0.469602  -0.710721  -0.000425  0.820029  0.002
