# generated using pymatgen
data_Cu2H20C23(N4O)2
_symmetry_space_group_name_H-M   'P 1'
_cell_length_a   10.04094172
_cell_length_b   10.03043436
_cell_length_c   11.98441540
_cell_angle_alpha   72.53614584
_cell_angle_beta   85.80896852
_cell_angle_gamma   77.46778013
_symmetry_Int_Tables_number   1
_chemical_formula_structural   Cu2H20C23(N4O)2
_chemical_formula_sum   'Cu4 H40 C46 N16 O4'
_cell_volume   1123.90150067
_cell_formula_units_Z   2
loop_
 _symmetry_equiv_pos_site_id
 _symmetry_equiv_pos_as_xyz
  1  'x, y, z'
loop_
 _atom_site_type_symbol
 _atom_site_label
 _atom_site_symmetry_multiplicity
 _atom_site_fract_x
 _atom_site_fract_y
 _atom_site_fract_z
 _atom_site_occupancy
 _atom_site_pbe_bader_charge
 _atom_site_pbe_bader_spin_density
 _atom_site_pbe_cm5_charge
 _atom_site_pbe_ddec_charge
 _atom_site_pbe_ddec_spin_density
 _atom_site_pbe_ddec_sum_bond_order
 _atom_site_pbe_magmom
Cu  Cu0  1  0.21193981  0.79708947  0.63578996  1  1.058882  0.324702  0.789535  0.767729  0.409801  2.447915  0.323
Cu  Cu1  1  0.78806449  0.20290919  0.36421872  1  1.058737  -0.324559  0.789476  0.767776  -0.409612  2.447704  -0.323
Cu  Cu2  1  0.32916809  0.81768228  0.86183545  1  1.065516  -0.369548  0.750404  0.896452  -0.456818  2.34005  -0.37
Cu  Cu3  1  0.67082327  0.18232278  0.13815557  1  1.06563  0.369377  0.750399  0.896429  0.45661  2.340113  0.369
H  H4  1  0.33344442  0.11758437  0.77329288  1  0.107769  -0.000284  0.101873  0.120482  -0.000135  1.038784  0.0
H  H5  1  0.66655010  0.88242393  0.22671053  1  0.107816  0.000284  0.101889  0.120519  0.000134  1.038715  0.0
H  H6  1  0.36197227  0.36189107  0.65617661  1  0.095054  0.000151  0.096852  0.104307  8.3e-05  1.032861  0.0
H  H7  1  0.63801895  0.63811402  0.34382276  1  0.095116  -0.00015  0.096842  0.104214  -8.3e-05  1.032879  0.0
H  H8  1  0.38304680  0.42363109  0.43947377  1  0.053499  7.9e-05  0.096047  0.096633  5.2e-05  1.042915  0.0
H  H9  1  0.61695300  0.57637609  0.56052465  1  0.053577  -8e-05  0.096089  0.09663  -5.2e-05  1.042898  0.0
H  H10  1  0.36675814  0.24340635  0.33889332  1  0.045875  -0.00031  0.103312  0.104478  -0.000135  1.024058  0.0
H  H11  1  0.63324621  0.75659230  0.66111202  1  0.045914  0.000309  0.103311  0.104498  0.000135  1.024019  0.0
H  H12  1  0.34772232  0.01535155  0.34186007  1  0.099613  0.007103  0.122343  0.09097  0.003491  1.003637  0.004
H  H13  1  0.65228018  0.98465672  0.65814378  1  0.099534  -0.007103  0.12234  0.090969  -0.003491  1.003588  -0.004
H  H14  1  0.33383097  0.67313763  0.43802720  1  0.069644  0.000955  0.109269  0.098708  0.000451  0.979927  0.001
H  H15  1  0.66617348  0.32686100  0.56197230  1  0.069378  -0.000955  0.109281  0.098715  -0.000451  0.979902  -0.001
H  H16  1  0.31136834  0.82798407  0.31340717  1  0.084869  0.004097  0.104961  0.086266  0.002042  1.020936  0.003
H  H17  1  0.68863879  0.17201666  0.68658667  1  0.084897  -0.004095  0.104904  0.086178  -0.002042  1.021042  -0.003
H  H18  1  0.92716254  0.90467571  0.32766563  1  0.060285  2.5e-05  0.08804  0.130781  3.6e-05  1.027972  0.0
H  H19  1  0.07284473  0.09532397  0.67233180  1  0.060239  -2.5e-05  0.088029  0.130745  -3.6e-05  1.027945  0.0
H  H20  1  0.06894660  0.98535046  0.27627465  1  0.048029  2e-05  0.089627  0.134644  1.6e-05  1.006788  0.0
H  H21  1  0.93105746  0.01465030  0.72372350  1  0.048066  -1.9e-05  0.089641  0.13466  -1.6e-05  1.006789  0.0
H  H22  1  0.01301422  0.96213718  0.42383952  1  0.005321  0.000162  0.076363  0.088153  0.000133  1.089474  0.0
H  H23  1  0.98698986  0.03786358  0.57615779  1  0.00507  -0.000161  0.076331  0.088103  -0.000132  1.089489  0.0
H  H24  1  0.19622419  0.59290149  0.30644028  1  0.046024  -0.000142  0.081614  0.10538  -0.0001  1.062688  0.0
H  H25  1  0.80378665  0.40709497  0.69356028  1  0.045818  0.000142  0.081562  0.105276  0.0001  1.062809  0.0
H  H26  1  0.15104117  0.76496703  0.20492337  1  0.04053  -1.2e-05  0.095134  0.141646  -3e-06  0.990072  0.0
H  H27  1  0.84897029  0.23503156  0.79507496  1  0.040574  1.2e-05  0.095126  0.141646  3e-06  0.990075  0.0
H  H28  1  0.02083100  0.67708524  0.28010171  1  0.016404  7.4e-05  0.08838  0.123165  3.3e-05  1.007351  0.0
H  H29  1  0.97917554  0.32291336  0.71989269  1  0.016542  -7.3e-05  0.088399  0.123162  -3.3e-05  1.007415  0.0
H  H30  1  0.97088494  0.65177177  0.48333808  1  0.032913  0.003958  0.10489  0.084277  0.001944  0.99124  0.002
H  H31  1  0.02911245  0.34822792  0.51665316  1  0.033284  -0.003956  0.104857  0.084209  -0.001944  0.991376  -0.002
H  H32  1  0.14324913  0.56074416  0.51570720  1  0.027271  8.8e-05  0.104963  0.086179  -1e-06  0.991903  0.0
H  H33  1  0.85675479  0.43925233  0.48428953  1  0.027332  -8.8e-05  0.104952  0.086156  1e-06  0.991903  0.0
H  H34  1  0.90100671  0.62122257  0.65649195  1  0.10804  0.006811  0.11569  0.074091  0.003408  1.018984  0.004
H  H35  1  0.09898915  0.37876864  0.34351152  1  0.108148  -0.006809  0.115665  0.074029  -0.003408  1.018907  -0.004
H  H36  1  0.09155040  0.77891249  0.01072630  1  0.095909  -0.000304  0.101886  0.119087  -0.00014  1.041771  0.0
H  H37  1  0.90843849  0.22109904  0.98927741  1  0.095889  0.000303  0.101912  0.119091  0.00014  1.041817  0.0
H  H38  1  0.89489067  0.68915820  0.12174163  1  0.074742  0.000181  0.100693  0.094076  9.1e-05  1.000288  0.0
H  H39  1  0.10509756  0.31084691  0.87825705  1  0.074796  -0.00018  0.100688  0.09408  -9.1e-05  1.000314  0.0
H  H40  1  0.73929041  0.58933350  0.02902402  1  0.091557  5.3e-05  0.099353  0.110425  4.7e-05  1.004057  0.0
H  H41  1  0.26069886  0.41066627  0.97097512  1  0.091404  -5.3e-05  0.099312  0.110414  -4.6e-05  1.004064  0.0
H  H42  1  0.77911240  0.59094067  0.82211241  1  0.083789  -0.00022  0.098403  0.090647  -6.3e-05  1.052099  0.0
H  H43  1  0.22088687  0.40905372  0.17788842  1  0.083864  0.00022  0.098403  0.090681  6.3e-05  1.052047  0.0
C  C44  1  0.33077867  0.04344823  0.62276900  1  0.562939  -0.000735  0.089769  0.306779  -0.000406  4.064831  0.0
C  C45  1  0.66922512  0.95655361  0.37723307  1  0.562877  0.000734  0.089724  0.306669  0.000406  4.065046  0.0
C  C46  1  0.34091120  0.14658137  0.67827186  1  -0.001904  0.003365  -0.110122  -0.219996  0.002383  3.965529  0.003
C  C47  1  0.65908859  0.85342049  0.32173040  1  -0.001898  -0.003363  -0.110144  -0.220017  -0.002382  3.965518  -0.003
C  C48  1  0.35675335  0.28217634  0.61236606  1  -0.076957  -0.000665  -0.087826  -0.040792  -0.000476  3.998133  0.0
C  C49  1  0.64324062  0.71782982  0.38763540  1  -0.076942  0.000663  -0.087841  -0.040751  0.000474  3.998168  0.0
C  C50  1  0.36638147  0.31854413  0.48985356  1  -0.047  0.001039  -0.113762  -0.133909  0.000613  4.055219  0.001
C  C51  1  0.63362092  0.68145985  0.51014720  1  -0.047094  -0.001038  -0.113762  -0.133778  -0.000612  4.055039  -0.001
C  C52  1  0.35714030  0.21834691  0.43387274  1  -0.021772  -0.001431  -0.083558  -0.091112  -0.000921  3.986171  -0.001
C  C53  1  0.64286404  0.78165174  0.56613343  1  -0.021874  0.00143  -0.083561  -0.091223  0.00092  3.986028  0.001
C  C54  1  0.33559027  0.08154483  0.49804488  1  -0.000429  2.9e-05  -0.033431  -0.080714  -0.000149  4.026284  0.0
C  C55  1  0.66441172  0.91845596  0.50195754  1  -0.000513  -2.8e-05  -0.033472  -0.080709  0.000149  4.026175  0.0
C  C56  1  0.32063463  0.98424841  0.43516054  1  0.606498  -0.001243  0.084193  0.11791  -0.000199  3.911454  -0.001
C  C57  1  0.67936917  0.01575343  0.56484069  1  0.606738  0.00124  0.084296  0.117985  0.000198  3.911403  0.001
C  C58  1  0.26986988  0.77968620  0.40023511  1  0.273938  0.00132  -0.064637  -0.102559  0.001133  3.877206  0.001
C  C59  1  0.73013619  0.22031455  0.59976210  1  0.274211  -0.001318  -0.06459  -0.102527  -0.001132  3.877311  -0.001
C  C60  1  0.12231335  0.76586319  0.38649484  1  0.070325  0.000718  -0.018331  0.204577  0.000395  3.806064  0.001
C  C61  1  0.87769108  0.23413544  0.61350633  1  0.070195  -0.000718  -0.018315  0.204587  -0.000394  3.806006  -0.001
C  C62  1  0.02742451  0.91304709  0.35213201  1  -0.091735  0.000118  -0.2529  -0.423984  0.000155  3.885229  0.0
C  C63  1  0.97258237  0.08694939  0.64786707  1  -0.0916  -0.000117  -0.252872  -0.423916  -0.000155  3.885067  0.0
C  C64  1  0.12300629  0.69540899  0.28912867  1  -0.074155  -6.9e-05  -0.239303  -0.413267  -7.2e-05  3.877465  0.0
C  C65  1  0.87700219  0.30458961  0.71086897  1  -0.074123  6.9e-05  -0.239274  -0.413178  7.2e-05  3.87759  0.0
C  C66  1  0.07334824  0.66609506  0.49846090  1  0.31489  0.001446  -0.061812  -0.087664  0.001243  3.876978  0.001
C  C67  1  0.92665189  0.33390037  0.50153628  1  0.314655  -0.001445  -0.061817  -0.087653  -0.001242  3.877158  -0.001
C  C68  1  0.97619328  0.67114008  0.68250776  1  0.538229  -0.001923  0.076562  0.112623  -0.00079  3.947486  -0.001
C  C69  1  0.02380623  0.32885323  0.31749165  1  0.538438  0.001921  0.076625  0.112748  0.000789  3.947326  0.001
C  C70  1  0.95947456  0.68051941  0.79971110  1  0.092696  -0.00158  -0.034794  -0.088573  -0.001181  4.033163  -0.001
C  C71  1  0.04052827  0.31947710  0.20029068  1  0.091966  0.001582  -0.034825  -0.08867  0.001183  4.033197  0.001
C  C72  1  0.05179612  0.73066924  0.85513848  1  0.550726  3.4e-05  0.09771  0.327013  -2.4e-05  4.033757  0.001
C  C73  1  0.94819753  0.26932837  0.14486265  1  0.551162  -3.5e-05  0.097764  0.327216  2.5e-05  4.033561  -0.001
C  C74  1  0.02365704  0.73564553  0.97091523  1  -0.022734  0.001748  -0.104561  -0.208266  0.001406  3.941637  0.002
C  C75  1  0.97633819  0.26435954  0.02908311  1  -0.022705  -0.001745  -0.104601  -0.208336  -0.001404  3.941721  -0.002
C  C76  1  0.91307400  0.68539481  0.03181271  1  -0.053824  -0.000325  -0.076316  -0.02324  -0.000229  4.00328  0.0
C  C77  1  0.08691786  0.31460707  0.96818576  1  -0.053501  0.000326  -0.076327  -0.023211  0.000229  4.003374  0.0
C  C78  1  0.82437093  0.63109087  0.97995381  1  0.022505  -0.000638  -0.106247  -0.116655  -0.000406  4.027704  0.0
C  C79  1  0.17562336  0.36890353  0.02004642  1  0.022309  0.00064  -0.106161  -0.116625  0.000407  4.027763  0.0
C  C80  1  0.84746264  0.63086769  0.86493930  1  -0.132606  -0.001477  -0.083985  -0.089661  -0.000909  3.991211  -0.001
C  C81  1  0.15253304  0.36912991  0.13506006  1  -0.132603  0.001476  -0.084017  -0.089743  0.000908  3.991374  0.001
C  C82  1  0.59307979  0.91600765  0.87746876  1  1.560798  -0.003241  0.30937  0.459666  -0.003137  4.269226  -0.005
C  C83  1  0.40691617  0.08399317  0.12253562  1  1.560736  0.003241  0.309417  0.459769  0.003136  4.269223  0.005
C  C84  1  0.72837919  0.00331368  0.97393307  1  1.516708  -0.000813  0.300377  0.451043  -0.000682  4.260628  -0.001
C  C85  1  0.27162121  0.99667964  0.02607214  1  1.517324  0.000815  0.300408  0.451112  0.000683  4.260455  0.001
C  C86  1  0.39736817  0.58323134  0.08977044  1  1.590415  -0.002929  0.320174  0.480874  -0.002953  4.229961  -0.004
C  C87  1  0.60263382  0.41677047  0.91022004  1  1.590003  0.00293  0.320263  0.480945  0.002953  4.229695  0.004
C  C88  1  0.53802925  0.46487428  0.25040373  1  1.529713  0.001529  0.297268  0.4347  0.000719  4.282375  0.002
C  C89  1  0.46197198  0.53512543  0.74959649  1  1.530039  -0.001531  0.297198  0.434475  -0.000719  4.282184  -0.002
N  N90  1  0.27759772  0.86590390  0.47703006  1  -1.173161  0.063597  -0.369256  -0.224211  0.041008  3.586456  0.054
N  N91  1  0.72240627  0.13409155  0.52297444  1  -1.173163  -0.063569  -0.369271  -0.224161  -0.040989  3.58649  -0.054
N  N92  1  0.06814345  0.71087413  0.60470257  1  -1.156378  0.056961  -0.375948  -0.245244  0.036801  3.545898  0.049
N  N93  1  0.93185822  0.28912343  0.39529650  1  -1.156527  -0.056937  -0.376003  -0.245266  -0.036785  3.545876  -0.049
N  N94  1  0.51432276  0.85232484  0.86058933  1  -1.260638  -0.034701  -0.416497  -0.576995  -0.022739  3.285787  -0.028
N  N95  1  0.48567019  0.14767600  0.13941603  1  -1.260651  0.034674  -0.416499  -0.577003  0.022721  3.285876  0.028
N  N96  1  0.35791040  0.64458568  0.99382607  1  -1.265508  -0.03019  -0.416333  -0.577252  -0.019389  3.284888  -0.024
N  N97  1  0.64209567  0.35542039  0.00616814  1  -1.265267  0.03017  -0.416321  -0.577286  0.019376  3.284718  0.024
N  N98  1  0.77362889  0.02589956  0.05328758  1  -1.228683  -0.004508  -0.396157  -0.574091  -0.002461  3.076118  -0.002
N  N99  1  0.22637252  0.97409909  0.94671457  1  -1.229227  0.004503  -0.396133  -0.574056  0.002457  3.076038  0.002
N  N100  1  0.68276414  0.98949485  0.88041177  1  -1.328262  -0.006346  -0.306175  -0.389861  -0.003913  3.555824  -0.005
N  N101  1  0.31723403  0.01049956  0.11959494  1  -1.328291  0.006344  -0.306265  -0.390046  0.003912  3.555745  0.005
N  N102  1  0.42172761  0.51299452  0.19773462  1  -1.344059  -0.008762  -0.303441  -0.383988  -0.005386  3.57563  -0.007
N  N103  1  0.57827647  0.48699660  0.80225594  1  -1.344194  0.00876  -0.303418  -0.383815  0.005385  3.575549  0.007
N  N104  1  0.63418030  0.41770324  0.31205897  1  -1.245551  -0.005921  -0.389  -0.57039  -0.003695  3.02436  -0.005
N  N105  1  0.36581488  0.58230184  0.68794187  1  -1.245505  0.005926  -0.389009  -0.570325  0.003698  3.024256  0.005
O  O106  1  0.31762913  0.91288758  0.68521625  1  -1.062503  -0.00319  -0.32761  -0.495357  -0.0016  2.600428  -0.003
O  O107  1  0.68236833  0.08711108  0.31478359  1  -1.06249  0.003193  -0.327516  -0.495237  0.001603  2.600321  0.003
O  O108  1  0.16189707  0.77164849  0.79969221  1  -1.054062  -0.001805  -0.323072  -0.486001  -0.000842  2.583026  -0.002
O  O109  1  0.83810280  0.22834803  0.20030805  1  -1.054105  0.001814  -0.323068  -0.486132  0.000847  2.583054  0.002
