# generated using pymatgen
data_HgH2C3SN4
_symmetry_space_group_name_H-M   'P 1'
_cell_length_a   8.25537812
_cell_length_b   9.09343193
_cell_length_c   9.17751914
_cell_angle_alpha   90.00002069
_cell_angle_beta   110.24043442
_cell_angle_gamma   89.99920781
_symmetry_Int_Tables_number   1
_chemical_formula_structural   HgH2C3SN4
_chemical_formula_sum   'Hg4 H8 C12 S4 N16'
_cell_volume   646.41027146
_cell_formula_units_Z   4
loop_
 _symmetry_equiv_pos_site_id
 _symmetry_equiv_pos_as_xyz
  1  'x, y, z'
loop_
 _atom_site_type_symbol
 _atom_site_label
 _atom_site_symmetry_multiplicity
 _atom_site_fract_x
 _atom_site_fract_y
 _atom_site_fract_z
 _atom_site_occupancy
 _atom_site_pbe_bader_spin_density
 _atom_site_pbe_cm5_charge
 _atom_site_pbe_ddec_charge
 _atom_site_pbe_ddec_spin_density
 _atom_site_pbe_ddec_sum_bond_order
 _atom_site_pbe_magmom
Hg  Hg0  1  0.25069167  0.97180647  0.19431944  1  0  0.613494  0.525685  0  2.545446  0
Hg  Hg1  1  0.74931153  0.47180841  0.30567906  1  0  0.613465  0.525628  0  2.545557  0
Hg  Hg2  1  0.74931473  0.02819491  0.80567807  1  0  0.613458  0.525648  0  2.545485  0
Hg  Hg3  1  0.25068327  0.52819407  0.69431816  1  0  0.613463  0.525629  0  2.545593  0
H  H4  1  0.62534691  0.74446105  0.98773135  1  0  0.115567  0.085001  0  1.062311  0
H  H5  1  0.37465900  0.24445880  0.51226737  1  0  0.115562  0.085022  0  1.06233  0
H  H6  1  0.37465693  0.25553813  0.01226865  1  0  0.115555  0.084976  0  1.062357  0
H  H7  1  0.62533710  0.75553929  0.48773134  1  0  0.115572  0.085024  0  1.062403  0
H  H8  1  0.11413770  0.67019625  0.32611641  1  0  0.125178  0.10045  0  1.032406  0
H  H9  1  0.88586814  0.17019533  0.17389044  1  0  0.125202  0.100491  0  1.032317  0
H  H10  1  0.88586617  0.32980513  0.67388795  1  0  0.125196  0.100449  0  1.032374  0
H  H11  1  0.11412924  0.82980385  0.82610649  1  0  0.125212  0.10049  0  1.032352  0
C  C12  1  0.76104933  0.75363039  0.05780142  1  0  0.123789  0.125083  0  4.016435  0
C  C13  1  0.23895505  0.25362999  0.44220174  1  0  0.12376  0.124963  0  4.016473  0
C  C14  1  0.23895324  0.24636769  0.94220145  1  0  0.123771  0.125058  0  4.016373  0
C  C15  1  0.76104105  0.74636919  0.55779697  1  0  0.123742  0.124934  0  4.016552  0
C  C16  1  0.00795907  0.71379210  0.22926997  1  0  0.135904  0.135113  0  3.94741  0
C  C17  1  0.99204730  0.21378879  0.27073597  1  0  0.135892  0.135113  0  3.947342  0
C  C18  1  0.99204479  0.28620928  0.77073330  1  0  0.135907  0.135149  0  3.947324  0
C  C19  1  0.00795009  0.78620929  0.72926314  1  0  0.135916  0.135127  0  3.947392  0
C  C20  1  0.61237011  0.09920409  0.38396838  1  0  0.133833  0.226466  0  4.221486  0
C  C21  1  0.38762141  0.59922129  0.11602753  1  0  0.133936  0.226684  0  4.221691  0
C  C22  1  0.38762992  0.90079619  0.61604026  1  0  0.13376  0.226225  0  4.221695  0
C  C23  1  0.61237083  0.40078558  0.88397218  1  0  0.133838  0.22652  0  4.221841  0
S  S24  1  0.55552084  0.99243704  0.22773067  1  0  -0.079323  -0.140699  0  2.663988  0
S  S25  1  0.44448586  0.49245159  0.27226565  1  0  -0.079242  -0.140659  0  2.663922  0
S  S26  1  0.44448949  0.00756434  0.77227677  1  0  -0.079293  -0.140583  0  2.663961  0
S  S27  1  0.55551151  0.50754649  0.72773018  1  0  -0.079227  -0.140603  0  2.66394  0
N  N28  1  0.02216316  0.83265252  0.14921553  1  0  -0.236352  -0.113595  0  3.540127  0
N  N29  1  0.97784117  0.33265160  0.35078982  1  0  -0.236367  -0.1136  0  3.540058  0
N  N30  1  0.97784068  0.16734776  0.85078556  1  0  -0.236378  -0.113613  0  3.54009  0
N  N31  1  0.02215622  0.66734648  0.64920929  1  0  -0.236434  -0.113654  0  3.540175  0
N  N32  1  0.86372512  0.85928402  0.03901002  1  0  -0.242583  -0.218931  0  3.378392  0
N  N33  1  0.13627874  0.35928382  0.46099083  1  0  -0.242542  -0.21885  0  3.378345  0
N  N34  1  0.13627873  0.14071516  0.96099106  1  0  -0.242545  -0.218873  0  3.378301  0
N  N35  1  0.86371865  0.64071316  0.53900828  1  0  -0.242493  -0.218796  0  3.37832  0
N  N36  1  0.84572856  0.66054071  0.17505360  1  0  -0.339351  -0.284463  0  3.459479  0
N  N37  1  0.15427869  0.16053914  0.32494824  1  0  -0.339369  -0.284498  0  3.459512  0
N  N38  1  0.15427528  0.33945957  0.82494749  1  0  -0.339366  -0.284501  0  3.459372  0
N  N39  1  0.84571869  0.83945895  0.67504978  1  0  -0.339365  -0.284462  0  3.459574  0
N  N40  1  0.65862592  0.17472096  0.49535626  1  0  -0.350141  -0.440077  0  2.948406  0
N  N41  1  0.34137716  0.67472991  0.00463558  1  0  -0.350293  -0.440331  0  2.948793  0
N  N42  1  0.34138183  0.82527932  0.50465038  1  0  -0.350098  -0.439944  0  2.948572  0
N  N43  1  0.65862019  0.32527257  0.99535807  1  0  -0.350211  -0.440195  0  2.948828  0
