# generated using pymatgen
data_Zr3H2C24(Cl3O4)4
_symmetry_space_group_name_H-M   'P 1'
_cell_length_a   15.03950061
_cell_length_b   15.03956945
_cell_length_c   15.03949780
_cell_angle_alpha   59.99982347
_cell_angle_beta   60.00031167
_cell_angle_gamma   59.99981231
_symmetry_Int_Tables_number   1
_chemical_formula_structural   Zr3H2C24(Cl3O4)4
_chemical_formula_sum   'Zr6 H4 C48 Cl24 O32'
_cell_volume   2405.39820884
_cell_formula_units_Z   2
loop_
 _symmetry_equiv_pos_site_id
 _symmetry_equiv_pos_as_xyz
  1  'x, y, z'
loop_
 _atom_site_type_symbol
 _atom_site_label
 _atom_site_symmetry_multiplicity
 _atom_site_fract_x
 _atom_site_fract_y
 _atom_site_fract_z
 _atom_site_occupancy
 _atom_site_pbe_bader_charge
 _atom_site_pbe_bader_spin_density
 _atom_site_pbe_cm5_charge
 _atom_site_pbe_ddec_charge
 _atom_site_pbe_ddec_spin_density
 _atom_site_pbe_ddec_sum_bond_order
 _atom_site_pbe_magmom
Zr  Zr0  1  0.88219464  0.88219123  0.61780636  1  2.630185  0  1.620117  2.390497  0  2.704022  0
Zr  Zr1  1  0.11781085  0.11780740  0.38219186  1  2.630285  0  1.620089  2.390419  0  2.704052  0
Zr  Zr2  1  0.11780223  0.88220045  0.61780047  1  2.631367  0  1.620125  2.390616  0  2.704085  0
Zr  Zr3  1  0.88220271  0.11779895  0.38219672  1  2.630378  0  1.620157  2.390621  0  2.704055  0
Zr  Zr4  1  0.11780939  0.88219128  0.38219003  1  2.630169  0  1.620064  2.390372  0  2.704075  0
Zr  Zr5  1  0.88219438  0.11780829  0.61780896  1  2.630156  0  1.620049  2.39041  0  2.704069  0
H  H6  1  0.09248337  0.72254970  0.59248152  1  0.6337  0  0.331606  0.424866  0  0.853242  0
H  H7  1  0.09248757  0.09248191  0.22254816  1  0.617243  0  0.331601  0.424892  0  0.853219  0
H  H8  1  0.09248383  0.09248656  0.59248057  1  0.604269  0  0.331615  0.424907  0  0.853148  0
H  H9  1  0.72255032  0.09248236  0.59248569  1  0.59117  0  0.331586  0.424848  0  0.853254  0
C  C10  1  0.99735409  0.70179296  0.49734850  1  1.600583  0  0.23842  0.664534  0  4.051016  0
C  C11  1  0.30350599  0.99735129  0.20179181  1  1.58993  0  0.238355  0.664467  0  4.051031  0
C  C12  1  0.99735438  0.30350504  0.49734902  1  1.600927  0  0.2384  0.66452  0  4.051056  0
C  C13  1  0.70179449  0.99735142  0.80350475  1  1.589938  0  0.238469  0.664635  0  4.050936  0
C  C14  1  0.99735636  0.70178961  0.80350283  1  1.589953  0  0.238375  0.664517  0  4.05098  0
C  C15  1  0.70179251  0.99735240  0.49735168  1  1.600525  0  0.238398  0.664528  0  4.050968  0
C  C16  1  0.99735445  0.30350531  0.20178852  1  1.589936  0  0.238375  0.664547  0  4.050987  0
C  C17  1  0.30350607  0.99735250  0.49735312  1  1.601065  0  0.238384  0.664529  0  4.051  0
C  C18  1  0.30350571  0.70179033  0.49735205  1  1.590422  0  0.238391  0.664579  0  4.050979  0
C  C19  1  0.99735721  0.99735228  0.80350209  1  1.600915  0  0.238409  0.664637  0  4.050902  0
C  C20  1  0.70179127  0.30350512  0.49735195  1  1.589941  0  0.238388  0.664578  0  4.050918  0
C  C21  1  0.99735635  0.99735325  0.20178776  1  1.600505  0  0.238404  0.664621  0  4.050836  0
C  C22  1  0.99831552  0.40437865  0.49831189  1  -0.01867  0  -0.015688  -0.128327  0  3.848439  0
C  C23  1  0.99831575  0.59899493  0.49831157  1  0.030703  0  -0.015655  -0.128251  0  3.848349  0
C  C24  1  0.07893249  0.45380700  0.41900549  1  0.203095  0  0.013331  0.074155  0  3.995414  0
C  C25  1  0.91900795  0.54825573  0.57892846  1  0.101889  0  0.013323  0.074106  0  3.995216  0
C  C26  1  0.07893343  0.54825485  0.41900481  1  0.101902  0  0.013321  0.074121  0  3.995388  0
C  C27  1  0.91900900  0.45380721  0.57892865  1  0.202584  0  0.01334  0.074158  0  3.995198  0
C  C28  1  0.40437862  0.99831416  0.09899371  1  0.028686  0  -0.015692  -0.128344  0  3.848331  0
C  C29  1  0.59899564  0.99831354  0.90437893  1  0.028609  0  -0.015663  -0.128306  0  3.848408  0
C  C30  1  0.45380746  0.07893153  0.04825521  1  0.086425  0  0.013324  0.074176  0  3.995294  0
C  C31  1  0.54825628  0.91900685  0.95380696  1  0.16794  0  0.013304  0.074112  0  3.995285  0
C  C32  1  0.54825655  0.07893208  0.95380639  1  0.173181  0  0.013333  0.074134  0  3.995455  0
C  C33  1  0.45380851  0.91900629  0.04825529  1  0.081137  0  0.013318  0.074158  0  3.995232  0
C  C34  1  0.99831571  0.99831512  0.90437805  1  -0.018781  0  -0.015672  -0.128273  0  3.848289  0
C  C35  1  0.99832033  0.99831156  0.09899167  1  0.030615  0  -0.015687  -0.12822  0  3.848288  0
C  C36  1  0.91900838  0.07893299  0.95380613  1  0.137917  0  0.013336  0.074139  0  3.995383  0
C  C37  1  0.07893508  0.91900627  0.04825319  1  0.102  0  0.013316  0.074043  0  3.995579  0
C  C38  1  0.91900965  0.07893238  0.04825320  1  0.166996  0  0.013331  0.074069  0  3.995299  0
C  C39  1  0.07893447  0.91900622  0.95380612  1  0.203116  0  0.013334  0.07416  0  3.995501  0
C  C40  1  0.40438090  0.59899375  0.49831054  1  0.028472  0  -0.015741  -0.12839  0  3.84842  0
C  C41  1  0.59899404  0.40437966  0.49831566  1  0.028637  0  -0.015716  -0.128318  0  3.848426  0
C  C42  1  0.45381001  0.54825403  0.41900461  1  0.08124  0  0.013327  0.074171  0  3.995519  0
C  C43  1  0.54825644  0.45380690  0.57893229  1  0.172935  0  0.013334  0.07414  0  3.99554  0
C  C44  1  0.54825563  0.45380630  0.41900634  1  0.1679  0  0.01333  0.074107  0  3.995426  0
C  C45  1  0.45380829  0.54825475  0.57893052  1  0.086264  0  0.01335  0.074215  0  3.995293  0
C  C46  1  0.99831739  0.40438039  0.09899232  1  0.02879  0  -0.015703  -0.128279  0  3.848421  0
C  C47  1  0.99831499  0.59899291  0.90437802  1  0.028769  0  -0.015681  -0.128248  0  3.848338  0
C  C48  1  0.91900865  0.45380801  0.04825398  1  0.081514  0  0.013327  0.074114  0  3.99528  0
C  C49  1  0.07893429  0.54825586  0.95380591  1  0.172714  0  0.013317  0.074104  0  3.995444  0
C  C50  1  0.91900845  0.54825526  0.95380569  1  0.16787  0  0.013318  0.07411  0  3.995373  0
C  C51  1  0.07893384  0.45380795  0.04825471  1  0.086543  0  0.013337  0.074132  0  3.995584  0
C  C52  1  0.40438229  0.99831530  0.49831057  1  -0.018898  0  -0.015778  -0.128358  0  3.848474  0
C  C53  1  0.59899538  0.99831189  0.49831474  1  0.030705  0  -0.015683  -0.128305  0  3.848393  0
C  C54  1  0.45380900  0.91900697  0.57893077  1  0.138766  0  0.013383  0.074196  0  3.995396  0
C  C55  1  0.54825678  0.07893083  0.41900687  1  0.166302  0  0.013341  0.074133  0  3.99535  0
C  C56  1  0.54825585  0.91900472  0.57893308  1  0.166213  0  0.013341  0.074157  0  3.995523  0
C  C57  1  0.45381006  0.07893055  0.41900451  1  0.138446  0  0.013336  0.07415  0  3.995551  0
Cl  Cl58  1  0.18262440  0.40336812  0.31777677  1  -0.14274  0  0.013514  -0.028129  0  1.86967  0
Cl  Cl59  1  0.81777713  0.59623397  0.68261854  1  -0.136702  0  0.013501  -0.028133  0  1.869596  0
Cl  Cl60  1  0.18262402  0.59623241  0.31777656  1  -0.136793  0  0.013498  -0.028149  0  1.869697  0
Cl  Cl61  1  0.81778032  0.40336850  0.68261956  1  -0.136362  0  0.013489  -0.028143  0  1.869559  0
Cl  Cl62  1  0.40336955  0.18262179  0.09623204  1  -0.131213  0  0.013506  -0.028143  0  1.869686  0
Cl  Cl63  1  0.59623497  0.81777644  0.90336933  1  -0.123049  0  0.013504  -0.028126  0  1.869633  0
Cl  Cl64  1  0.59623309  0.18262172  0.90336774  1  -0.128216  0  0.013515  -0.028119  0  1.869726  0
Cl  Cl65  1  0.40337088  0.81777729  0.09623259  1  -0.126204  0  0.013487  -0.028163  0  1.869647  0
Cl  Cl66  1  0.81777979  0.18261871  0.90336689  1  -0.142629  0  0.013516  -0.028107  0  1.869686  0
Cl  Cl67  1  0.18262266  0.81777689  0.09623480  1  -0.143068  0  0.013508  -0.028101  0  1.869723  0
Cl  Cl68  1  0.81777669  0.18262341  0.09622910  1  -0.136908  0  0.013488  -0.028128  0  1.869603  0
Cl  Cl69  1  0.18262454  0.81777362  0.90337156  1  -0.142802  0  0.013487  -0.02816  0  1.86968  0
Cl  Cl70  1  0.40336897  0.59623486  0.31777719  1  -0.123126  0  0.013496  -0.028156  0  1.869715  0
Cl  Cl71  1  0.59623624  0.40336749  0.68261855  1  -0.121966  0  0.013504  -0.028132  0  1.869739  0
Cl  Cl72  1  0.59623258  0.40337002  0.31777526  1  -0.132378  0  0.013502  -0.028125  0  1.869677  0
Cl  Cl73  1  0.40337357  0.59623193  0.68262076  1  -0.131172  0  0.013514  -0.02814  0  1.869634  0
Cl  Cl74  1  0.81777739  0.40337125  0.09622918  1  -0.126514  0  0.013495  -0.028124  0  1.869561  0
Cl  Cl75  1  0.18262513  0.59623051  0.90337066  1  -0.137488  0  0.013498  -0.028137  0  1.869701  0
Cl  Cl76  1  0.81778113  0.59623451  0.90336451  1  -0.116969  0  0.013507  -0.028116  0  1.869663  0
Cl  Cl77  1  0.18262100  0.40336819  0.09623559  1  -0.128182  0  0.013507  -0.028123  0  1.869773  0
Cl  Cl78  1  0.40337208  0.81777681  0.68262324  1  -0.136491  0  0.01348  -0.028161  0  1.869622  0
Cl  Cl79  1  0.59623280  0.18262311  0.31777495  1  -0.142954  0  0.013504  -0.028128  0  1.869633  0
Cl  Cl80  1  0.59623651  0.81777746  0.68262115  1  -0.142856  0  0.013504  -0.028141  0  1.869736  0
Cl  Cl81  1  0.40336995  0.18261871  0.31777596  1  -0.136395  0  0.013509  -0.028155  0  1.869759  0
O  O82  1  0.92280253  0.74207849  0.57177494  1  -1.169982  0  -0.352037  -0.613847  0  2.367393  0
O  O83  1  0.26334630  0.07177612  0.24207860  1  -1.165125  0  -0.352031  -0.613822  0  2.367398  0
O  O84  1  0.07178024  0.26334491  0.42279762  1  -1.172077  0  -0.352033  -0.613841  0  2.367422  0
O  O85  1  0.74208030  0.92280012  0.76334452  1  -1.164035  0  -0.352042  -0.613857  0  2.367394  0
O  O86  1  0.07178096  0.74207572  0.76334437  1  -1.165293  0  -0.352022  -0.613878  0  2.367362  0
O  O87  1  0.74207832  0.07177661  0.42279861  1  -1.170107  0  -0.352019  -0.613871  0  2.367379  0
O  O88  1  0.92280234  0.26334678  0.24207327  1  -1.163842  0  -0.352018  -0.61387  0  2.367373  0
O  O89  1  0.26334769  0.92280048  0.57177707  1  -1.172064  0  -0.352012  -0.613862  0  2.367396  0
O  O90  1  0.26334552  0.74207906  0.42279723  1  -1.164107  0  -0.352074  -0.613895  0  2.367394  0
O  O91  1  0.92280166  0.07177829  0.76334282  1  -1.171987  0  -0.352042  -0.6139  0  2.36743  0
O  O92  1  0.74208023  0.26334384  0.57177921  1  -1.165207  0  -0.352064  -0.613878  0  2.367289  0
O  O93  1  0.07178250  0.92279768  0.24207746  1  -1.170025  0  -0.352055  -0.613918  0  2.36731  0
O  O94  1  0.07178126  0.92280071  0.76334412  1  -1.172035  0  -0.352031  -0.613948  0  2.367395  0
O  O95  1  0.74207798  0.26334702  0.42279988  1  -1.164099  0  -0.352016  -0.613902  0  2.367434  0
O  O96  1  0.92280299  0.07177801  0.24207414  1  -1.169887  0  -0.35201  -0.613896  0  2.367365  0
O  O97  1  0.26334711  0.74207654  0.57177656  1  -1.165099  0  -0.352009  -0.613868  0  2.367375  0
O  O98  1  0.92280109  0.74207919  0.76334306  1  -1.163948  0  -0.352061  -0.613859  0  2.367401  0
O  O99  1  0.26334558  0.07177898  0.42279830  1  -1.172003  0  -0.352031  -0.613851  0  2.367427  0
O  O100  1  0.07178094  0.26334337  0.24207743  1  -1.165293  0  -0.35205  -0.61389  0  2.367359  0
O  O101  1  0.74208098  0.92279733  0.57177843  1  -1.170094  0  -0.352064  -0.613851  0  2.3673  0
O  O102  1  0.74208109  0.07177741  0.76334408  1  -1.16516  0  -0.352085  -0.613904  0  2.367338  0
O  O103  1  0.07177815  0.74208020  0.42279692  1  -1.170116  0  -0.352037  -0.613827  0  2.36741  0
O  O104  1  0.26334616  0.92279948  0.24207854  1  -1.163942  0  -0.352016  -0.613788  0  2.367388  0
O  O105  1  0.92280312  0.26334437  0.57177434  1  -1.171952  0  -0.352034  -0.613827  0  2.367439  0
O  O106  1  0.80152358  0.06616086  0.56615553  1  -1.21645  0  -0.692372  -1.065006  0  2.358676  0
O  O107  1  0.06616262  0.06615654  0.56615930  1  -1.229175  0  -0.6924  -1.065021  0  2.358577  0
O  O108  1  0.06615868  0.06616048  0.30152092  1  -1.242505  0  -0.692375  -1.064981  0  2.358591  0
O  O109  1  0.06616218  0.80152197  0.56615969  1  -1.258783  0  -0.692393  -1.065  0  2.358688  0
O  O110  1  0.14613312  0.95128654  0.45129595  1  -1.189487  0  -0.786256  -1.147176  0  2.122004  0
O  O111  1  0.95128641  0.95129728  0.45128502  1  -1.192103  0  -0.786264  -1.147171  0  2.122  0
O  O112  1  0.95128807  0.14613182  0.45128404  1  -1.187473  0  -0.786214  -1.147141  0  2.121975  0
O  O113  1  0.95129899  0.95128536  0.64613033  1  -1.189466  0  -0.786241  -1.147199  0  2.121987  0
