# generated using pymatgen
data_AlH24C27(NO2)3
_symmetry_space_group_name_H-M   'P 1'
_cell_length_a   3.96003077
_cell_length_b   27.93433910
_cell_length_c   27.93450694
_cell_angle_alpha   119.99960079
_cell_angle_beta   90.00064110
_cell_angle_gamma   90.00140168
_symmetry_Int_Tables_number   1
_chemical_formula_structural   AlH24C27(NO2)3
_chemical_formula_sum   'Al2 H48 C54 N6 O12'
_cell_volume   2676.14937219
_cell_formula_units_Z   2
loop_
 _symmetry_equiv_pos_site_id
 _symmetry_equiv_pos_as_xyz
  1  'x, y, z'
loop_
 _atom_site_type_symbol
 _atom_site_label
 _atom_site_symmetry_multiplicity
 _atom_site_fract_x
 _atom_site_fract_y
 _atom_site_fract_z
 _atom_site_occupancy
 _atom_site_pbe_bader_charge
 _atom_site_pbe_bader_spin_density
 _atom_site_pbe_cm5_charge
 _atom_site_pbe_ddec_charge
 _atom_site_pbe_ddec_spin_density
 _atom_site_pbe_ddec_sum_bond_order
 _atom_site_pbe_magmom
Al  Al0  1  0.99779255  0.50000229  0.50000090  1  2.503593  0  0.426458  1.587748  0  2.569456  0
Al  Al1  1  0.02695884  0.16666610  0.83333677  1  2.503206  0  0.426091  1.587589  0  2.578978  0
H  H2  1  0.44606693  0.17774617  0.68788658  1  0.047848  0  0.105885  0.11006  0  0.985325  0
H  H3  1  0.44853708  0.23431615  0.64061753  1  0.094598  0  0.104888  0.104314  0  1.021145  0
H  H4  1  0.44758275  0.28452023  0.53701964  1  0.044847  0  0.104657  0.110515  0  1.001307  0
H  H5  1  0.54754542  0.43274067  0.69386586  1  0.05292  0  0.103922  0.107407  0  1.025839  0
H  H6  1  0.44596943  0.01013652  0.82225033  1  0.052598  0  0.105852  0.109941  0  0.985112  0
H  H7  1  0.44852166  0.90629386  0.76568143  1  0.093171  0  0.104905  0.104346  0  1.02106  0
H  H8  1  0.44757713  0.75249755  0.71548272  1  0.039458  0  0.104597  0.110427  0  1.001165  0
H  H9  1  0.54752071  0.76112398  0.56726164  1  0.053349  0  0.103851  0.107301  0  1.025973  0
H  H10  1  0.44600210  0.31211386  0.98986218  1  0.05558  0  0.105889  0.11  0  0.985114  0
H  H11  1  0.44850342  0.35938333  0.09370323  1  0.097266  0  0.104895  0.104306  0  1.02112  0
H  H12  1  0.44749321  0.46298285  0.24749968  1  0.044233  0  0.104635  0.110474  0  1.001118  0
H  H13  1  0.54745837  0.30613482  0.23887650  1  0.059822  0  0.103868  0.107325  0  1.025735  0
H  H14  1  0.76829682  0.35391122  0.88003416  1  0.032643  0  0.092039  0.12698  0  1.010727  0
H  H15  1  0.45939627  0.30801188  0.87986906  1  0.057368  0  0.097365  0.144297  0  1.009809  0
H  H16  1  0.33607186  0.37021747  0.88188538  1  0.034505  0  0.087906  0.114681  0  1.02468  0
H  H17  1  0.28047089  0.41663444  0.83485654  1  0.025963  0  0.088831  0.119326  0  1.01947  0
H  H18  1  0.52543683  0.41907468  0.78276187  1  0.069199  0  0.092374  0.122989  0  1.040312  0
H  H19  1  0.72426794  0.41506974  0.83807374  1  0.025543  0  0.088191  0.11935  0  1.017877  0
H  H20  1  0.70485613  0.32488839  0.45255695  1  0.068805  0  0.093496  0.13298  0  1.008868  0
H  H21  1  0.30381145  0.35428515  0.45683555  1  0.057085  0  0.094938  0.133401  0  1.018976  0
H  H22  1  0.33703536  0.28981135  0.45512096  1  0.045718  0  0.091226  0.126006  0  0.996094  0
H  H23  1  0.29962497  0.52612472  0.66550533  1  0.042749  0  0.093478  0.132757  0  1.01171  0
H  H24  1  0.70434031  0.52456532  0.63833051  1  0.04815  0  0.094876  0.133477  0  1.019479  0
H  H25  1  0.66182483  0.51848820  0.69861651  1  0.040696  0  0.091272  0.126449  0  0.995673  0
H  H26  1  0.76833505  0.02612163  0.64609168  1  0.036216  0  0.091983  0.12692  0  1.010911  0
H  H27  1  0.45941392  0.07184892  0.69198185  1  0.067701  0  0.097328  0.144252  0  1.009696  0
H  H28  1  0.33612944  0.01165531  0.62977177  1  0.005936  0  0.087948  0.114658  0  1.024708  0
H  H29  1  0.28072130  0.91821169  0.58335512  1  0.033622  0  0.088836  0.119405  0  1.019456  0
H  H30  1  0.52566410  0.86368149  0.58092461  1  0.12585  0  0.092369  0.123027  0  1.040251  0
H  H31  1  0.72449358  0.92300396  0.58493858  1  0.028138  0  0.088363  0.119563  0  1.017833  0
H  H32  1  0.70487843  0.62766398  0.67511116  1  0.064934  0  0.093563  0.13308  0  1.00879  0
H  H33  1  0.30382266  0.60254282  0.64571082  1  0.060969  0  0.094968  0.133401  0  1.019055  0
H  H34  1  0.33705006  0.66530165  0.71018938  1  0.044817  0  0.091282  0.126038  0  0.995986  0
H  H35  1  0.29963723  0.63937763  0.47387044  1  0.041859  0  0.09348  0.13277  0  1.011726  0
H  H36  1  0.70434658  0.61376485  0.47544179  1  0.053161  0  0.094896  0.133513  0  1.019427  0
H  H37  1  0.66185035  0.68012973  0.48151771  1  0.037381  0  0.091265  0.126449  0  0.995648  0
H  H38  1  0.76835362  0.11996975  0.97388283  1  0.032723  0  0.091993  0.126961  0  1.010802  0
H  H39  1  0.45944260  0.12013312  0.92815173  1  0.105832  0  0.097346  0.144267  0  1.009799  0
H  H40  1  0.33613265  0.11811553  0.98834136  1  0.019535  0  0.087927  0.114689  0  1.024662  0
H  H41  1  0.28061631  0.16514466  0.08178623  1  0.037653  0  0.088872  0.119417  0  1.019519  0
H  H42  1  0.52558823  0.21724628  0.13632136  1  0.067804  0  0.092387  0.123076  0  1.040243  0
H  H43  1  0.72441290  0.16193279  0.07700167  1  0.034577  0  0.088339  0.119513  0  1.018014  0
H  H44  1  0.70484182  0.54744359  0.37233248  1  0.068428  0  0.093472  0.132982  0  1.008853  0
H  H45  1  0.30379254  0.54316611  0.39745145  1  0.047014  0  0.09495  0.133429  0  1.018965  0
H  H46  1  0.33701974  0.54488334  0.33469217  1  0.03674  0  0.09125  0.126041  0  0.996041  0
H  H47  1  0.29959889  0.33449067  0.36062018  1  0.043102  0  0.093454  0.132827  0  1.011696  0
H  H48  1  0.70430365  0.36167335  0.38623503  1  0.036314  0  0.09487  0.133541  0  1.019539  0
H  H49  1  0.66178352  0.30138826  0.31987338  1  0.042712  0  0.091278  0.126473  0  0.995734  0
C  C50  1  0.49843121  0.46245687  0.41438783  1  1.558448  0  0.280242  0.672598  0  4.038985  0
C  C51  1  0.49845792  0.45193320  0.53754810  1  1.569479  0  0.280205  0.672543  0  4.038914  0
C  C52  1  0.49844965  0.58561052  0.54806764  1  1.568706  0  0.280189  0.672631  0  4.038784  0
C  C53  1  0.52055089  0.21299850  0.79451421  1  1.557026  0  0.27929  0.661694  0  4.051658  0
C  C54  1  0.52053421  0.08150801  0.78699994  1  1.549918  0  0.279292  0.661434  0  4.051856  0
C  C55  1  0.52055264  0.20548809  0.91848946  1  1.589704  0  0.279319  0.661525  0  4.052275  0
C  C56  1  0.49642440  0.24902692  0.76942085  1  -0.151187  0  -0.004507  -0.081602  0  3.927038  0
C  C57  1  0.46442766  0.22271749  0.71157086  1  0.109232  0  -0.084827  -0.09076  0  4.015957  0
C  C58  1  0.46483331  0.25352631  0.68539606  1  -0.048  0  -0.084994  -0.139147  0  4.001115  0
C  C59  1  0.48582677  0.31151008  0.71695960  1  0.389738  0  0.088197  0.113706  0  4.014573  0
C  C60  1  0.50122273  0.33871171  0.77535997  1  0.017152  0  0.005578  0.06242  0  3.862269  0
C  C61  1  0.50916543  0.30698630  0.80189008  1  0.015586  0  -0.000873  0.099024  0  3.899692  0
C  C62  1  0.47113282  0.32944540  0.56030764  1  0.018181  0  -0.084701  -0.210856  0  3.929296  0
C  C63  1  0.49451596  0.35546767  0.61791637  1  0.236935  0  0.086298  0.18284  0  4.086592  0
C  C64  1  0.52420628  0.41318123  0.64912083  1  0.086273  0  -0.088221  -0.213514  0  3.930924  0
C  C65  1  0.52330397  0.44495965  0.62357875  1  0.028393  0  -0.000375  0.173466  0  3.960822  0
C  C66  1  0.49965558  0.41797441  0.56527697  1  -0.054305  0  -0.007879  -0.153144  0  3.849776  0
C  C67  1  0.47580858  0.35996867  0.53317766  1  0.026469  0  -0.001691  0.170053  0  3.962157  0
C  C68  1  0.49637114  0.02039017  0.75096842  1  0.004565  0  -0.004537  -0.081546  0  3.927365  0
C  C69  1  0.46437255  0.98884795  0.77727636  1  0.133529  0  -0.084858  -0.09067  0  4.015777  0
C  C70  1  0.46483863  0.93186267  0.74646782  1  -0.067522  0  -0.085013  -0.139326  0  4.001044  0
C  C71  1  0.48590965  0.90544252  0.68848681  1  0.333743  0  0.088158  0.113707  0  4.014525  0
C  C72  1  0.50131013  0.93663920  0.66128203  1  0.013547  0  0.005667  0.062409  0  3.861984  0
C  C73  1  0.50924311  0.99489878  0.69301144  1  -0.059213  0  -0.000931  0.099059  0  3.899445  0
C  C74  1  0.47110108  0.73085754  0.67055319  1  0.042933  0  -0.084634  -0.210756  0  3.929354  0
C  C75  1  0.49451168  0.76244414  0.64453364  1  0.348346  0  0.086448  0.183056  0  4.086816  0
C  C76  1  0.52417859  0.73593910  0.58682157  1  -0.06108  0  -0.088212  -0.213443  0  3.930962  0
C  C77  1  0.52327341  0.67861931  0.55504235  1  0.031662  0  -0.000341  0.173451  0  3.960722  0
C  C78  1  0.49964822  0.64729869  0.58202523  1  -0.05863  0  -0.007866  -0.153147  0  3.849633  0
C  C79  1  0.47581709  0.67320502  0.64003103  1  0.015606  0  -0.001698  0.169993  0  3.9622  0
C  C80  1  0.49642357  0.23057926  0.97961077  1  -0.053344  0  -0.004449  -0.081421  0  3.926788  0
C  C81  1  0.46439290  0.28842980  0.01115189  1  0.034382  0  -0.084937  -0.09083  0  4.015926  0
C  C82  1  0.46480650  0.31460447  0.06813343  1  -0.058554  0  -0.085039  -0.139241  0  4.00118  0
C  C83  1  0.48589053  0.28304362  0.09455776  1  0.480141  0  0.088117  0.113593  0  4.014795  0
C  C84  1  0.50130838  0.22464623  0.06335934  1  -0.142447  0  0.005633  0.062415  0  3.862214  0
C  C85  1  0.50921534  0.19811221  0.00510409  1  0.05314  0  -0.000961  0.099037  0  3.89947  0
C  C86  1  0.47104743  0.43969368  0.26914128  1  -0.079447  0  -0.084689  -0.210897  0  3.929382  0
C  C87  1  0.49441477  0.38208787  0.23755513  1  0.394443  0  0.086356  0.182956  0  4.08683  0
C  C88  1  0.52410987  0.35088367  0.26406245  1  0.023626  0  -0.088159  -0.21344  0  3.930884  0
C  C89  1  0.52324062  0.37641980  0.32138181  1  -0.052679  0  -0.000401  0.173467  0  3.960688  0
C  C90  1  0.49958798  0.43472412  0.35270046  1  0.025159  0  -0.007895  -0.153213  0  3.84968  0
C  C91  1  0.47574394  0.46682547  0.32679597  1  0.04606  0  -0.001699  0.170022  0  3.962031  0
C  C92  1  0.51784709  0.33587327  0.86408143  1  -0.025387  0  -0.238345  -0.401383  0  3.963024  0
C  C93  1  0.50945158  0.40073622  0.80929054  1  -0.063977  0  -0.239751  -0.396315  0  3.988363  0
C  C94  1  0.45262196  0.33072562  0.47115975  1  -0.101324  0  -0.238615  -0.414267  0  3.959533  0
C  C95  1  0.55035845  0.50683587  0.65828488  1  -0.052956  0  -0.239348  -0.415168  0  3.958865  0
C  C96  1  0.51788840  0.02819891  0.66412072  1  -0.018463  0  -0.238249  -0.401273  0  3.963105  0
C  C97  1  0.50966377  0.90854764  0.59926190  1  -0.12814  0  -0.239944  -0.396646  0  3.988417  0
C  C98  1  0.45263631  0.64042625  0.66927105  1  -0.103711  0  -0.238746  -0.414384  0  3.959672  0
C  C99  1  0.55035678  0.65144893  0.49316792  1  -0.05495  0  -0.239357  -0.415225  0  3.958754  0
C  C100  1  0.51790231  0.13592229  0.97180010  1  -0.064747  0  -0.238236  -0.401334  0  3.963154  0
C  C101  1  0.50959186  0.19071420  0.09145311  1  -0.081942  0  -0.239998  -0.39673  0  3.988537  0
C  C102  1  0.45259168  0.52884362  0.35956859  1  -0.080676  0  -0.238582  -0.414257  0  3.95946  0
C  C103  1  0.55031173  0.34171798  0.34855367  1  -0.046298  0  -0.239291  -0.415298  0  3.958945  0
N  N104  1  0.49005347  0.34554139  0.69305159  1  -0.602871  0  -0.145372  -0.112608  0  3.298661  0
N  N105  1  0.48760731  0.32025699  0.64063965  1  -0.395062  0  -0.150624  -0.141709  0  3.266372  0
N  N106  1  0.49014570  0.84750364  0.65445573  1  -0.54318  0  -0.145247  -0.112292  0  3.298478  0
N  N107  1  0.48758378  0.82037920  0.67974270  1  -0.429058  0  -0.150743  -0.141969  0  3.266413  0
N  N108  1  0.49008677  0.30694789  0.15249520  1  -0.469649  0  -0.145234  -0.112368  0  3.298535  0
N  N109  1  0.48753936  0.35936012  0.17961819  1  -0.556313  0  -0.150683  -0.141739  0  3.266053  0
O  O110  1  0.73328424  0.55907385  0.55615075  1  -1.257679  0  -0.234552  -0.598125  0  2.371559  0
O  O111  1  0.73326170  0.49707670  0.44092781  1  -1.255719  0  -0.23463  -0.598229  0  2.371844  0
O  O112  1  0.73325958  0.44385072  0.50292358  1  -1.258942  0  -0.234611  -0.59813  0  2.371516  0
O  O113  1  0.26240265  0.56277302  0.51254556  1  -1.262247  0  -0.233176  -0.596805  0  2.375915  0
O  O114  1  0.26240523  0.48745178  0.55023178  1  -1.258041  0  -0.233088  -0.596712  0  2.375809  0
O  O115  1  0.26239498  0.44977019  0.43722395  1  -1.260412  0  -0.233166  -0.596714  0  2.375696  0
O  O116  1  0.76671865  0.17285048  0.89395041  1  -1.251153  0  -0.229195  -0.585608  0  2.375615  0
O  O117  1  0.76673279  0.22109168  0.82715011  1  -1.252024  0  -0.229286  -0.585747  0  2.375539  0
O  O118  1  0.76671338  0.10605283  0.77890427  1  -1.251865  0  -0.229219  -0.585557  0  2.375372  0
O  O119  1  0.29656468  0.21898295  0.89437103  1  -1.250934  0  -0.242075  -0.608085  0  2.361161  0
O  O120  1  0.29650922  0.10562677  0.82461705  1  -1.254319  0  -0.242047  -0.60805  0  2.360483  0
O  O121  1  0.29654128  0.17538106  0.78101668  1  -1.247599  0  -0.242  -0.608156  0  2.36074  0
