# generated using pymatgen
data_ZnH4C13SNO7F3
_symmetry_space_group_name_H-M   'P 1'
_cell_length_a   8.06759229
_cell_length_b   10.89338336
_cell_length_c   34.29788397
_cell_angle_alpha   89.60819404
_cell_angle_beta   90.40931881
_cell_angle_gamma   89.40265388
_symmetry_Int_Tables_number   1
_chemical_formula_structural   ZnH4C13SNO7F3
_chemical_formula_sum   'Zn4 H16 C52 S4 N4 O28 F12'
_cell_volume   3013.90107008
_cell_formula_units_Z   4
loop_
 _symmetry_equiv_pos_site_id
 _symmetry_equiv_pos_as_xyz
  1  'x, y, z'
loop_
 _atom_site_type_symbol
 _atom_site_label
 _atom_site_symmetry_multiplicity
 _atom_site_fract_x
 _atom_site_fract_y
 _atom_site_fract_z
 _atom_site_occupancy
 _atom_site_pbe_bader_charge
 _atom_site_pbe_bader_spin_density
 _atom_site_pbe_cm5_charge
 _atom_site_pbe_ddec_charge
 _atom_site_pbe_ddec_spin_density
 _atom_site_pbe_ddec_sum_bond_order
 _atom_site_pbe_magmom
Zn  Zn0  1  0.71645076  0.00060625  0.49905920  1  1.306568  0  0.740857  0.975145  0  2.117914  0
Zn  Zn1  1  0.37768941  0.00247837  0.49994270  1  1.313945  0  0.740102  0.983696  0  2.014279  0
Zn  Zn2  1  0.18596211  0.00078748  0.00129203  1  1.309403  0  0.741016  0.976165  0  2.114104  0
Zn  Zn3  1  0.52496057  0.99748140  0.99993502  1  1.311671  0  0.739814  0.982967  0  2.011692  0
H  H4  1  0.67328089  0.01756862  0.87703548  1  0.158591  0  0.112681  0.126774  0  1.003138  0
H  H5  1  0.67337621  0.01327050  0.80479836  1  0.151919  0  0.117859  0.127878  0  0.994318  0
H  H6  1  0.14468219  0.96307350  0.80527320  1  0.13005  0  0.121538  0.13662  0  0.998955  0
H  H7  1  0.75649703  0.96253099  0.69478656  1  0.119704  0  0.121561  0.13663  0  0.99823  0
H  H8  1  0.22665399  0.01430278  0.69501281  1  0.159105  0  0.118046  0.128032  0  0.994561  0
H  H9  1  0.22673149  0.01880599  0.62273551  1  0.154662  0  0.112699  0.12674  0  1.002704  0
H  H10  1  0.67365517  0.99144289  0.12360544  1  0.171694  0  0.112631  0.1251  0  1.017486  0
H  H11  1  0.67471739  0.00207636  0.19568143  1  0.141172  0  0.117782  0.126852  0  0.998279  0
H  H12  1  0.14175762  0.02979358  0.19396467  1  0.156967  0  0.121967  0.136258  0  0.998419  0
H  H13  1  0.76144487  0.03415199  0.30570059  1  0.144027  0  0.12175  0.136617  0  0.997172  0
H  H14  1  0.22969247  0.00215173  0.30423016  1  0.138581  0  0.118233  0.127977  0  0.997542  0
H  H15  1  0.23133868  0.99393452  0.37640642  1  0.152039  0  0.112357  0.124571  0  1.016121  0
H  H16  1  0.11810958  0.07206176  0.92447605  1  0.647695  0  0.307869  0.370222  0  0.96243  0
H  H17  1  0.78217003  0.07289890  0.57528006  1  0.641762  0  0.308152  0.369795  0  0.962087  0
H  H18  1  0.11857523  0.89173969  0.07712387  1  0.640164  0  0.315079  0.378998  0  0.936121  0
H  H19  1  0.78940451  0.89957668  0.42310992  1  0.640777  0  0.314509  0.378134  0  0.937331  0
C  C20  1  0.60811804  0.77031500  0.50465388  1  1.590151  0  0.226349  0.631852  0  4.134631  0
C  C21  1  0.47845679  0.00043331  0.57393850  1  1.522642  0  0.22476  0.604761  0  4.14043  0
C  C22  1  0.60844804  0.23257859  0.50235744  1  1.621096  0  0.227498  0.632663  0  4.134514  0
C  C23  1  0.48599244  0.99790550  0.42571783  1  1.53464  0  0.233224  0.618112  0  4.100053  0
C  C24  1  0.29481678  0.76898901  0.99546038  1  1.599605  0  0.225632  0.631084  0  4.134552  0
C  C25  1  0.42231309  0.99936529  0.92596319  1  1.531717  0  0.225397  0.605028  0  4.137969  0
C  C26  1  0.29366445  0.23116355  0.99767039  1  1.607141  0  0.226663  0.631037  0  4.139146  0
C  C27  1  0.41887421  0.99235581  0.07422460  1  1.517394  0  0.232169  0.614773  0  4.101621  0
C  C28  1  0.41090901  0.99156674  0.88266450  1  0.094757  0  -0.00506  -0.045578  0  3.921064  0
C  C29  1  0.55743656  0.00517398  0.86117128  1  -0.030367  0  -0.063475  -0.050525  0  3.901481  0
C  C30  1  0.55789858  0.00336812  0.82066584  1  0.016757  0  -0.060251  -0.107339  0  3.867613  0
C  C31  1  0.40717127  0.98893723  0.80055482  1  0.27669  0  0.101155  0.187365  0  4.012897  0
C  C32  1  0.25998033  0.97472836  0.82138959  1  0.053662  0  -0.067239  -0.145219  0  3.932642  0
C  C33  1  0.25995984  0.97470701  0.86184698  1  -0.239471  0  -0.007936  -0.092694  0  3.904139  0
C  C34  1  0.64093121  0.97448609  0.67860761  1  0.057849  0  -0.067368  -0.145177  0  3.930976  0
C  C35  1  0.49338532  0.98919551  0.69937047  1  0.298939  0  0.100793  0.187015  0  4.013579  0
C  C36  1  0.34235341  0.00411061  0.67918362  1  0.012514  0  -0.060187  -0.107708  0  3.869016  0
C  C37  1  0.34281827  0.00596859  0.63866949  1  -0.039731  0  -0.063231  -0.049706  0  3.900376  0
C  C38  1  0.48968735  0.99195650  0.61724998  1  0.060427  0  -0.00533  -0.046499  0  3.921338  0
C  C39  1  0.64103304  0.97457506  0.63815136  1  -0.197132  0  -0.007399  -0.091547  0  3.902037  0
C  C40  1  0.40873986  0.00393307  0.11737089  1  0.087935  0  -0.002787  -0.03918  0  3.908087  0
C  C41  1  0.55703459  0.00000278  0.13911010  1  -0.057834  0  -0.063245  -0.050851  0  3.903594  0
C  C42  1  0.55815024  0.00594444  0.17954515  1  -0.005262  0  -0.059831  -0.107901  0  3.871463  0
C  C43  1  0.40672285  0.01609704  0.19927926  1  0.314068  0  0.101957  0.187002  0  4.012925  0
C  C44  1  0.25765057  0.02162853  0.17814210  1  0.037426  0  -0.064538  -0.140992  0  3.926167  0
C  C45  1  0.25676702  0.01583647  0.13771812  1  -0.234105  0  -0.00582  -0.090296  0  3.904205  0
C  C46  1  0.64587413  0.02566447  0.32158640  1  0.03579  0  -0.064531  -0.142522  0  3.926326  0
C  C47  1  0.49702748  0.01809279  0.30051349  1  0.278459  0  0.101932  0.188711  0  4.011744  0
C  C48  1  0.34604810  0.00749048  0.32033717  1  0.021014  0  -0.060089  -0.110717  0  3.872936  0
C  C49  1  0.34753537  0.00304586  0.36081934  1  0.005192  0  -0.062868  -0.04913  0  3.903923  0
C  C50  1  0.49568335  0.00890347  0.38250111  1  -0.037981  0  -0.002791  -0.040283  0  3.912191  0
C  C51  1  0.64708190  0.02141664  0.36204180  1  -0.133416  0  -0.005701  -0.090223  0  3.908698  0
C  C52  1  0.61395438  0.63249983  0.50842389  1  0.119722  0  -0.009243  -0.129824  0  3.921146  0
C  C53  1  0.54521010  0.56624390  0.54047617  1  -0.038739  0  -0.002885  -0.00977  0  3.993399  0
C  C54  1  0.68124888  0.56737209  0.47803188  1  0.515348  0  0.105159  0.168097  0  4.068392  0
C  C55  1  0.47943986  0.62544453  0.57370435  1  0.627801  0  0.096017  0.137134  0  4.057988  0
C  C56  1  0.41053282  0.56168569  0.60436306  1  0.577511  0  0.092497  0.08624  0  4.142222  0
C  C57  1  0.61353589  0.37004179  0.50723911  1  0.07174  0  -0.012574  -0.139501  0  3.92563  0
C  C58  1  0.68105229  0.43789245  0.47735713  1  0.521832  0  0.107228  0.17033  0  4.074914  0
C  C59  1  0.54508579  0.43360469  0.53985903  1  0.139835  0  -0.004737  -0.013302  0  4.010101  0
C  C60  1  0.47973959  0.37184158  0.57265722  1  0.549697  0  0.088511  0.124139  0  4.071214  0
C  C61  1  0.41072860  0.43269482  0.60380837  1  0.613909  0  0.090911  0.087272  0  4.145475  0
C  C62  1  0.28893057  0.63140199  0.99168789  1  0.108709  0  -0.008595  -0.127978  0  3.920209  0
C  C63  1  0.35688749  0.56540363  0.95955266  1  0.031056  0  -0.002748  -0.00967  0  3.993843  0
C  C64  1  0.22196139  0.56603326  0.02213098  1  0.540058  0  0.105185  0.167592  0  4.067911  0
C  C65  1  0.42257724  0.62482718  0.92628109  1  0.62613  0  0.096111  0.137568  0  4.057056  0
C  C66  1  0.49025647  0.56120928  0.89549248  1  0.571734  0  0.091805  0.086748  0  4.14235  0
C  C67  1  0.28834915  0.36888051  0.99278776  1  0.010157  0  -0.012236  -0.138807  0  3.927588  0
C  C68  1  0.22177818  0.43652256  0.02276892  1  0.549452  0  0.106354  0.169506  0  4.076602  0
C  C69  1  0.35604387  0.43274837  0.96007960  1  0.141074  0  -0.005341  -0.014166  0  4.011934  0
C  C70  1  0.42022167  0.37126722  0.92717604  1  0.523059  0  0.088816  0.125283  0  4.070892  0
C  C71  1  0.48897364  0.43221624  0.89595671  1  0.617988  0  0.090497  0.085642  0  4.147316  0
S  S72  1  0.05745569  0.94675438  0.88178993  1  3.093903  0  0.532535  1.15347  0  6.003548  0
S  S73  1  0.84438033  0.94633557  0.61836692  1  3.088388  0  0.533209  1.153523  0  6.003256  0
S  S74  1  0.05122167  0.02685860  0.11683997  1  3.067941  0  0.536624  1.151717  0  6.000693  0
S  S75  1  0.85187286  0.03504973  0.38290010  1  3.052362  0  0.535963  1.151598  0  6.004619  0
N  N76  1  0.38390335  0.98814645  0.75962995  1  -0.452474  0  -0.136171  -0.121631  0  3.25247  0
N  N77  1  0.51665086  0.98827971  0.74029688  1  -0.42164  0  -0.135927  -0.121113  0  3.252831  0
N  N78  1  0.38501708  0.01903403  0.24015566  1  -0.399771  0  -0.136258  -0.122824  0  3.253586  0
N  N79  1  0.51864690  0.01947547  0.25962157  1  -0.476096  0  -0.135888  -0.121929  0  3.252842  0
O  O80  1  0.74901210  0.82414778  0.50387844  1  -1.105293  0  -0.30591  -0.509373  0  2.252004  0
O  O81  1  0.46676012  0.82043377  0.50120054  1  -1.14944  0  -0.30396  -0.556563  0  2.305078  0
O  O82  1  0.33711272  0.99719256  0.55667273  1  -1.106672  0  -0.295997  -0.502178  0  2.229699  0
O  O83  1  0.61368273  0.01309399  0.55505254  1  -1.191781  0  -0.312167  -0.62389  0  2.532215  0
O  O84  1  0.46867596  0.18393008  0.49730889  1  -1.150863  0  -0.301119  -0.55214  0  2.288853  0
O  O85  1  0.74959529  0.17636151  0.50262338  1  -1.113904  0  -0.305282  -0.510017  0  2.239588  0
O  O86  1  0.62150015  0.97465626  0.44420021  1  -1.193769  0  -0.310502  -0.609468  0  2.499785  0
O  O87  1  0.34609032  0.00990518  0.44273980  1  -1.108336  0  -0.292344  -0.493028  0  2.220593  0
O  O88  1  0.15391589  0.82495589  0.99647818  1  -1.107856  0  -0.305824  -0.510038  0  2.251993  0
O  O89  1  0.43627679  0.81673425  0.99869318  1  -1.14171  0  -0.303089  -0.555291  0  2.305633  0
O  O90  1  0.56390875  0.99389259  0.94311915  1  -1.107344  0  -0.29595  -0.501877  0  2.231261  0
O  O91  1  0.28728467  0.01345093  0.94492855  1  -1.192329  0  -0.311901  -0.623615  0  2.52646  0
O  O92  1  0.43363123  0.18023022  0.00250859  1  -1.150547  0  -0.300892  -0.551865  0  2.28984  0
O  O93  1  0.15263263  0.17702088  0.99760818  1  -1.106626  0  -0.304527  -0.508688  0  2.242182  0
O  O94  1  0.28375234  0.97010818  0.05582832  1  -1.18923  0  -0.311245  -0.610123  0  2.503689  0
O  O95  1  0.55856228  0.00323446  0.05711943  1  -1.101936  0  -0.292165  -0.491501  0  2.215932  0
O  O96  1  0.02185392  0.06929963  0.90565522  1  -1.227071  0  -0.373167  -0.530468  0  2.153116  0
O  O97  1  0.93927168  0.94925085  0.85019322  1  -1.292325  0  -0.302695  -0.516572  0  2.165325  0
O  O98  1  0.06588212  0.84178732  0.90743176  1  -1.286741  0  -0.322037  -0.533343  0  2.152191  0
O  O99  1  0.87760381  0.06942757  0.59428570  1  -1.21788  0  -0.372981  -0.530032  0  2.154841  0
O  O100  1  0.96223079  0.94794008  0.65001719  1  -1.293217  0  -0.303299  -0.516381  0  2.162935  0
O  O101  1  0.83881046  0.84199953  0.59293060  1  -1.284461  0  -0.321885  -0.532903  0  2.153263  0
O  O102  1  0.02936988  0.89542159  0.09711734  1  -1.204708  0  -0.367864  -0.527925  0  2.152575  0
O  O103  1  0.93546718  0.02765881  0.14853329  1  -1.28814  0  -0.299446  -0.512951  0  2.177606  0
O  O104  1  0.04350155  0.12299735  0.08790053  1  -1.275263  0  -0.317716  -0.533408  0  2.160328  0
O  O105  1  0.87958145  0.90403763  0.40335504  1  -1.20179  0  -0.368841  -0.528404  0  2.148907  0
O  O106  1  0.96790525  0.03680402  0.35127385  1  -1.289579  0  -0.300158  -0.513917  0  2.174921  0
O  O107  1  0.85439192  0.13152385  0.41131422  1  -1.263938  0  -0.316961  -0.532593  0  2.164954  0
F  F108  1  0.74297539  0.38245247  0.44560144  1  -0.606206  0  -0.075372  -0.085415  0  1.377198  0
F  F109  1  0.74375961  0.62622375  0.44669086  1  -0.614952  0  -0.084102  -0.10162  0  1.354814  0
F  F110  1  0.48745871  0.24789537  0.57505693  1  -0.642625  0  -0.075876  -0.08525  0  1.475145  0
F  F111  1  0.34860219  0.37000444  0.63417551  1  -0.605204  0  -0.079426  -0.082296  0  1.362079  0
F  F112  1  0.34826227  0.62116093  0.63523569  1  -0.601277  0  -0.076466  -0.077653  0  1.363344  0
F  F113  1  0.48537931  0.74851565  0.57700413  1  -0.625615  0  -0.068944  -0.07637  0  1.486635  0
F  F114  1  0.16032004  0.38061945  0.05457668  1  -0.608159  0  -0.07513  -0.086006  0  1.374539  0
F  F115  1  0.16022177  0.62454118  0.05356001  1  -0.613855  0  -0.084036  -0.101282  0  1.3557  0
F  F116  1  0.41126119  0.24762513  0.92475410  1  -0.642257  0  -0.075984  -0.085205  0  1.473699  0
F  F117  1  0.54985716  0.36978175  0.86546902  1  -0.603471  0  -0.079185  -0.08203  0  1.363116  0
F  F118  1  0.55254897  0.62096541  0.86459521  1  -0.601047  0  -0.076059  -0.077684  0  1.363516  0
F  F119  1  0.41831816  0.74815682  0.92310210  1  -0.654336  0  -0.068671  -0.076466  0  1.4897  0
