# generated using pymatgen
data_Cu7H30C24N6(Cl4O3)2
_symmetry_space_group_name_H-M   'P 1'
_cell_length_a   8.01003533
_cell_length_b   11.16370778
_cell_length_c   11.63964505
_cell_angle_alpha   66.52434421
_cell_angle_beta   83.85073717
_cell_angle_gamma   86.54371127
_symmetry_Int_Tables_number   1
_chemical_formula_structural   Cu7H30C24N6(Cl4O3)2
_chemical_formula_sum   'Cu7 H30 C24 N6 Cl8 O6'
_cell_volume   949.01595265
_cell_formula_units_Z   1
loop_
 _symmetry_equiv_pos_site_id
 _symmetry_equiv_pos_as_xyz
  1  'x, y, z'
loop_
 _atom_site_type_symbol
 _atom_site_label
 _atom_site_symmetry_multiplicity
 _atom_site_fract_x
 _atom_site_fract_y
 _atom_site_fract_z
 _atom_site_occupancy
 _atom_site_hle17_ddec_charge
 _atom_site_hle17_ddec_spin_density
 _atom_site_hle17_ddec_sum_bond_order
 _atom_site_hle17_magmom
 _atom_site_hse06_10hf_ddec_charge
 _atom_site_hse06_10hf_ddec_spin_density
 _atom_site_hse06_10hf_ddec_sum_bond_order
 _atom_site_hse06_10hf_magmom
 _atom_site_hse06_ddec_charge
 _atom_site_hse06_ddec_spin_density
 _atom_site_hse06_ddec_sum_bond_order
 _atom_site_hse06_magmom
 _atom_site_pbe_cm5_charge
 _atom_site_pbe_ddec_charge
 _atom_site_pbe_ddec_spin_density
 _atom_site_pbe_ddec_sum_bond_order
 _atom_site_pbe_magmom
Cu  Cu0  1  0.69666616  0.60690882  0.54797696  1  0.517419  0.003373  2.052608  0.003  0.488247  0.001744  2.496492  0.002  0.49212  0.000404  2.456338  0.0  0.407217  0.48529  0.004027  2.524613  0.003
Cu  Cu1  1  0.30333240  0.39309255  0.45202210  1  0.517394  0.003376  2.052565  0.003  0.488204  0.001743  2.496452  0.002  0.492102  0.000403  2.456304  0.0  0.407224  0.485263  0.004027  2.524573  0.003
Cu  Cu2  1  0.90165159  0.39559719  0.35529515  1  0.503995  0.000611  2.039117  0.001  0.477349  0.000196  2.478477  0.0  0.481067  7.3e-05  2.438363  0.0  0.405362  0.474673  0.000742  2.505945  0.001
Cu  Cu3  1  0.09834575  0.60440320  0.64470352  1  0.50394  0.000612  2.039108  0.001  0.477273  0.000196  2.478492  0.0  0.481014  7.4e-05  2.438376  0.0  0.405322  0.474604  0.000743  2.505963  0.001
Cu  Cu4  1  0.04656358  0.32846387  0.68099448  1  0.505222  0.147225  1.997932  0.121  0.400094  0.094954  2.516764  0.08  0.386837  0.033195  2.47119  0.028  0.29225  0.407936  0.131846  2.547455  0.111
Cu  Cu5  1  0.95344141  0.67153166  0.31900808  1  0.505443  0.147308  1.997756  0.121  0.400147  0.094925  2.516615  0.08  0.386931  0.033186  2.471029  0.028  0.292275  0.407988  0.131793  2.547322  0.111
Cu  Cu6  1  0.00000191  0.99999926  0.00000096  1  0.781913  0.445923  1.760856  0.351  0.739539  0.577384  2.194578  0.465  0.864715  0.7283  2.097763  0.599  0.597555  0.680184  0.494738  2.25139  0.398
H  H7  1  0.65084481  0.88144373  0.31786264  1  0.08321  -1.4e-05  0.93925  0.0  0.085036  -2.7e-05  1.016913  0.0  0.087315  -5.4e-05  1.01326  0.0  0.104348  0.083244  2.5e-05  1.01977  0.0
H  H8  1  0.34915381  0.11855569  0.68213631  1  0.083169  -6e-06  0.939176  0.0  0.084991  -2.7e-05  1.016869  0.0  0.087269  -5.4e-05  1.013214  0.0  0.104337  0.083199  2.4e-05  1.019721  0.0
H  H9  1  0.68393084  0.92571579  0.44673801  1  0.087874  3.2e-05  0.915863  0.0  0.09923  4.4e-05  0.978577  0.0  0.10028  3e-05  0.977743  0.0  0.109942  0.098412  2.8e-05  0.979282  0.0
H  H10  1  0.31607140  0.07428852  0.55326052  1  0.087761  3.3e-05  0.915992  0.0  0.099198  4.4e-05  0.978622  0.0  0.100248  3e-05  0.977789  0.0  0.109922  0.09838  2.8e-05  0.979327  0.0
H  H11  1  0.42604461  0.71870628  0.46937374  1  0.105516  -5e-06  0.953443  0.0  0.110979  5.5e-05  1.023482  0.0  0.113639  2.8e-05  1.022479  0.0  0.091735  0.108857  6.9e-05  1.024703  0.0
H  H12  1  0.57395389  0.28129704  0.53062458  1  0.105518  0.0  0.953423  0.0  0.110969  5.5e-05  1.023491  0.0  0.113632  2.7e-05  1.022491  0.0  0.091748  0.10885  6.9e-05  1.024709  0.0
H  H13  1  0.62869282  0.76655846  0.66063428  1  0.14404  2.6e-05  0.964136  0.0  0.151761  3.1e-05  1.03342  0.0  0.153855  2.6e-05  1.032582  0.0  0.096438  0.150164  2.8e-05  1.034133  0.0
H  H14  1  0.37131075  0.23344293  0.33936785  1  0.144023  2.3e-05  0.964173  0.0  0.151763  3.1e-05  1.033417  0.0  0.153855  2.6e-05  1.032581  0.0  0.096421  0.150166  2.8e-05  1.034128  0.0
H  H15  1  0.47217953  0.63672827  0.69658653  1  0.128413  2.1e-05  0.975968  0.0  0.137082  1.5e-05  1.045038  0.0  0.139442  1e-06  1.044137  0.0  0.088424  0.135284  2.3e-05  1.045897  0.0
H  H16  1  0.52782150  0.36327409  0.30341369  1  0.128391  2e-05  0.975989  0.0  0.137069  1.5e-05  1.04505  0.0  0.139429  2e-06  1.044149  0.0  0.088415  0.135269  2.3e-05  1.045908  0.0
H  H17  1  0.94637548  0.11257178  0.37820823  1  0.08449  6.9e-05  0.934638  0.0  0.091518  6.2e-05  1.003634  0.0  0.093546  2.4e-05  1.001432  0.0  0.10456  0.090194  7.6e-05  1.00507  0.0
H  H18  1  0.05362696  0.88742570  0.62179292  1  0.084529  6e-05  0.934633  0.0  0.091532  6.2e-05  1.003641  0.0  0.093561  2.5e-05  1.001438  0.0  0.104552  0.090208  7.6e-05  1.005077  0.0
H  H19  1  0.76757640  0.17501779  0.28889825  1  0.085107  2.2e-05  0.904829  0.0  0.102751  2.8e-05  0.958315  0.0  0.103005  2.4e-05  0.958088  0.0  0.11399  0.102507  1.6e-05  0.958508  0.0
H  H20  1  0.23242478  0.82497968  0.71110384  1  0.08513  2e-05  0.904807  0.0  0.102763  2.8e-05  0.958289  0.0  0.103019  2.4e-05  0.958061  0.0  0.113999  0.102517  1.6e-05  0.958485  0.0
H  H21  1  0.11113984  0.31298100  0.22734065  1  0.103214  1.2e-05  0.956151  0.0  0.113733  -3e-06  1.019284  0.0  0.115126  -6e-06  1.019938  0.0  0.100234  0.112708  8e-06  1.018994  0.0
H  H22  1  0.88885996  0.68702038  0.77266090  1  0.103198  7e-06  0.956126  0.0  0.113714  -3e-06  1.019263  0.0  0.11511  -6e-06  1.01992  0.0  0.100232  0.112688  8e-06  1.018972  0.0
H  H23  1  0.74890264  0.41383143  0.16011859  1  0.129886  -2e-06  0.964038  0.0  0.145342  -7e-06  1.023191  0.0  0.146951  -6e-06  1.023304  0.0  0.095884  0.144154  -7e-06  1.023063  0.0
H  H24  1  0.25109615  0.58616212  0.83988175  1  0.129936  -3e-06  0.964052  0.0  0.145408  -7e-06  1.023181  0.0  0.147017  -6e-06  1.023293  0.0  0.095925  0.144216  -7e-06  1.023056  0.0
H  H25  1  0.94029190  0.51330729  0.11816038  1  0.150215  0.000147  0.950083  0.0  0.161431  0.000212  1.008311  0.0  0.164111  0.000201  1.007135  0.0  0.095269  0.159399  0.000239  1.009431  0.0
H  H26  1  0.05970547  0.48669213  0.88183866  1  0.150279  0.000145  0.950068  0.0  0.161492  0.000212  1.00828  0.0  0.164173  0.000201  1.007104  0.0  0.095302  0.159459  0.000239  1.009401  0.0
H  H27  1  0.45868518  0.70355715  0.19063191  1  0.080716  1.6e-05  0.93564  0.0  0.093535  2.7e-05  0.999474  0.0  0.094659  2.4e-05  0.998926  0.0  0.099541  0.092632  1.6e-05  1.00016  0.0
H  H28  1  0.54131711  0.29644521  0.80936908  1  0.080716  1.7e-05  0.935711  0.0  0.093569  2.7e-05  0.999494  0.0  0.094675  2.3e-05  0.998967  0.0  0.099544  0.092666  1.6e-05  1.000179  0.0
H  H29  1  0.58332225  0.82495883  0.06972527  1  0.076378  -9.8e-05  0.950675  0.0  0.088273  2e-06  1.0134  0.0  0.08796  -1.1e-05  1.01347  0.0  0.095679  0.088615  -4e-06  1.013102  0.0
H  H30  1  0.41667753  0.17504449  0.93026953  1  0.076455  -0.0001  0.950633  0.0  0.08836  2e-06  1.013345  0.0  0.088051  -1.1e-05  1.013414  0.0  0.095695  0.088702  -5e-06  1.013048  0.0
H  H31  1  0.34149322  0.65497778  0.00972260  1  0.087307  -2.2e-05  0.946705  0.0  0.101783  -1.6e-05  1.002075  0.0  0.10409  -1.7e-05  1.002186  0.0  0.097947  0.099982  -1.9e-05  1.002378  0.0
H  H32  1  0.65850154  0.34502457  0.99027893  1  0.08734  -2.4e-05  0.946731  0.0  0.101781  -1.6e-05  1.002118  0.0  0.104086  -1.6e-05  1.002234  0.0  0.097983  0.099975  -1.9e-05  1.002428  0.0
H  H33  1  0.72456674  0.69812691  0.95526355  1  0.124361  -1.5e-05  0.977732  0.0  0.137155  7.9e-05  1.037339  0.0  0.139339  6.3e-05  1.037783  0.0  0.086917  0.135574  7.4e-05  1.037196  0.0
H  H34  1  0.27542444  0.30186955  0.04473449  1  0.124355  -1e-05  0.977729  0.0  0.137201  7.9e-05  1.037263  0.0  0.139384  6.2e-05  1.037707  0.0  0.086928  0.135619  7.3e-05  1.037123  0.0
H  H35  1  0.59825425  0.59916324  0.90084953  1  0.119611  1e-05  0.979851  0.0  0.134803  1e-05  1.038778  0.0  0.137604  4e-06  1.038895  0.0  0.09103  0.132783  1.2e-05  1.038793  0.0
H  H36  1  0.40173564  0.40083420  0.09914995  1  0.119634  9e-06  0.979838  0.0  0.134777  1e-05  1.038837  0.0  0.137576  4e-06  1.038957  0.0  0.09106  0.132771  1.2e-05  1.038812  0.0
C  C37  1  0.35209754  0.98012727  0.29706392  1  0.672443  -0.002026  3.807189  -0.001  0.62273  -0.000774  4.094111  -0.001  0.657066  -0.001124  4.088397  -0.001  0.350232  0.599697  -0.000427  4.09727  0.0
C  C38  1  0.64790487  0.01987118  0.70293599  1  0.672354  -0.001997  3.807228  -0.001  0.622681  -0.000775  4.094105  -0.001  0.657021  -0.001124  4.088393  -0.001  0.35026  0.599647  -0.000427  4.097265  0.0
C  C39  1  0.10909992  0.04922918  0.20995081  1  0.671652  -0.002357  3.804101  -0.002  0.61822  -0.00045  4.09377  0.0  0.653866  -0.001141  4.091427  -0.001  0.345991  0.595122  3e-05  4.094553  0.0
C  C40  1  0.89090361  0.95077416  0.79004629  1  0.671735  -0.002356  3.803838  -0.002  0.618251  -0.000451  4.093575  0.0  0.6539  -0.001141  4.091222  -0.001  0.345989  0.595153  3e-05  4.094355  0.0
C  C41  1  0.28964648  0.91780681  0.14568443  1  0.680872  -0.002882  3.803332  -0.002  0.622878  -0.00099  4.099049  -0.001  0.659875  -0.001651  4.09382  -0.001  0.350763  0.598736  -0.000431  4.102222  0.0
C  C42  1  0.71035333  0.08219457  0.85431626  1  0.680969  -0.002892  3.803062  -0.002  0.622985  -0.00099  4.098774  -0.001  0.659983  -0.001651  4.093538  -0.001  0.350806  0.598838  -0.000431  4.10195  0.0
C  C43  1  0.59530622  0.88610808  0.40628853  1  0.09218  2.1e-05  3.569482  0.0  0.028211  0.000108  3.840126  0.0  0.038173  7.8e-05  3.841429  0.0  -0.068351  0.021472  0.000174  3.839355  0.0
C  C44  1  0.40469363  0.11389231  0.59370996  1  0.092414  4e-06  3.56929  0.0  0.02837  0.000107  3.839958  0.0  0.038346  7.7e-05  3.841244  0.0  -0.068306  0.021627  0.000174  3.839191  0.0
C  C45  1  0.52658761  0.75841443  0.49973419  1  -0.107318  0.001401  3.753254  0.001  -0.129933  0.000601  4.055711  0.001  -0.129001  0.000202  4.066034  0.0  -0.166348  -0.130426  0.000708  4.048501  0.001
C  C46  1  0.47341474  0.24158598  0.50026669  1  -0.10733  0.001385  3.753215  0.001  -0.129951  0.000601  4.055703  0.001  -0.129022  0.000202  4.066019  0.0  -0.166366  -0.130444  0.000707  4.048491  0.001
C  C47  1  0.55162755  0.71254923  0.62644805  1  -0.30488  -0.000623  3.675635  0.0  -0.359902  0.0  3.97136  0.0  -0.358672  -8e-06  3.977327  0.0  -0.243252  -0.360287  -6.6e-05  3.967103  0.0
C  C48  1  0.44837986  0.28744925  0.37355578  1  -0.304875  -0.000598  3.67564  0.0  -0.359889  0.0  3.971355  0.0  -0.358665  -7e-06  3.977336  0.0  -0.243257  -0.360311  -6.6e-05  3.967177  0.0
C  C49  1  0.90496727  0.17315333  0.28533334  1  0.093078  -3.7e-05  3.583473  0.0  0.0319  8e-06  3.850229  0.0  0.042588  -3.8e-05  3.850885  0.0  -0.066797  0.024716  1.6e-05  3.849623  0.0
C  C50  1  0.09503517  0.82684414  0.71466609  1  0.092974  -2e-05  3.583617  0.0  0.031852  8e-06  3.850315  0.0  0.042538  -3.8e-05  3.850976  0.0  -0.066803  0.024668  1.5e-05  3.849714  0.0
C  C51  1  0.97450810  0.30795919  0.23409976  1  -0.099049  -4.8e-05  3.767764  0.0  -0.119504  -0.000132  4.062314  0.0  -0.11905  -0.000113  4.074512  0.0  -0.16223  -0.119828  9.6e-05  4.054231  0.0
C  C52  1  0.02549171  0.69204219  0.76590093  1  -0.098953  -2.1e-05  3.767805  0.0  -0.119407  -0.000132  4.062314  0.0  -0.118963  -0.000115  4.074529  0.0  -0.162191  -0.119738  9.6e-05  4.054242  0.0
C  C53  1  0.88063658  0.41976831  0.17323793  1  -0.293416  -9.4e-05  3.643405  0.0  -0.345596  8e-05  3.918908  0.0  -0.344153  8.4e-05  3.925615  0.0  -0.23037  -0.3458  0.00012  3.914122  0.0
C  C54  1  0.11935574  0.58023111  0.82676663  1  -0.293542  -0.000104  3.643426  0.0  -0.345737  8e-05  3.918913  0.0  -0.344298  8.4e-05  3.925626  0.0  -0.230444  -0.345939  0.00012  3.914132  0.0
C  C55  1  0.46874885  0.76840532  0.09020472  1  0.093478  -0.000174  3.59342  0.0  0.034226  1.1e-05  3.848379  0.0  0.044274  -1.6e-05  3.851511  0.0  -0.067758  0.027684  3.4e-05  3.845786  0.0
C  C56  1  0.53125348  0.23159606  0.90979321  1  0.09329  -0.000169  3.593611  0.0  0.034002  1e-05  3.848539  0.0  0.044057  -1.6e-05  3.851678  0.0  -0.067787  0.027452  3.5e-05  3.845952  0.0
C  C57  1  0.46415871  0.69238859  0.01072158  1  -0.030831  0.000233  3.757806  0.0  -0.04108  0.000196  4.01178  0.0  -0.043442  0.000165  4.033296  0.0  -0.099622  -0.03947  0.000179  3.99715  0.0
C  C58  1  0.53583722  0.30761764  0.98927064  1  -0.030812  0.000227  3.757904  0.0  -0.041008  0.000198  4.01184  0.0  -0.043367  0.000162  4.033351  0.0  -0.099682  -0.039394  0.000178  3.997206  0.0
C  C59  1  0.60214578  0.66260711  0.95145314  1  -0.278712  -0.000172  3.643827  0.0  -0.316078  -5e-06  3.875828  0.0  -0.321982  -2.1e-05  3.894929  0.0  -0.186772  -0.311861  3.4e-05  3.862807  0.0
C  C60  1  0.39784928  0.33738449  0.04855165  1  -0.278694  -0.000173  3.643855  0.0  -0.316099  -8e-06  3.875844  0.0  -0.322001  -1.6e-05  3.894944  0.0  -0.18677  -0.311876  3.3e-05  3.862824  0.0
N  N61  1  0.21085072  0.05288741  0.29151760  1  -0.587316  0.003661  2.964962  0.005  -0.552029  0.003039  3.238161  0.004  -0.572405  0.002914  3.237532  0.004  -0.339617  -0.538307  0.002938  3.23789  0.003
N  N62  1  0.78915287  0.94711397  0.70848024  1  -0.587263  0.003651  2.964962  0.005  -0.551975  0.003041  3.238149  0.004  -0.572356  0.002914  3.237529  0.004  -0.339603  -0.538258  0.002938  3.237883  0.003
N  N63  1  0.14405001  0.98733370  0.13108957  1  -0.608492  0.036021  3.283852  0.049  -0.558188  0.034315  3.596112  0.046  -0.600749  0.035584  3.603251  0.051  -0.387141  -0.535244  0.030975  3.594399  0.041
N  N64  1  0.85595355  0.01266866  0.86890875  1  -0.608513  0.036028  3.28366  0.049  -0.558198  0.034315  3.595935  0.046  -0.600758  0.035583  3.603069  0.051  -0.387113  -0.53525  0.030974  3.594218  0.041
N  N65  1  0.39614523  0.90918504  0.22886133  1  -0.580615  0.003679  2.986875  0.005  -0.539145  0.003019  3.252103  0.004  -0.561074  0.002808  3.2525  0.004  -0.336655  -0.524575  0.002881  3.251421  0.004
N  N66  1  0.60385207  0.09081633  0.77113783  1  -0.580645  0.003678  2.986874  0.005  -0.539188  0.003019  3.252077  0.004  -0.561116  0.002808  3.252471  0.004  -0.336682  -0.524617  0.002881  3.251393  0.004
Cl  Cl67  1  0.81477880  0.45602765  0.71106630  1  -0.522428  0.004766  1.430666  0.007  -0.464459  0.002124  1.80889  0.003  -0.478927  0.000692  1.77439  0.001  -0.283576  -0.453907  0.003598  1.832799  0.005
Cl  Cl68  1  0.18522613  0.54397079  0.28893085  1  -0.52245  0.004771  1.430694  0.007  -0.464463  0.002123  1.80891  0.003  -0.478944  0.000692  1.774417  0.001  -0.283579  -0.45391  0.003598  1.832825  0.005
Cl  Cl69  1  0.70488516  0.53865354  0.38687906  1  -0.475286  0.007248  1.56964  0.01  -0.414054  0.006135  1.971372  0.008  -0.425852  0.003687  1.930063  0.005  -0.253273  -0.405778  0.008359  2.000149  0.01
Cl  Cl70  1  0.29511093  0.46134588  0.61312265  1  -0.475213  0.007245  1.569618  0.01  -0.41397  0.006137  1.971336  0.008  -0.425777  0.003688  1.930038  0.005  -0.253264  -0.405706  0.008362  2.000118  0.01
Cl  Cl71  1  0.98718853  0.24770087  0.53944926  1  -0.518956  0.003928  1.386887  0.005  -0.463188  0.001515  1.768781  0.002  -0.48028  -3e-06  1.737659  0.0  -0.293499  -0.451176  0.002928  1.790274  0.003
Cl  Cl72  1  0.01281373  0.75230247  0.46055050  1  -0.518997  0.003929  1.386882  0.005  -0.463206  0.001514  1.768761  0.002  -0.480308  -4e-06  1.737645  0.0  -0.293501  -0.451197  0.002927  1.790268  0.003
Cl  Cl73  1  0.10506661  0.21026020  0.87932088  1  -0.507914  0.075687  1.270455  0.104  -0.462846  0.067249  1.633536  0.095  -0.484061  0.062527  1.597267  0.094  -0.293822  -0.455471  0.06476  1.659778  0.088
Cl  Cl74  1  0.89493070  0.78974116  0.12067742  1  -0.507917  0.075699  1.270379  0.104  -0.462852  0.067246  1.633439  0.095  -0.48407  0.062526  1.597173  0.094  -0.293819  -0.455473  0.064756  1.659686  0.088
O  O75  1  0.45467163  0.98206594  0.37921192  1  -0.296979  -0.000512  2.220672  0.0  -0.21659  -0.000428  2.444905  0.0  -0.237743  -0.000596  2.443563  -0.001  -0.14545  -0.201974  -0.000246  2.445353  0.0
O  O76  1  0.54532688  0.01793739  0.62078639  1  -0.29704  -0.000519  2.220537  0.0  -0.21664  -0.000428  2.44477  0.0  -0.23781  -0.000596  2.443433  -0.001  -0.14549  -0.202023  -0.000246  2.445221  0.0
O  O77  1  0.95847973  0.10773303  0.19977547  1  -0.296297  -0.001037  2.234057  0.0  -0.229208  -0.000796  2.471711  0.0  -0.252579  -0.001024  2.469615  0.0  -0.14949  -0.214304  -0.000551  2.473604  0.0
O  O78  1  0.04152393  0.89226543  0.80022436  1  -0.296312  -0.001043  2.233903  0.0  -0.229219  -0.000796  2.471571  0.0  -0.252597  -0.001024  2.469489  0.0  -0.149481  -0.214317  -0.000551  2.473466  0.0
O  O79  1  0.32193471  0.85716638  0.06831807  1  -0.303231  -0.001113  2.264765  0.0  -0.23626  -0.000905  2.508025  0.0  -0.259211  -0.001154  2.504827  0.0  -0.148508  -0.221523  -0.000646  2.510596  0.0
O  O80  1  0.67807006  0.14283696  0.93168236  1  -0.303265  -0.001114  2.264769  0.0  -0.236298  -0.000906  2.508037  0.0  -0.259246  -0.001154  2.50483  0.0  -0.148576  -0.221559  -0.000646  2.51061  0.0
