# generated using pymatgen
data_ZnPH17C21(NO2)2
_symmetry_space_group_name_H-M   'P 1'
_cell_length_a   11.33405743
_cell_length_b   12.78047640
_cell_length_c   19.10977225
_cell_angle_alpha   101.88643244
_cell_angle_beta   90.05425521
_cell_angle_gamma   116.33886828
_symmetry_Int_Tables_number   1
_chemical_formula_structural   ZnPH17C21(NO2)2
_chemical_formula_sum   'Zn4 P4 H68 C84 N8 O16'
_cell_volume   2414.08121280
_cell_formula_units_Z   4
loop_
 _symmetry_equiv_pos_site_id
 _symmetry_equiv_pos_as_xyz
  1  'x, y, z'
loop_
 _atom_site_type_symbol
 _atom_site_label
 _atom_site_symmetry_multiplicity
 _atom_site_fract_x
 _atom_site_fract_y
 _atom_site_fract_z
 _atom_site_occupancy
 _atom_site_pbe_bader_charge
 _atom_site_pbe_bader_spin_density
 _atom_site_pbe_cm5_charge
 _atom_site_pbe_ddec_charge
 _atom_site_pbe_ddec_spin_density
 _atom_site_pbe_ddec_sum_bond_order
 _atom_site_pbe_magmom
Zn  Zn0  1  0.04733949  0.85480184  0.14282071  1  1.309999  0  0.686991  0.859329  0  2.325542  0
Zn  Zn1  1  0.19256825  0.14511332  0.35734162  1  1.308672  0  0.686647  0.85906  0  2.326086  0
Zn  Zn2  1  0.95266439  0.14519867  0.85717997  1  1.309941  0  0.686985  0.859364  0  2.325588  0
Zn  Zn3  1  0.80742772  0.85489257  0.64265929  1  1.308739  0  0.686655  0.85907  0  2.326178  0
P  P4  1  0.02083016  0.85590493  0.30491621  1  3.081987  0  0.281615  1.067207  0  5.164247  0
P  P5  1  0.16472173  0.14397100  0.19526510  1  3.064591  0  0.281963  1.06903  0  5.162725  0
P  P6  1  0.97917110  0.14409916  0.69508497  1  3.081652  0  0.281713  1.067285  0  5.164036  0
P  P7  1  0.83527549  0.85602680  0.80473730  1  3.064748  0  0.281921  1.069208  0  5.163028  0
H  H8  1  0.97351932  0.76223363  0.43895749  1  0.019758  0  0.093  0.100316  0  0.989574  0
H  H9  1  0.21125392  0.23774637  0.06127302  1  0.028226  0  0.092986  0.100055  0  0.990123  0
H  H10  1  0.02648910  0.23778302  0.56104701  1  0.019502  0  0.093059  0.10033  0  0.989414  0
H  H11  1  0.78875122  0.76224785  0.93872784  1  0.028055  0  0.093017  0.100116  0  0.990048  0
H  H12  1  0.06125940  0.91866029  0.46115814  1  0.092756  0  0.104983  0.129049  0  0.981377  0
H  H13  1  0.14234764  0.08131940  0.03900924  1  0.091033  0  0.104632  0.128229  0  0.982305  0
H  H14  1  0.93874110  0.08135815  0.53884504  1  0.092641  0  0.104964  0.128984  0  0.981354  0
H  H15  1  0.85765929  0.91867842  0.96099160  1  0.090618  0  0.104564  0.128152  0  0.982423  0
H  H16  1  0.89385190  0.93048980  0.37803274  1  0.115752  0  0.111061  0.158801  0  0.976925  0
H  H17  1  0.96312087  0.06934724  0.12191521  1  0.118035  0  0.111028  0.15839  0  0.977037  0
H  H18  1  0.10614852  0.06951969  0.62196606  1  0.115821  0  0.111086  0.158857  0  0.976966  0
H  H19  1  0.03687722  0.93064701  0.87808042  1  0.11813  0  0.111092  0.158486  0  0.976974  0
H  H20  1  0.81025784  0.77161806  0.35204447  1  0.039753  0  0.096711  0.124578  0  1.006651  0
H  H21  1  0.03845778  0.22819898  0.14796916  1  0.037787  0  0.09647  0.123956  0  1.006747  0
H  H22  1  0.18974211  0.22838871  0.64795918  1  0.039834  0  0.096731  0.124572  0  1.006572  0
H  H23  1  0.96153988  0.77179616  0.85202711  1  0.037901  0  0.096522  0.12406  0  1.006741  0
H  H24  1  0.84469895  0.59974666  0.26141964  1  0.072423  0  0.098334  0.089738  0  1.03742  0
H  H25  1  0.24450228  0.39991820  0.23859136  1  0.048638  0  0.098499  0.089922  0  1.036932  0
H  H26  1  0.15530586  0.40026101  0.73858414  1  0.072519  0  0.098368  0.089719  0  1.037261  0
H  H27  1  0.75549452  0.60008052  0.76140698  1  0.048679  0  0.098487  0.089872  0  1.036912  0
H  H28  1  0.87776748  0.41817793  0.25128175  1  0.03906  0  0.09794  0.091764  0  1.010441  0
H  H29  1  0.45905775  0.58174352  0.24868518  1  0.039898  0  0.097895  0.092139  0  1.010208  0
H  H30  1  0.12223557  0.58182976  0.74871732  1  0.038958  0  0.097918  0.091755  0  1.010509  0
H  H31  1  0.54094124  0.41825250  0.75131488  1  0.039837  0  0.097883  0.09215  0  1.010202  0
H  H32  1  0.10049290  0.43864725  0.28374950  1  0.063886  0  0.098562  0.094427  0  1.025402  0
H  H33  1  0.66150764  0.56164865  0.21647234  1  0.06193  0  0.098675  0.094517  0  1.025756  0
H  H34  1  0.89951147  0.56135778  0.71624449  1  0.064036  0  0.098577  0.09444  0  1.025394  0
H  H35  1  0.33849086  0.43834287  0.78352971  1  0.062327  0  0.098725  0.094622  0  1.025801  0
H  H36  1  0.29136740  0.64229098  0.32459019  1  0.067607  0  0.09508  0.089671  0  1.025712  0
H  H37  1  0.64903308  0.35817997  0.17592247  1  0.04865  0  0.095155  0.0894  0  1.026837  0
H  H38  1  0.70864006  0.35771496  0.67540131  1  0.068086  0  0.095114  0.0897  0  1.02563  0
H  H39  1  0.35096054  0.64180885  0.82408181  1  0.048418  0  0.095084  0.089366  0  1.026842  0
H  H40  1  0.25604183  0.82438485  0.33714293  1  0.091467  0  0.102505  0.102748  0  1.010476  0
H  H41  1  0.43171566  0.17584970  0.16340631  1  0.091826  0  0.102606  0.102953  0  1.010404  0
H  H42  1  0.74396607  0.17562197  0.66285183  1  0.091302  0  0.102536  0.102811  0  1.010452  0
H  H43  1  0.56827446  0.82414270  0.83659848  1  0.091952  0  0.102615  0.103003  0  1.010442  0
H  H44  1  0.75783335  0.61495190  0.08546769  1  0.093895  0  0.121741  0.091089  0  0.966938  0
H  H45  1  0.14288034  0.38484875  0.41477129  1  0.091757  0  0.121607  0.091227  0  0.966526  0
H  H46  1  0.24217011  0.38505307  0.91453832  1  0.093981  0  0.12175  0.09111  0  0.966945  0
H  H47  1  0.85712450  0.61516075  0.58522437  1  0.091791  0  0.121567  0.091161  0  0.966563  0
H  H48  1  0.67522404  0.39151932  0.04803629  1  0.081133  0  0.109044  0.113374  0  0.989997  0
H  H49  1  0.28374377  0.60831559  0.45232384  1  0.082895  0  0.109122  0.113887  0  0.989114  0
H  H50  1  0.32477679  0.60848745  0.95196736  1  0.081305  0  0.109055  0.113376  0  0.989958  0
H  H51  1  0.71626724  0.39169213  0.54766948  1  0.083011  0  0.109103  0.113887  0  0.98911  0
H  H52  1  0.83996678  0.30771189  0.04940676  1  0.132403  0  0.117928  0.139069  0  0.980498  0
H  H53  1  0.53239326  0.69236310  0.45091447  1  0.138236  0  0.117672  0.138263  0  0.980601  0
H  H54  1  0.16002917  0.69229042  0.95059155  1  0.132361  0  0.117938  0.139076  0  0.980485  0
H  H55  1  0.46761726  0.30764012  0.54908136  1  0.138289  0  0.117671  0.138218  0  0.980677  0
H  H56  1  0.48567679  0.71231122  0.15011730  1  0.08984  0  0.114774  0.115593  0  0.975582  0
H  H57  1  0.77362847  0.28842053  0.34997426  1  0.062521  0  0.114677  0.115681  0  0.975011  0
H  H58  1  0.51431730  0.28768207  0.84989127  1  0.089988  0  0.1148  0.115621  0  0.975595  0
H  H59  1  0.22636117  0.71156565  0.65001866  1  0.062421  0  0.114632  0.115681  0  0.974903  0
H  H60  1  0.53839730  0.92982249  0.18251147  1  0.089167  0  0.114482  0.119237  0  0.985013  0
H  H61  1  0.60891071  0.07082239  0.31749663  1  0.093221  0  0.114066  0.118593  0  0.986296  0
H  H62  1  0.46159899  0.07016988  0.81750116  1  0.089145  0  0.114498  0.119281  0  0.985029  0
H  H63  1  0.39107586  0.92916646  0.68250085  1  0.093279  0  0.114102  0.11863  0  0.986261  0
H  H64  1  0.34968218  0.98521441  0.17943034  1  0.153499  0  0.119809  0.094898  0  1.032757  0
H  H65  1  0.36468084  0.01507355  0.32065241  1  0.157673  0  0.119824  0.094728  0  1.033009  0
H  H66  1  0.65031989  0.01478248  0.82057664  1  0.153427  0  0.119778  0.09484  0  1.032688  0
H  H67  1  0.63530798  0.98492155  0.67935065  1  0.15735  0  0.119837  0.094748  0  1.032985  0
H  H68  1  0.07289023  0.34901214  0.07419646  1  0.11131  0  0.108635  0.120474  0  1.049287  0
H  H69  1  0.72390018  0.65134046  0.42592012  1  0.116979  0  0.108553  0.120125  0  1.050383  0
H  H70  1  0.92710656  0.65098482  0.92579588  1  0.111352  0  0.108643  0.120548  0  1.049169  0
H  H71  1  0.27610806  0.34865467  0.57407981  1  0.11686  0  0.1085  0.120088  0  1.05042  0
H  H72  1  0.31034616  0.49547441  0.11068779  1  0.071542  0  0.102475  0.105521  0  1.016412  0
H  H73  1  0.81500756  0.50509617  0.38933255  1  0.060472  0  0.102255  0.104718  0  1.016993  0
H  H74  1  0.68965326  0.50452075  0.88930482  1  0.071599  0  0.102494  0.10554  0  1.016413  0
H  H75  1  0.18499313  0.49489268  0.61066546  1  0.060485  0  0.102254  0.104686  0  1.01704  0
C  C76  1  0.87600567  0.84700352  0.50562978  1  1.55646  0  0.192611  0.60943  0  4.179831  0
C  C77  1  0.02884018  0.15310164  0.99446013  1  1.563699  0  0.192613  0.608736  0  4.182985  0
C  C78  1  0.12398683  0.15300775  0.49437188  1  1.556602  0  0.19263  0.609636  0  4.17965  0
C  C79  1  0.97117427  0.84689708  0.00553769  1  1.563926  0  0.192449  0.608327  0  4.18327  0
C  C80  1  0.96129655  0.84441299  0.44412837  1  -0.048956  0  -0.165654  -0.255458  0  3.946456  0
C  C81  1  0.11674434  0.15557943  0.05601675  1  -0.054269  0  -0.165104  -0.254193  0  3.947134  0
C  C82  1  0.03870656  0.15560187  0.55587484  1  -0.048078  0  -0.165693  -0.255473  0  3.946416  0
C  C83  1  0.88325994  0.84441661  0.94397860  1  -0.053747  0  -0.165088  -0.254159  0  3.947093  0
C  C84  1  0.90691110  0.84896233  0.37227900  1  -0.585207  0  -0.174069  -0.408504  0  3.953329  0
C  C85  1  0.05777154  0.15090871  0.12778636  1  -0.561217  0  -0.173643  -0.40721  0  3.952127  0
C  C86  1  0.09309152  0.15104626  0.62772020  1  -0.585107  0  -0.174103  -0.408527  0  3.953261  0
C  C87  1  0.94222524  0.84908646  0.87220364  1  -0.561372  0  -0.173739  -0.407473  0  3.952444  0
C  C88  1  0.04847366  0.72425177  0.29990475  1  -0.540082  0  -0.028605  -0.165752  0  3.967665  0
C  C89  1  0.32406433  0.27569296  0.20036869  1  -0.537269  0  -0.028322  -0.165379  0  3.965883  0
C  C90  1  0.95152894  0.27575502  0.70009628  1  -0.539902  0  -0.028543  -0.165664  0  3.967404  0
C  C91  1  0.67593158  0.72430574  0.79963436  1  -0.537172  0  -0.028292  -0.165447  0  3.965978  0
C  C92  1  0.94253349  0.60924123  0.27589752  1  -0.016365  0  -0.085951  -0.072963  0  3.995936  0
C  C93  1  0.33297423  0.39063302  0.22423864  1  -0.035675  0  -0.086462  -0.073154  0  3.995179  0
C  C94  1  0.05746958  0.39076825  0.72410442  1  -0.016548  0  -0.085938  -0.072865  0  3.995619  0
C  C95  1  0.66701991  0.60936389  0.77576259  1  -0.035735  0  -0.08648  -0.07307  0  3.994982  0
C  C96  1  0.96102997  0.50705753  0.27019062  1  -0.094431  0  -0.098365  -0.096482  0  4.034327  0
C  C97  1  0.45360495  0.49294474  0.22992202  1  -0.025703  0  -0.097469  -0.096547  0  4.035775  0
C  C98  1  0.03897263  0.49294927  0.72980885  1  -0.094393  0  -0.098466  -0.096637  0  4.034406  0
C  C99  1  0.54639049  0.50704948  0.77007883  1  -0.02583  0  -0.097425  -0.09651  0  4.035623  0
C  C100  1  0.08653958  0.51872112  0.28794600  1  -0.046064  0  -0.095371  -0.089752  0  4.02117  0
C  C101  1  0.56752518  0.48147243  0.21228609  1  -0.058304  0  -0.095868  -0.089801  0  4.023347  0
C  C102  1  0.91346348  0.48128659  0.71205046  1  -0.046598  0  -0.095312  -0.089711  0  4.020804  0
C  C103  1  0.43246846  0.51851819  0.78771635  1  -0.058346  0  -0.095942  -0.089972  0  4.023271  0
C  C104  1  0.19308184  0.63286491  0.31120495  1  -0.068185  0  -0.098619  -0.095023  0  4.02878  0
C  C105  1  0.56007818  0.36740796  0.18920585  1  -0.049534  0  -0.098713  -0.095244  0  4.031214  0
C  C106  1  0.80692295  0.36713922  0.68878996  1  -0.06827  0  -0.09869  -0.095053  0  4.028917  0
C  C107  1  0.43991457  0.63258266  0.81079816  1  -0.049698  0  -0.09864  -0.09515  0  4.0309  0
C  C108  1  0.17388702  0.73501621  0.31786895  1  -0.067676  0  -0.08523  -0.071005  0  3.986875  0
C  C109  1  0.43879837  0.26512835  0.18254715  1  -0.095875  0  -0.085738  -0.071653  0  3.987811  0
C  C110  1  0.82611649  0.26499239  0.68212815  1  -0.067489  0  -0.085293  -0.071095  0  3.987237  0
C  C111  1  0.56119484  0.73486496  0.81745671  1  -0.095921  0  -0.085761  -0.07177  0  3.988024  0
C  C112  1  0.82537453  0.57511419  0.08583532  1  0.480354  0  0.061792  0.108633  0  3.950243  0
C  C113  1  0.25027914  0.42475867  0.41440025  1  0.566235  0  0.063063  0.110299  0  3.949101  0
C  C114  1  0.17462494  0.42488809  0.91416927  1  0.480082  0  0.061786  0.108618  0  3.950213  0
C  C115  1  0.74972304  0.57524904  0.58559568  1  0.566138  0  0.062955  0.110216  0  3.949366  0
C  C116  1  0.77999461  0.45000064  0.06498915  1  0.00798  0  -0.08257  -0.133244  0  4.010315  0
C  C117  1  0.33003158  0.54990394  0.43527885  1  -0.044004  0  -0.083459  -0.135816  0  4.009937  0
C  C118  1  0.22000266  0.55000254  0.93501505  1  0.008075  0  -0.082581  -0.133229  0  4.010386  0
C  C119  1  0.66998076  0.45010467  0.56471669  1  -0.04394  0  -0.083356  -0.135726  0  4.009874  0
C  C120  1  0.86944795  0.40372901  0.06599535  1  -0.057507  0  -0.06  -0.078735  0  3.894523  0
C  C121  1  0.46579432  0.59630465  0.43426936  1  -0.101564  0  -0.059594  -0.076762  0  3.891995  0
C  C122  1  0.13054887  0.59627329  0.93400558  1  -0.057493  0  -0.060068  -0.078839  0  3.89447  0
C  C123  1  0.53421044  0.40369588  0.56572714  1  -0.101724  0  -0.059591  -0.076765  0  3.892062  0
C  C124  1  0.00459021  0.48391460  0.08780719  1  0.029458  0  0.000616  0.050584  0  4.002283  0
C  C125  1  0.52077840  0.51623862  0.41235107  1  0.032506  0  0.001114  0.051632  0  4.002314  0
C  C126  1  0.99540392  0.51608231  0.91219352  1  0.029429  0  0.000677  0.050769  0  4.00211  0
C  C127  1  0.47922548  0.48376190  0.58764647  1  0.032494  0  0.00113  0.051679  0  4.002355  0
C  C128  1  0.04052278  0.60815252  0.10719786  1  0.479399  0  0.121088  0.117791  0  3.991841  0
C  C129  1  0.43244727  0.39196575  0.39294651  1  0.511187  0  0.120782  0.116398  0  3.994148  0
C  C130  1  0.95947535  0.39184708  0.89280375  1  0.479387  0  0.121068  0.117645  0  3.992159  0
C  C131  1  0.56755173  0.60803208  0.60705118  1  0.511135  0  0.120763  0.116439  0  3.994142  0
C  C132  1  0.17725450  0.69344949  0.12855737  1  0.547451  0  0.12528  0.129804  0  3.958054  0
C  C133  1  0.48389670  0.30680383  0.37159294  1  0.486896  0  0.125472  0.130741  0  3.957814  0
C  C134  1  0.82274671  0.30654921  0.87144515  1  0.547666  0  0.125257  0.129843  0  3.958087  0
C  C135  1  0.51610095  0.69319130  0.62840490  1  0.486846  0  0.125468  0.130624  0  3.95802  0
C  C136  1  0.27471943  0.65216255  0.12924470  1  -0.051841  0  -0.001623  0.041482  0  4.02375  0
C  C137  1  0.62268519  0.34827597  0.37087507  1  -0.004847  0  -0.001759  0.040975  0  4.022715  0
C  C138  1  0.72528354  0.34783616  0.87075835  1  -0.052016  0  -0.001646  0.041471  0  4.023913  0
C  C139  1  0.37731376  0.65171648  0.62912135  1  -0.00477  0  -0.00178  0.04101  0  4.022638  0
C  C140  1  0.40748661  0.74000805  0.14935772  1  -0.033363  0  -0.061162  -0.075736  0  3.937859  0
C  C141  1  0.66767881  0.26057177  0.35073767  1  0.001798  0  -0.06162  -0.076665  0  3.937396  0
C  C142  1  0.59251504  0.25999153  0.85065068  1  -0.037806  0  -0.061184  -0.075785  0  3.937699  0
C  C143  1  0.33231350  0.73941799  0.64925785  1  0.001794  0  -0.061533  -0.076562  0  3.937016  0
C  C144  1  0.43678008  0.86009928  0.16746863  1  -0.079788  0  -0.083638  -0.13607  0  3.995731  0
C  C145  1  0.57691901  0.14043772  0.33261131  1  -0.078794  0  -0.082851  -0.134745  0  3.996552  0
C  C146  1  0.56322017  0.13989221  0.83254126  1  -0.07525  0  -0.083704  -0.136249  0  3.995613  0
C  C147  1  0.42307155  0.85955382  0.66738655  1  -0.078864  0  -0.082898  -0.134867  0  3.99646  0
C  C148  1  0.33348453  0.89242212  0.16569397  1  0.512288  0  0.062634  0.112486  0  3.918419  0
C  C149  1  0.44122513  0.10791912  0.33440329  1  0.50925  0  0.062361  0.112174  0  3.918365  0
C  C150  1  0.66652152  0.10757567  0.83431314  1  0.512189  0  0.062738  0.112717  0  3.918413  0
C  C151  1  0.55876502  0.89207689  0.66559729  1  0.509779  0  0.062364  0.112232  0  3.918458  0
C  C152  1  0.10474483  0.44511182  0.08994897  1  -0.042607  0  -0.080633  -0.112194  0  3.95473  0
C  C153  1  0.65975869  0.55521760  0.41015894  1  0.029537  0  -0.081043  -0.113489  0  3.957683  0
C  C154  1  0.89525152  0.55488602  0.91004663  1  -0.043097  0  -0.080666  -0.112342  0  3.954607  0
C  C155  1  0.34024426  0.44477753  0.58983995  1  0.030109  0  -0.080933  -0.113372  0  3.95756  0
C  C156  1  0.23468149  0.52600568  0.10956068  1  -0.01113  0  -0.08855  -0.132321  0  4.00417  0
C  C157  1  0.70880448  0.47445734  0.39051531  1  -0.069141  0  -0.08815  -0.130106  0  4.004246  0
C  C158  1  0.76531485  0.47399036  0.89043676  1  -0.01069  0  -0.088596  -0.132343  0  4.004068  0
C  C159  1  0.29119404  0.52553600  0.60948228  1  -0.06966  0  -0.088191  -0.130154  0  4.00421  0
N  N160  1  0.95173169  0.65172191  0.10618850  1  -1.211823  0  -0.302656  -0.258724  0  3.508102  0
N  N161  1  0.30004827  0.34825431  0.39397769  1  -1.221561  0  -0.303008  -0.259196  0  3.508875  0
N  N162  1  0.04826555  0.34827768  0.89381467  1  -1.211888  0  -0.302613  -0.258669  0  3.508037  0
N  N163  1  0.69995565  0.65175160  0.60602008  1  -1.221671  0  -0.302993  -0.259177  0  3.508868  0
N  N164  1  0.20770539  0.81134920  0.14681933  1  -1.222748  0  -0.305403  -0.244168  0  3.52958  0
N  N165  1  0.39644834  0.18885599  0.35337153  1  -1.251838  0  -0.305033  -0.244205  0  3.529181  0
N  N166  1  0.79229625  0.18864860  0.85318412  1  -1.222892  0  -0.305341  -0.244117  0  3.529591  0
N  N167  1  0.60354227  0.81114093  0.64662812  1  -1.251721  0  -0.30504  -0.244236  0  3.529272  0
O  O168  1  0.76042799  0.83322746  0.49435055  1  -1.191641  0  -0.344516  -0.580134  0  2.097422  0
O  O169  1  0.92713265  0.16695227  0.00569371  1  -1.191977  0  -0.344623  -0.579805  0  2.097039  0
O  O170  1  0.23956836  0.16677036  0.50564767  1  -1.191913  0  -0.344601  -0.580309  0  2.097062  0
O  O171  1  0.07288712  0.83304830  0.99429443  1  -1.19216  0  -0.344551  -0.579668  0  2.096953  0
O  O172  1  0.93243503  0.86123951  0.56829793  1  -1.16945  0  -0.347132  -0.574119  0  2.261655  0
O  O173  1  0.07098358  0.13885662  0.93182479  1  -1.176762  0  -0.34737  -0.574483  0  2.264197  0
O  O174  1  0.06756767  0.13877803  0.43170565  1  -1.169807  0  -0.347109  -0.574168  0  2.261787  0
O  O175  1  0.92903175  0.86114210  0.06817408  1  -1.177038  0  -0.347284  -0.574239  0  2.264456  0
O  O176  1  0.95238787  0.84154247  0.23195932  1  -1.43572  0  -0.381801  -0.69332  0  2.264883  0
O  O177  1  0.11063571  0.15824944  0.26814261  1  -1.438822  0  -0.382131  -0.694317  0  2.26438  0
O  O178  1  0.04761250  0.15846162  0.76804291  1  -1.435781  0  -0.381857  -0.693418  0  2.264896  0
O  O179  1  0.88935223  0.84174567  0.73185836  1  -1.438779  0  -0.382134  -0.694362  0  2.264449  0
O  O180  1  0.15396731  0.96565853  0.33090804  1  -1.454067  0  -0.367806  -0.70262  0  2.326132  0
O  O181  1  0.18812247  0.03428764  0.16938581  1  -1.448826  0  -0.36809  -0.703823  0  2.32734  0
O  O182  1  0.84603043  0.03434736  0.66909340  1  -1.454056  0  -0.367847  -0.702645  0  2.32605  0
O  O183  1  0.81187651  0.96570837  0.83061687  1  -1.4489  0  -0.368039  -0.703827  0  2.327446  0
