# generated using pymatgen
data_CaH12C14(NO4)2
_symmetry_space_group_name_H-M   'P 1'
_cell_length_a   5.31952902
_cell_length_b   9.72046872
_cell_length_c   14.72942264
_cell_angle_alpha   105.60335764
_cell_angle_beta   89.99936511
_cell_angle_gamma   90.00052492
_symmetry_Int_Tables_number   1
_chemical_formula_structural   CaH12C14(NO4)2
_chemical_formula_sum   'Ca2 H24 C28 N4 O16'
_cell_volume   733.56500031
_cell_formula_units_Z   2
loop_
 _symmetry_equiv_pos_site_id
 _symmetry_equiv_pos_as_xyz
  1  'x, y, z'
loop_
 _atom_site_type_symbol
 _atom_site_label
 _atom_site_symmetry_multiplicity
 _atom_site_fract_x
 _atom_site_fract_y
 _atom_site_fract_z
 _atom_site_occupancy
 _atom_site_pbe_bader_spin_density
 _atom_site_pbe_cm5_charge
 _atom_site_pbe_ddec_charge
 _atom_site_pbe_ddec_spin_density
 _atom_site_pbe_ddec_sum_bond_order
 _atom_site_pbe_magmom
Ca  Ca0  1  0.29891449  0.68738157  0.52794997  1  0  0.875872  1.417  0  1.380772  0
Ca  Ca1  1  0.79897100  0.31261803  0.47206151  1  0  0.875932  1.417065  0  1.380758  0
H  H2  1  0.06547585  0.73235076  0.73260234  1  0  0.310396  0.346896  0  0.986828  0
H  H3  1  0.56546791  0.26759060  0.26737984  1  0  0.310435  0.346989  0  0.986607  0
H  H4  1  0.41611044  0.85781071  0.80467712  1  0  0.309722  0.356616  0  0.967759  0
H  H5  1  0.91609466  0.14217762  0.19531307  1  0  0.309765  0.356653  0  0.967776  0
H  H6  1  0.42279663  0.42980614  0.68418894  1  0  0.11577  0.105226  0  1.063615  0
H  H7  1  0.92286079  0.57020903  0.31583061  1  0  0.115732  0.105192  0  1.063617  0
H  H8  1  0.88285544  0.13066321  0.66468546  1  0  0.110847  0.108499  0  1.038714  0
H  H9  1  0.38284941  0.86937401  0.33533231  1  0  0.110783  0.108405  0  1.038715  0
H  H10  1  0.96737681  0.66737202  0.95631827  1  0  0.110403  0.125449  0  1.006887  0
H  H11  1  0.46732402  0.33261719  0.04367324  1  0  0.110369  0.125426  0  1.006954  0
H  H12  1  0.09967015  0.24357749  0.95689415  1  0  0.105724  0.102859  0  1.060078  0
H  H13  1  0.59970073  0.75643204  0.04311566  1  0  0.10576  0.10277  0  1.060126  0
H  H14  1  0.63423280  0.49758737  0.97584691  1  0  0.106927  0.102656  0  1.038964  0
H  H15  1  0.13419306  0.50242248  0.02414514  1  0  0.106933  0.102698  0  1.038761  0
H  H16  1  0.79087208  0.07108543  0.98821163  1  0  0.111859  0.137947  0  1.002563  0
H  H17  1  0.29087852  0.92890505  0.01178690  1  0  0.111851  0.137987  0  1.002395  0
H  H18  1  0.04184621  0.92242840  0.45324928  1  0  0.301165  0.396656  0  0.936325  0
H  H19  1  0.54186593  0.07756583  0.54673186  1  0  0.301179  0.39674  0  0.936241  0
H  H20  1  0.59340014  0.68195969  0.33143644  1  0  0.284637  0.336133  0  1.032703  0
H  H21  1  0.09342452  0.31804700  0.66855868  1  0  0.284632  0.336113  0  1.032738  0
H  H22  1  0.87186368  0.88797798  0.53296935  1  0  0.305384  0.388165  0  0.95219  0
H  H23  1  0.37189185  0.11201964  0.46701843  1  0  0.305411  0.388131  0  0.952206  0
H  H24  1  0.73274059  0.74097665  0.42714434  1  0  0.300095  0.37627  0  0.96625  0
H  H25  1  0.23277603  0.25903409  0.57283794  1  0  0.300088  0.37622  0  0.966325  0
C  C26  1  0.73058583  0.57110363  0.73157124  1  0  -0.030815  -0.189719  0  3.996928  0
C  C27  1  0.23059018  0.42889412  0.26842801  1  0  -0.030776  -0.189746  0  3.997223  0
C  C28  1  0.50337513  0.45186278  0.83184138  1  0  0.075525  0.133886  0  4.082079  0
C  C29  1  0.00340351  0.54816098  0.16816157  1  0  0.075452  0.13371  0  4.081899  0
C  C30  1  0.55221906  0.92418013  0.67131511  1  0  0.213306  0.595113  0  4.19684  0
C  C31  1  0.05219605  0.07583555  0.32869315  1  0  0.213474  0.595547  0  4.195911  0
C  C32  1  0.77242759  0.59362377  0.63739482  1  0  0.233079  0.620546  0  4.196303  0
C  C33  1  0.27246636  0.40636433  0.36259933  1  0  0.233138  0.620808  0  4.195978  0
C  C34  1  0.88503701  0.64055765  0.80950790  1  0  0.10833  0.339751  0  4.012842  0
C  C35  1  0.38501033  0.35941701  0.19048638  1  0  0.108216  0.339592  0  4.01334  0
C  C36  1  0.54081984  0.47936765  0.74427050  1  0  -0.067904  -0.113402  0  3.917149  0
C  C37  1  0.04084137  0.52062645  0.25573031  1  0  -0.067864  -0.113203  0  3.917282  0
C  C38  1  0.86069819  0.11828042  0.73556729  1  0  -0.076153  -0.129216  0  3.947157  0
C  C39  1  0.36070011  0.88173426  0.26444564  1  0  -0.076041  -0.128968  0  3.947034  0
C  C40  1  0.68964426  0.01775128  0.75101047  1  0  -0.042711  -0.194957  0  4.018742  0
C  C41  1  0.18967112  0.98225966  0.24900123  1  0  -0.042837  -0.195217  0  4.018784  0
C  C42  1  0.66139402  0.00285878  0.84398714  1  0  0.10911  0.337914  0  4.013912  0
C  C43  1  0.16140696  0.99714254  0.15602451  1  0  0.109129  0.338038  0  4.013353  0
C  C44  1  0.84763365  0.61334948  0.89743680  1  0  -0.100616  -0.201257  0  3.96424  0
C  C45  1  0.34758187  0.38662501  0.10255624  1  0  -0.100625  -0.201275  0  3.96419  0
C  C46  1  0.00718627  0.20078934  0.80870789  1  0  0.07393  0.13579  0  4.07772  0
C  C47  1  0.50717011  0.79921864  0.19129730  1  0  0.073954  0.135672  0  4.077355  0
C  C48  1  0.98149074  0.18190530  0.90032152  1  0  -0.071773  -0.092556  0  3.936308  0
C  C49  1  0.48150018  0.81809096  0.09968396  1  0  -0.071917  -0.092353  0  3.936481  0
C  C50  1  0.66156726  0.51980224  0.90784646  1  0  -0.068338  -0.096655  0  3.949594  0
C  C51  1  0.16158338  0.48022719  0.09215469  1  0  -0.068349  -0.096678  0  3.949352  0
C  C52  1  0.80991441  0.08616062  0.91784203  1  0  -0.092467  -0.181197  0  3.928465  0
C  C53  1  0.30992790  0.91383354  0.08216583  1  0  -0.092483  -0.181454  0  3.928316  0
N  N54  1  0.32564016  0.35824609  0.85156852  1  0  -0.156158  -0.134288  0  3.32601  0
N  N55  1  0.82562974  0.64176218  0.14842317  1  0  -0.156058  -0.134239  0  3.326046  0
N  N56  1  0.17551071  0.29719881  0.78546001  1  0  -0.155856  -0.141341  0  3.368678  0
N  N57  1  0.67555969  0.70281270  0.21454232  1  0  -0.155758  -0.141218  0  3.368731  0
O  O58  1  0.62603535  0.53283886  0.56861498  1  0  -0.394143  -0.684459  0  2.222565  0
O  O59  1  0.12606576  0.46712884  0.43138266  1  0  -0.394207  -0.684638  0  2.222294  0
O  O60  1  0.58740582  0.93130210  0.58591724  1  0  -0.326198  -0.623932  0  2.249432  0
O  O61  1  0.08732942  0.06870099  0.41409159  1  0  -0.326295  -0.624067  0  2.249166  0
O  O62  1  0.40133051  0.83030387  0.68672404  1  0  -0.344093  -0.603204  0  2.262199  0
O  O63  1  0.90131182  0.16971590  0.31328206  1  0  -0.344118  -0.603482  0  2.262069  0
O  O64  1  0.95656323  0.67267836  0.62691606  1  0  -0.346057  -0.603373  0  2.271707  0
O  O65  1  0.45659077  0.32731866  0.37307603  1  0  -0.346094  -0.603459  0  2.271724  0
O  O66  1  0.00317429  0.84576820  0.48494861  1  0  -0.607455  -0.806999  0  2.016578  0
O  O67  1  0.50318326  0.15423485  0.51504223  1  0  -0.607387  -0.806943  0  2.01661  0
O  O68  1  0.06599369  0.73170864  0.80120107  1  0  -0.329123  -0.422671  0  2.355248  0
O  O69  1  0.56595957  0.26827853  0.19878632  1  0  -0.329006  -0.422597  0  2.355465  0
O  O70  1  0.50052543  0.91027154  0.86498720  1  0  -0.325438  -0.420919  0  2.347004  0
O  O71  1  0.00052526  0.08971827  0.13501514  1  0  -0.325506  -0.420991  0  2.346875  0
O  O72  1  0.57613264  0.69070117  0.40074139  1  0  -0.626841  -0.823268  0  2.097858  0
O  O73  1  0.07617204  0.30930651  0.59925328  1  0  -0.626854  -0.823188  0  2.098053  0
