# generated using pymatgen
data_Cd3H18C22Br4(N6O)2
_symmetry_space_group_name_H-M   'P 1'
_cell_length_a   7.36225017
_cell_length_b   7.95567636
_cell_length_c   12.87019512
_cell_angle_alpha   89.05433039
_cell_angle_beta   89.09434626
_cell_angle_gamma   69.64884054
_symmetry_Int_Tables_number   1
_chemical_formula_structural   Cd3H18C22Br4(N6O)2
_chemical_formula_sum   'Cd3 H18 C22 Br4 N12 O2'
_cell_volume   706.63701600
_cell_formula_units_Z   1
loop_
 _symmetry_equiv_pos_site_id
 _symmetry_equiv_pos_as_xyz
  1  'x, y, z'
loop_
 _atom_site_type_symbol
 _atom_site_label
 _atom_site_symmetry_multiplicity
 _atom_site_fract_x
 _atom_site_fract_y
 _atom_site_fract_z
 _atom_site_occupancy
 _atom_site_hle17_bader_spin_density
 _atom_site_hle17_ddec_charge
 _atom_site_hle17_ddec_spin_density
 _atom_site_hle17_ddec_sum_bond_order
 _atom_site_hle17_magmom
 _atom_site_hse06_10hf_bader_spin_density
 _atom_site_hse06_10hf_ddec_charge
 _atom_site_hse06_10hf_ddec_spin_density
 _atom_site_hse06_10hf_ddec_sum_bond_order
 _atom_site_hse06_10hf_magmom
 _atom_site_hse06_bader_spin_density
 _atom_site_hse06_ddec_charge
 _atom_site_hse06_ddec_spin_density
 _atom_site_hse06_ddec_sum_bond_order
 _atom_site_hse06_magmom
 _atom_site_pbe_bader_spin_density
 _atom_site_pbe_cm5_charge
 _atom_site_pbe_ddec_charge
 _atom_site_pbe_ddec_spin_density
 _atom_site_pbe_ddec_sum_bond_order
 _atom_site_pbe_magmom
Cd  Cd0  1  0.50000903  0.00000294  0.00000250  1  0  0.834258  0  2.014896  0  0  0.66966  0  2.466649  0  0  0.718468  0  2.430173  0  0  0.521474  0.635723  0  2.49083  0
Cd  Cd1  1  0.64007884  0.70894559  0.26184676  1  0  0.968267  0  1.867148  0  0  0.785279  0  2.318135  0  0  0.836642  0  2.274872  0  0  0.664888  0.749312  0  2.347381  0
Cd  Cd2  1  0.35991975  0.29105477  0.73815292  1  0  0.968279  0  1.867203  0  0  0.785297  0  2.318196  0  0  0.836659  0  2.274934  0  0  0.664912  0.749331  0  2.347445  0
H  H3  1  0.74165955  0.42779833  0.05994382  1  0  0.092978  0  0.971487  0  0  0.095096  0  1.04626  0  0  0.098455  0  1.043557  0  0  0.100077  0.092598  0  1.048373  0
H  H4  1  0.25834654  0.57219673  0.94005508  1  0  0.093044  0  0.971393  0  0  0.095078  0  1.046278  0  0  0.098493  0  1.043501  0  0  0.100092  0.092555  0  1.048402  0
H  H5  1  0.03376042  0.18559320  0.98174915  1  0  0.092679  0  0.970849  0  0  0.094572  0  1.045935  0  0  0.098046  0  1.043113  0  0  0.100487  0.091963  0  1.04818  0
H  H6  1  0.96624951  0.81440594  0.01825048  1  0  0.092685  0  0.970759  0  0  0.094601  0  1.045857  0  0  0.098077  0  1.043034  0  0  0.100487  0.091981  0  1.048106  0
H  H7  1  0.39181953  0.29745773  0.19588091  1  0  0.104224  0  0.950939  0  0  0.109362  0  1.018986  0  0  0.11323  0  1.015595  0  0  0.111015  0.106487  0  1.021633  0
H  H8  1  0.60818257  0.70254399  0.80412263  1  0  0.104063  0  0.950963  0  0  0.109207  0  1.01902  0  0  0.113075  0  1.015628  0  0  0.110928  0.106343  0  1.021652  0
H  H9  1  0.03040362  0.76819159  0.65047490  1  0  0.121377  0  0.952528  0  0  0.13263  0  1.01108  0  0  0.135822  0  1.010013  0  0  0.10968  0.130276  0  1.012098  0
H  H10  1  0.96959279  0.23180740  0.34952402  1  0  0.121359  0  0.95252  0  0  0.132613  0  1.011076  0  0  0.135819  0  1.00999  0  0  0.109664  0.130261  0  1.012088  0
H  H11  1  0.78927622  0.00631180  0.75633603  1  0  0.072812  0  0.977516  0  0  0.077623  0  1.050129  0  0  0.079943  0  1.048112  0  0  0.098786  0.075916  0  1.051571  0
H  H12  1  0.21071935  0.99368582  0.24366447  1  0  0.072835  0  0.977511  0  0  0.07765  0  1.050073  0  0  0.079963  0  1.048074  0  0  0.098808  0.075935  0  1.051533  0
H  H13  1  0.47899061  0.24397732  0.49520148  1  0  0.078988  0  0.945993  0  0  0.086569  0  1.011902  0  0  0.089319  0  1.008947  0  0  0.115599  0.084546  0  1.014072  0
H  H14  1  0.52100340  0.75602433  0.50479900  1  0  0.078986  0  0.945974  0  0  0.086562  0  1.011885  0  0  0.089311  0  1.008933  0  0  0.115588  0.084538  0  1.014054  0
H  H15  1  0.70508833  0.01910277  0.37867345  1  0  0.110481  0  0.97619  0  0  0.118946  0  1.041888  0  0  0.122551  0  1.040003  0  0  0.096761  0.11632  0  1.043422  0
H  H16  1  0.29490653  0.98090024  0.62132546  1  0  0.110479  0  0.976221  0  0  0.118979  0  1.041884  0  0  0.122583  0  1.04  0  0  0.096783  0.116353  0  1.043418  0
H  H17  1  0.49501922  0.45504546  0.36146662  1  0  0.383461  0  0.93646  0  0  0.343232  0  1.018273  0  0  0.354494  0  1.002179  0  0  0.27453  0.335318  0  1.029548  0
H  H18  1  0.50497209  0.54495616  0.63853387  1  0  0.383365  0  0.936559  0  0  0.343126  0  1.01841  0  0  0.354387  0  1.002318  0  0  0.274492  0.335212  0  1.029684  0
H  H19  1  0.69161558  0.42965942  0.42441655  1  0  0.377495  0  0.946364  0  0  0.333417  0  1.035069  0  0  0.345261  0  1.018311  0  0  0.272049  0.325107  0  1.046793  0
H  H20  1  0.30837812  0.57033954  0.57558317  1  0  0.377562  0  0.946223  0  0  0.333508  0  1.034939  0  0  0.345354  0  1.018176  0  0  0.27209  0.325198  0  1.046667  0
C  C21  1  0.88691538  0.39666062  0.09100252  1  0  0.100364  0  3.674025  0  0  0.071462  0  3.92696  0  0  0.074416  0  3.944259  0  0  0.051534  0.069293  0  3.915571  0
C  C22  1  0.11308934  0.60333442  0.90899717  1  0  0.10038  0  3.674009  0  0  0.071537  0  3.926924  0  0  0.074462  0  3.94421  0  0  0.051529  0.069397  0  3.915545  0
C  C23  1  0.04711397  0.26512872  0.04750474  1  0  0.075401  0  3.659115  0  0  0.04434  0  3.916503  0  0  0.047738  0  3.933026  0  0  0.043644  0.042027  0  3.905494  0
C  C24  1  0.95289513  0.73486906  0.95249490  1  0  0.075263  0  3.659059  0  0  0.044161  0  3.916472  0  0  0.047558  0  3.932993  0  0  0.043561  0.041857  0  3.905455  0
C  C25  1  0.24545489  0.32660468  0.16693293  1  0  0.065467  0  3.631117  0  0  0.027866  0  3.88562  0  0  0.031121  0  3.900664  0  0  0.058729  0.025579  0  3.875823  0
C  C26  1  0.75454962  0.67339438  0.83306906  1  0  0.065596  0  3.631033  0  0  0.02804  0  3.885562  0  0  0.031297  0  3.900602  0  0  0.058817  0.025746  0  3.875753  0
C  C27  1  0.08291935  0.45299088  0.21451081  1  0  0.136216  0  3.744661  0  0  0.135965  0  3.988761  0  0  0.14075  0  4.006288  0  0  0.133535  0.132359  0  3.977135  0
C  C28  1  0.91708246  0.54700816  0.78548964  1  0  0.136267  0  3.744547  0  0  0.135942  0  3.988747  0  0  0.140728  0  4.006269  0  0  0.133539  0.132336  0  3.977127  0
C  C29  1  0.08964783  0.54468356  0.31086531  1  0  0.255094  0  3.816845  0  0  0.225911  0  4.090669  0  0  0.234685  0  4.110087  0  0  0.201367  0.220331  0  4.077239  0
C  C30  1  0.91034825  0.45531272  0.68913597  1  0  0.254967  0  3.816959  0  0  0.225804  0  4.090808  0  0  0.234577  0  4.110227  0  0  0.20127  0.220225  0  4.07738  0
C  C31  1  0.99420357  0.71765875  0.44017235  1  0  0.296571  0  3.763933  0  0  0.268448  0  4.035028  0  0  0.278585  0  4.052156  0  0  0.208894  0.261825  0  4.023114  0
C  C32  1  0.00579180  0.28234292  0.55982735  1  0  0.296487  0  3.764031  0  0  0.268342  0  4.03517  0  0  0.278478  0  4.052298  0  0  0.208885  0.26172  0  4.023254  0
C  C33  1  0.87604801  0.86332213  0.50611102  1  0  0.061005  0  3.766081  0  0  0.072537  0  4.005337  0  0  0.077225  0  4.024531  0  0  0.015935  0.069498  0  3.992147  0
C  C34  1  0.12394873  0.13667957  0.49388712  1  0  0.060973  0  3.76605  0  0  0.07249  0  4.005365  0  0  0.077178  0  4.024561  0  0  0.015891  0.06945  0  3.992174  0
C  C35  1  0.90650249  0.86754600  0.61335077  1  0  -0.138757  0  3.679644  0  0  -0.161629  0  3.932208  0  0  -0.168728  0  3.952679  0  0  -0.082259  -0.157063  0  3.918529  0
C  C36  1  0.09349424  0.13245569  0.38664814  1  0  -0.138664  0  3.679571  0  0  -0.16154  0  3.932112  0  0  -0.168647  0  3.952575  0  0  -0.082212  -0.156972  0  3.918432  0
C  C37  1  0.77383992  0.99949598  0.67254285  1  0  0.126855  0  3.706318  0  0  0.096652  0  3.960447  0  0  0.103858  0  3.979322  0  0  0.036139  0.092047  0  3.947565  0
C  C38  1  0.22615784  0.00050303  0.32745685  1  0  0.126765  0  3.706357  0  0  0.096605  0  3.960447  0  0  0.103811  0  3.979322  0  0  0.036114  0.091999  0  3.947561  0
C  C39  1  0.60065638  0.13445302  0.52732802  1  0  0.135783  0  3.728085  0  0  0.106133  0  3.980228  0  0  0.114657  0  3.997399  0  0  0.044056  0.100624  0  3.968477  0
C  C40  1  0.39934220  0.86554734  0.47267244  1  0  0.135829  0  3.727986  0  0  0.106199  0  3.980125  0  0  0.114723  0  3.997295  0  0  0.044081  0.100691  0  3.968372  0
C  C41  1  0.72597235  0.00719298  0.46246004  1  0  -0.146194  0  3.694962  0  0  -0.164201  0  3.939557  0  0  -0.172038  0  3.959572  0  0  -0.084065  -0.159154  0  3.926118  0
C  C42  1  0.27402489  0.99280736  0.53753966  1  0  -0.146193  0  3.694967  0  0  -0.164255  0  3.939615  0  0  -0.172091  0  3.959628  0  0  -0.084071  -0.159205  0  3.926172  0
Br  Br43  1  0.72136909  0.00674217  0.16677786  1  0  -0.513247  0  1.022635  0  0  -0.453442  0  1.319512  0  0  -0.473585  0  1.29817  0  0  -0.251487  -0.438832  0  1.333932  0
Br  Br44  1  0.27865058  0.99325975  0.83322636  1  0  -0.513207  0  1.022637  0  0  -0.453402  0  1.319489  0  0  -0.473545  0  1.298147  0  0  -0.251504  -0.43881  0  1.333944  0
Br  Br45  1  0.39569543  0.72655877  0.10111269  1  0  -0.516185  0  1.024249  0  0  -0.45645  0  1.333853  0  0  -0.477052  0  1.312266  0  0  -0.253077  -0.441657  0  1.348485  0
Br  Br46  1  0.60431237  0.27345654  0.89888219  1  0  -0.516191  0  1.024242  0  0  -0.456459  0  1.33384  0  0  -0.477061  0  1.312252  0  0  -0.253076  -0.441667  0  1.348472  0
N  N47  1  0.90556165  0.48903709  0.17331878  1  0  -0.295938  0  3.213589  0  0  -0.227897  0  3.463272  0  0  -0.24249  0  3.481032  0  0  -0.304262  -0.217684  0  3.451144  0
N  N48  1  0.09443986  0.51095926  0.82668014  1  0  -0.295966  0  3.213618  0  0  -0.227888  0  3.46329  0  0  -0.242486  0  3.481064  0  0  -0.304237  -0.217673  0  3.451151  0
N  N49  1  0.22556963  0.23367066  0.08474191  1  0  -0.26923  0  3.257885  0  0  -0.196598  0  3.515887  0  0  -0.212084  0  3.537227  0  0  -0.30648  -0.185912  0  3.501249  0
N  N50  1  0.77443487  0.76632841  0.91526008  1  0  -0.269174  0  3.257923  0  0  -0.196538  0  3.515901  0  0  -0.212028  0  3.537253  0  0  -0.306437  -0.185852  0  3.501262  0
N  N51  1  0.24072301  0.50214257  0.37664413  1  0  -0.286466  0  3.008776  0  0  -0.247331  0  3.277335  0  0  -0.259327  0  3.294273  0  0  -0.215488  -0.23908  0  3.265756  0
N  N52  1  0.75927254  0.49785504  0.62335870  1  0  -0.286417  0  3.008784  0  0  -0.247282  0  3.277335  0  0  -0.259277  0  3.294274  0  0  -0.21544  -0.239031  0  3.265756  0
N  N53  1  0.17856625  0.61089405  0.45958692  1  0  -0.275092  0  3.024344  0  0  -0.23095  0  3.288984  0  0  -0.243005  0  3.306033  0  0  -0.210295  -0.222685  0  3.277401  0
N  N54  1  0.82142641  0.38910759  0.54041357  1  0  -0.275074  0  3.024421  0  0  -0.2309  0  3.289015  0  0  -0.242954  0  3.306066  0  0  -0.21031  -0.222634  0  3.27743  0
N  N55  1  0.93242491  0.67738305  0.34830226  1  0  -0.472798  0  3.133013  0  0  -0.405908  0  3.40119  0  0  -0.428374  0  3.418533  0  0  -0.348247  -0.390594  0  3.389001  0
N  N56  1  0.06756962  0.32261727  0.65169745  1  0  -0.4727  0  3.133025  0  0  -0.405803  0  3.401197  0  0  -0.428268  0  3.41854  0  0  -0.348181  -0.390488  0  3.38901  0
N  N57  1  0.61756818  0.12630956  0.63126956  1  0  -0.343949  0  3.289238  0  0  -0.264258  0  3.550845  0  0  -0.285402  0  3.571435  0  0  -0.341414  -0.249896  0  3.536514  0
N  N58  1  0.38242719  0.87369211  0.36873014  1  0  -0.343956  0  3.289321  0  0  -0.264271  0  3.550897  0  0  -0.285413  0  3.571486  0  0  -0.34143  -0.249908  0  3.536566  0
O  O59  1  0.63170731  0.45104893  0.35338485  1  0  -0.814796  0  1.942054  0  0  -0.752226  0  2.16267  0  0  -0.773978  0  2.128207  0  0  -0.60136  -0.736745  0  2.186464  0
O  O60  1  0.36828639  0.54895003  0.64661487  1  0  -0.814764  0  1.942124  0  0  -0.752215  0  2.162732  0  0  -0.773964  0  2.128268  0  0  -0.601378  -0.736736  0  2.186523  0
