# generated using pymatgen
data_Zn4H57C96N20F3
_symmetry_space_group_name_H-M   'P 1'
_cell_length_a   20.14590559
_cell_length_b   20.11715738
_cell_length_c   19.78693665
_cell_angle_alpha   105.70326181
_cell_angle_beta   107.62391151
_cell_angle_gamma   111.61100766
_symmetry_Int_Tables_number   1
_chemical_formula_structural   Zn4H57C96N20F3
_chemical_formula_sum   'Zn4 H57 C96 N20 F3'
_cell_volume   6410.70358027
_cell_formula_units_Z   1
loop_
 _symmetry_equiv_pos_site_id
 _symmetry_equiv_pos_as_xyz
  1  'x, y, z'
loop_
 _atom_site_type_symbol
 _atom_site_label
 _atom_site_symmetry_multiplicity
 _atom_site_fract_x
 _atom_site_fract_y
 _atom_site_fract_z
 _atom_site_occupancy
 _atom_site_pbe_bader_charge
 _atom_site_pbe_bader_spin_density
 _atom_site_pbe_cm5_charge
 _atom_site_pbe_ddec_charge
 _atom_site_pbe_ddec_spin_density
 _atom_site_pbe_ddec_sum_bond_order
 _atom_site_pbe_magmom
Zn  Zn0  1  0.88328406  0.89256375  0.51325788  1  1.198047  0  0.740549  0.62644  0  2.380963  0
Zn  Zn1  1  0.09597865  0.07039603  0.47437203  1  1.178965  0  0.764692  0.697218  0  2.239328  0
Zn  Zn2  1  0.08087348  0.97777583  0.61617561  1  1.174546  0  0.776082  0.686832  0  2.295608  0
Zn  Zn3  1  0.89518223  0.99508686  0.39500937  1  1.18952  0  0.754596  0.653122  0  2.365431  0
H  H4  1  0.83737108  0.90192059  0.67233842  1  0.099967  0  0.123033  0.114826  0  0.982289  0
H  H5  1  0.56946215  0.21009735  0.63915895  1  0.036293  0  0.097993  0.08622  0  0.994934  0
H  H6  1  0.54225130  0.01964108  0.67873622  1  0.051529  0  0.097022  0.08293  0  0.998041  0
H  H7  1  0.14842204  0.24767085  0.47025657  1  0.081213  0  0.113996  0.101285  0  1.029833  0
H  H8  1  0.58001677  0.96300650  0.55509964  1  0.06692  0  0.097507  0.083788  0  0.993121  0
H  H9  1  0.47581744  0.00033013  0.45898208  1  0.053875  0  0.09866  0.086134  0  0.991862  0
H  H10  1  0.60713982  0.15382750  0.51565754  1  0.069933  0  0.097189  0.084776  0  0.99735  0
H  H11  1  0.06694627  0.58162523  0.53575661  1  0.092987  0  0.108902  0.115702  0  0.975128  0
H  H12  1  0.86799274  0.44500423  0.32998237  1  0.072229  0  0.116265  0.141392  0  0.964441  0
H  H13  1  0.08283757  0.53845655  0.33258326  1  0.095917  0  0.110892  0.119062  0  0.975247  0
H  H14  1  0.14989127  0.51861572  0.46906912  1  0.081239  0  0.104902  0.096336  0  0.983963  0
H  H15  1  0.25736563  0.08447685  0.46872474  1  0.070585  0  0.113179  0.100342  0  1.024428  0
H  H16  1  0.37542433  0.19488202  0.83262006  1  0.078024  0  0.09948  0.10015  0  1.026427  0
H  H17  1  0.26079730  0.10101366  0.75144891  1  0.083233  0  0.118063  0.104141  0  1.000939  0
H  H18  1  0.60022675  0.47330728  0.13787711  1  0.109668  0  0.110047  0.118793  0  0.989805  0
H  H19  1  0.67893455  0.60016917  0.25937936  1  0.032545  0  0.102274  0.103189  0  1.000505  0
H  H20  1  0.69916696  0.59367848  0.01336100  1  0.115916  0  0.114437  0.140985  0  0.995818  0
H  H21  1  0.51802829  0.42980775  0.79547314  1  0.07857  0  0.10603  0.11404  0  1.000323  0
H  H22  1  0.89564443  0.00791581  0.10265211  1  0.071999  0  0.101081  0.100891  0  0.999336  0
H  H23  1  0.90962515  0.09521430  0.03438500  1  0.064322  0  0.105562  0.112915  0  0.999757  0
H  H24  1  0.87265528  0.14628848  0.89919044  1  0.078128  0  0.107909  0.116246  0  0.983808  0
H  H25  1  0.84777130  0.04443143  0.77642180  1  0.050411  0  0.101782  0.1037  0  0.998589  0
H  H26  1  0.10354130  0.81407863  0.58444578  1  0.09359  0  0.124947  0.112617  0  0.981043  0
H  H27  1  0.13107812  0.17821407  0.29153277  1  0.062623  0  0.097484  0.095893  0  1.008775  0
H  H28  1  0.14319418  0.26792632  0.22501555  1  0.073655  0  0.106603  0.110696  0  0.992057  0
H  H29  1  0.08123402  0.07341898  0.89580815  1  0.059162  0  0.0993  0.100176  0  1.015717  0
H  H30  1  0.22631711  0.23268736  0.61590375  1  0.108242  0  0.112108  0.100501  0  1.032812  0
H  H31  1  0.87391174  0.02870540  0.63575617  1  0.137096  0  0.114311  0.104825  0  1.048784  0
H  H32  1  0.90327063  0.16453244  0.43363687  1  0.093859  0  0.114949  0.106538  0  1.035363  0
H  H33  1  0.08375857  0.08318042  0.76863964  1  0.111408  0  0.122196  0.114985  0  0.991035  0
H  H34  1  0.72738801  0.71478205  0.36082838  1  0.069779  0  0.121575  0.109147  0  0.991597  0
H  H35  1  0.62900021  0.31825870  0.93645715  1  0.069776  0  0.100518  0.103393  0  0.99216  0
H  H36  1  0.68833470  0.27856359  0.03695661  1  0.069389  0  0.101678  0.098622  0  0.992235  0
H  H37  1  0.87271223  0.01973377  0.23078687  1  0.093776  0  0.120295  0.108476  0  0.994208  0
H  H38  1  0.61292381  0.22456467  0.10616953  1  0.027699  0  0.095487  0.089632  0  1.005923  0
H  H39  1  0.47712943  0.21045230  0.07334831  1  0.048199  0  0.095941  0.0912  0  1.002642  0
H  H40  1  0.41834015  0.25075114  0.97321050  1  0.063897  0  0.098145  0.098457  0  1.002472  0
H  H41  1  0.37585740  0.42779746  0.71162833  1  0.067704  0  0.103636  0.10576  0  0.991615  0
H  H42  1  0.32201343  0.42958077  0.58161420  1  0.042906  0  0.1025  0.098906  0  0.992503  0
H  H43  1  0.29538292  0.32240121  0.46109914  1  0.058759  0  0.099835  0.096604  0  0.997209  0
H  H44  1  0.32497782  0.21475897  0.47189490  1  0.059365  0  0.097046  0.092179  0  1.004042  0
H  H45  1  0.37680627  0.21212415  0.60184071  1  0.087711  0  0.102978  0.106347  0  1.009973  0
H  H46  1  0.78335461  0.17794290  0.49959588  1  0.103468  0  0.10527  0.109111  0  1.004085  0
H  H47  1  0.71803625  0.21477467  0.39937595  1  0.060557  0  0.104973  0.100884  0  0.988086  0
H  H48  1  0.10884664  0.04348345  0.31796295  1  0.079138  0  0.115284  0.105467  0  0.995912  0
H  H49  1  0.65893172  0.12712191  0.25673639  1  0.051258  0  0.101708  0.09618  0  0.996115  0
H  H50  1  0.66526899  0.00190566  0.21531962  1  0.051523  0  0.101595  0.097993  0  0.991779  0
H  H51  1  0.72868150  0.96398437  0.31549820  1  0.04145  0  0.09883  0.099351  0  1.009843  0
H  H52  1  0.15872466  0.30203919  0.05630658  1  0.090306  0  0.105295  0.111039  0  0.991578  0
H  H53  1  0.29384574  0.36054681  0.16468188  1  0.082546  0  0.100684  0.096305  0  0.993112  0
H  H54  1  0.34132601  0.27335456  0.20640367  1  0.081619  0  0.097595  0.092675  0  1.001297  0
H  H55  1  0.25199746  0.12663840  0.13815348  1  0.043512  0  0.099109  0.095014  0  0.994327  0
H  H56  1  0.11648904  0.06839360  0.02973478  1  0.01898  0  0.101308  0.102334  0  0.996282  0
H  H57  1  0.88287362  0.74457605  0.38923060  1  0.109207  0  0.116978  0.108336  0  1.04202  0
H  H58  1  0.85521518  0.84165900  0.25527699  1  0.129692  0  0.117644  0.116163  0  1.0231  0
H  H59  1  0.21072287  0.92270913  0.57632087  1  0.050057  0  0.109952  0.094231  0  1.014871  0
H  H60  1  0.67317157  0.17302748  0.73504784  1  0.086718  0  0.098206  0.085695  0  0.995917  0
C  C61  1  0.89842713  0.93972490  0.68466806  1  0.355917  0  0.010253  -0.052828  0  3.984534  0
C  C62  1  0.93667289  0.77380283  0.44422186  1  0.47513  0  0.020217  -0.019939  0  3.905509  0
C  C63  1  0.83013854  0.82182189  0.29197863  1  0.443431  0  0.014681  -0.033016  0  3.948357  0
C  C64  1  0.08815332  0.21603854  0.46323688  1  0.457718  0  0.017031  -0.040501  0  3.935829  0
C  C65  1  0.20811011  0.96052259  0.54660592  1  0.48776  0  0.003583  -0.054526  0  3.993153  0
C  C66  1  0.77353076  0.74542666  0.27609537  1  0.042834  0  -0.034923  -0.031067  0  4.076105  0
C  C67  1  0.26890118  0.00905000  0.53249331  1  0.104541  0  -0.03683  0.041655  0  4.211861  0
C  C68  1  0.99294756  0.74881705  0.46843134  1  0.104058  0  -0.024655  0.044019  0  4.182001  0
C  C69  1  0.99723690  0.04471598  0.24999574  1  -0.017741  0  -0.035588  -0.038982  0  4.084055  0
C  C70  1  0.57247126  0.15532287  0.62039750  1  -0.007775  0  -0.073909  -0.081231  0  3.63455  0
C  C71  1  0.62898426  0.13430569  0.67363444  1  -0.056367  0  -0.074679  -0.0844  0  3.640144  0
C  C72  1  0.02589720  0.23447744  0.44476732  1  0.138676  0  -0.029989  0.039671  0  4.189146  0
C  C73  1  0.76939125  0.09503704  0.58455642  1  -0.374534  0  -0.061543  -0.106738  0  4.216054  0
C  C74  1  0.34883010  0.02648216  0.55603091  1  -0.249895  0  -0.067966  -0.1152  0  4.230249  0
C  C75  1  0.59173362  0.12366478  0.55153333  1  -0.036342  0  -0.074547  -0.079136  0  3.639902  0
C  C76  1  0.23994539  0.12433941  0.71113027  1  0.399387  0  0.009784  -0.046878  0  3.978912  0
C  C77  1  0.64959190  0.10247550  0.60462740  1  0.126457  0  0.004614  0.135539  0  3.800714  0
C  C78  1  0.52075012  0.03869891  0.52016508  1  -0.020788  0  -0.074669  -0.080977  0  3.641088  0
C  C79  1  0.49927945  0.06967045  0.58874006  1  0.096965  0  0.002812  0.137727  0  3.813265  0
C  C80  1  0.57607745  0.01725559  0.57347875  1  -0.03791  0  -0.074114  -0.075308  0  3.640516  0
C  C81  1  0.55741817  0.04937697  0.64250498  1  -0.017227  0  -0.075054  -0.081428  0  3.646347  0
C  C82  1  0.72160845  0.10908595  0.60290766  1  0.014504  0  -0.062899  -0.142718  0  4.114834  0
C  C83  1  0.28168812  0.19368601  0.70434473  1  -0.030351  0  -0.033195  -0.033761  0  4.044694  0
C  C84  1  0.41983543  0.04905747  0.57568951  1  -0.136125  0  -0.070252  -0.151099  0  4.157124  0
C  C85  1  0.04197053  0.53695035  0.47596720  1  -0.04633  0  -0.075642  -0.156514  0  3.627135  0
C  C86  1  0.96901654  0.45237774  0.43691554  1  0.60642  0  0.106645  0.281642  0  3.735553  0
C  C87  1  0.02493643  0.29754149  0.42739594  1  -0.448535  0  -0.052549  -0.092392  0  4.190602  0
C  C88  1  0.80233524  0.04849988  0.47349937  1  0.429497  0  0.102626  0.115742  0  3.979609  0
C  C89  1  0.99284357  0.67825959  0.43167958  1  -0.182797  0  -0.057476  -0.099317  0  4.196059  0
C  C90  1  0.08747235  0.50333116  0.43871938  1  -0.037568  0  -0.070971  -0.05562  0  3.656562  0
C  C91  1  0.01537793  0.41582152  0.40171722  1  0.060895  0  -0.005278  -0.000805  0  3.827074  0
C  C92  1  0.05058042  0.51393139  0.36310436  1  -0.05465  0  -0.075446  -0.161827  0  3.614031  0
C  C93  1  0.00389277  0.54857133  0.40011746  1  0.095531  0  0.009782  0.173088  0  3.795868  0
C  C94  1  0.81115519  0.06575151  0.55127749  1  0.102973  0  -0.025019  0.002583  0  4.145464  0
C  C95  1  0.97787714  0.42879995  0.32630287  1  0.612063  0  0.109313  0.282215  0  3.721787  0
C  C96  1  0.93060086  0.46141490  0.36135705  1  -0.036879  0  -0.083161  -0.244021  0  3.625381  0
C  C97  1  0.02095917  0.35032632  0.41023191  1  0.102469  0  -0.069914  -0.122434  0  4.159204  0
C  C98  1  0.99814457  0.61840009  0.40944422  1  -0.176531  0  -0.064981  -0.146293  0  4.126875  0
C  C99  1  0.73285061  0.67076715  0.20626542  1  0.044771  0  -0.01274  -0.01455  0  4.036833  0
C  C100  1  0.22185497  0.19054643  0.64114995  1  0.447061  0  0.007767  -0.038921  0  3.966644  0
C  C101  1  0.73780821  0.66432867  0.13527278  1  0.401873  0  0.09826  0.249798  0  4.02764  0
C  C102  1  0.69492933  0.59468473  0.06716695  1  0.009269  0  -0.094772  -0.268115  0  3.955226  0
C  C103  1  0.64336200  0.52541185  0.06810061  1  0.416729  0  0.085806  0.18911  0  4.073036  0
C  C104  1  0.63986713  0.52813780  0.13864409  1  -0.061122  0  -0.086027  -0.153598  0  3.988163  0
C  C105  1  0.76444238  0.75713385  0.34566785  1  0.411161  0  0.012632  -0.046634  0  3.982347  0
C  C106  1  0.68360075  0.59915834  0.20570785  1  -0.027491  0  -0.093012  -0.115405  0  4.015928  0
C  C107  1  0.48165660  0.30472591  0.88307390  1  0.003917  0  0.001712  0.016999  0  3.968896  0
C  C108  1  0.40550258  0.24726661  0.82434285  1  -0.127768  0  -0.088856  -0.170386  0  3.95925  0
C  C109  1  0.51923632  0.37521355  0.87457041  1  0.382107  0  0.085605  0.124879  0  4.037746  0
C  C110  1  0.36573937  0.25292370  0.75573941  1  0.059957  0  0.000931  0.061113  0  3.991283  0
C  C111  1  0.41029158  0.31673925  0.74211129  1  -0.008744  0  -0.010208  0.021179  0  3.968053  0
C  C112  1  0.85522202  0.03043564  0.57911766  1  0.398501  0  0.015625  -0.0281  0  3.936696  0
C  C113  1  0.48529576  0.37730152  0.80247658  1  -0.038675  0  -0.082027  -0.187042  0  3.947701  0
C  C114  1  0.96357551  0.05201925  0.82716907  1  0.01939  0  -0.014434  0.081127  0  4.063254  0
C  C115  1  0.03413338  0.08763201  0.89684896  1  -0.067066  0  -0.091597  -0.176386  0  3.966127  0
C  C116  1  0.23272995  0.04316121  0.49157342  1  0.420452  0  0.004269  -0.062111  0  3.974132  0
C  C117  1  0.04908799  0.14409641  0.96724213  1  -0.010257  0  -0.004188  0.010607  0  3.960612  0
C  C118  1  0.98943306  0.16557610  0.96689320  1  0.266646  0  0.081282  0.107008  0  4.028941  0
C  C119  1  0.91716332  0.12800498  0.89811257  1  -0.020913  0  -0.091247  -0.150945  0  4.007132  0
C  C120  1  0.90336451  0.07080906  0.82964230  1  -0.006108  0  -0.093821  -0.128186  0  4.005579  0
C  C121  1  0.95857726  0.11277124  0.09005319  1  -0.04312  0  -0.089042  -0.142447  0  3.971709  0
C  C122  1  0.95083685  0.06405095  0.12859354  1  -0.0283  0  -0.093705  -0.130442  0  3.999584  0
C  C123  1  0.02759697  0.18725435  0.12574630  1  0.329318  0  0.077801  0.146161  0  4.062385  0
C  C124  1  0.96272432  0.17311919  0.44512901  1  0.429307  0  0.014772  -0.0359  0  3.923422  0
C  C125  1  0.01207343  0.08702352  0.20206436  1  -0.017951  0  -0.005175  0.091725  0  4.03111  0
C  C126  1  0.08336259  0.15922833  0.23422627  1  -0.049126  0  -0.090623  -0.12634  0  3.9885  0
C  C127  1  0.04947204  0.80890021  0.54425658  1  0.472949  0  0.02497  -0.024253  0  3.952167  0
C  C128  1  0.09026582  0.20975400  0.19785841  1  -0.02412  0  -0.081513  -0.128505  0  3.973215  0
C  C129  1  0.02434664  0.03178950  0.73381219  1  0.38759  0  0.011991  -0.043773  0  3.975725  0
C  C130  1  0.96052358  0.00734865  0.75319470  1  0.057085  0  -0.032203  -0.035118  0  4.076325  0
C  C131  1  0.51954263  0.28731768  0.94785349  1  0.015517  0  -0.005889  0.078336  0  4.027717  0
C  C132  1  0.59592587  0.29499749  0.96685595  1  -0.055178  0  -0.09398  -0.132079  0  3.977041  0
C  C133  1  0.62917939  0.27261312  0.02334316  1  -0.063162  0  -0.098127  -0.085046  0  4.048333  0
C  C134  1  0.58680451  0.24210119  0.06204357  1  -0.037276  0  -0.103898  -0.102827  0  4.057417  0
C  C135  1  0.51079278  0.23405421  0.04350532  1  -0.075803  0  -0.10233  -0.09213  0  4.069703  0
C  C136  1  0.47732455  0.25616694  0.98669060  1  -0.021032  0  -0.098355  -0.143123  0  3.996603  0
C  C137  1  0.37972144  0.31986402  0.66536079  1  -0.010015  0  -0.004814  0.082537  0  3.99309  0
C  C138  1  0.92740033  0.01893252  0.25993422  1  0.427566  0  0.012039  -0.044842  0  3.973004  0
C  C139  1  0.36481442  0.38125718  0.65894491  1  -0.048412  0  -0.090496  -0.134924  0  3.973929  0
C  C140  1  0.33424662  0.38196836  0.58578137  1  -0.037977  0  -0.09543  -0.086122  0  4.048972  0
C  C141  1  0.31904836  0.32174127  0.51818601  1  -0.053245  0  -0.100346  -0.10335  0  4.058133  0
C  C142  1  0.33511789  0.26104758  0.52427256  1  -0.060929  0  -0.100351  -0.097496  0  4.065303  0
C  C143  1  0.36500242  0.25990278  0.59715550  1  -0.09837  0  -0.090513  -0.137178  0  3.979143  0
C  C144  1  0.76179815  0.06914176  0.41455922  1  0.031155  0  -0.009381  0.048398  0  4.038683  0
C  C145  1  0.75714441  0.13925980  0.43730142  1  -0.077335  0  -0.084254  -0.119276  0  3.954708  0
C  C146  1  0.72037101  0.15977731  0.38078232  1  -0.004794  0  -0.090125  -0.079513  0  4.032559  0
C  C147  1  0.68758328  0.11086673  0.30080716  1  -0.086997  0  -0.094495  -0.090795  0  4.031705  0
C  C148  1  0.69152752  0.04087639  0.27758909  1  -0.013726  0  -0.095178  -0.084266  0  4.053708  0
C  C149  1  0.04858858  0.03292435  0.30588865  1  0.409083  0  -0.000635  -0.059537  0  3.996412  0
C  C150  1  0.72800526  0.01993655  0.33385659  1  -0.081126  0  -0.096722  -0.141907  0  3.996093  0
C  C151  1  0.12832612  0.18109390  0.03540471  1  0.001201  0  -0.010672  0.073001  0  4.00512  0
C  C152  1  0.17901584  0.26358857  0.07436385  1  0.020641  0  -0.092339  -0.131197  0  3.967493  0
C  C153  1  0.25506781  0.29638136  0.13543186  1  -0.177629  0  -0.095687  -0.083905  0  4.050402  0
C  C154  1  0.28176485  0.24749703  0.15873542  1  -0.134424  0  -0.101374  -0.102912  0  4.05649  0
C  C155  1  0.23183955  0.16538256  0.12038979  1  0.018367  0  -0.098322  -0.087847  0  4.058958  0
C  C156  1  0.15583593  0.13249604  0.05918112  1  -0.014403  0  -0.093421  -0.135015  0  3.985279  0
N  N157  1  0.92406812  0.92483920  0.62944620  1  -0.794351  0  -0.284027  -0.18397  0  3.555924  0
N  N158  1  0.58372127  0.44789764  0.93609284  1  -0.482254  0  -0.162598  -0.151789  0  3.265368  0
N  N159  1  0.00547295  0.23425813  0.02874948  1  -0.432876  0  -0.139308  -0.117945  0  3.327074  0
N  N160  1  0.06245256  0.14892739  0.47264904  1  -0.804378  0  -0.287256  -0.173036  0  3.668992  0
N  N161  1  0.03040824  0.24684630  0.09959332  1  -0.402484  0  -0.131647  -0.106977  0  3.328345  0
N  N162  1  0.16347132  0.08447150  0.65621122  1  -0.836719  0  -0.296485  -0.175731  0  3.716963  0
N  N163  1  0.83758348  0.00460750  0.45811602  1  -0.788543  0  -0.282745  -0.227064  0  3.589679  0
N  N164  1  0.15127667  0.12443248  0.61182504  1  -0.746386  0  -0.264954  -0.229752  0  3.391378  0
N  N165  1  0.87034046  0.99338407  0.52272997  1  -0.800883  0  -0.274201  -0.206032  0  3.549861  0
N  N166  1  0.98513214  0.12167788  0.46132593  1  -0.766082  0  -0.266811  -0.213733  0  3.466171  0
N  N167  1  0.00194794  0.98267278  0.66000560  1  -0.814787  0  -0.284286  -0.208324  0  3.5967  0
N  N168  1  0.15779379  0.01715956  0.48404411  1  -0.819183  0  -0.296117  -0.179237  0  3.700461  0
N  N169  1  0.81142625  0.83365910  0.39773557  1  -0.802276  0  -0.285957  -0.180936  0  3.579626  0
N  N170  1  0.02726596  0.86358267  0.56344692  1  -0.809493  0  -0.297833  -0.196151  0  3.659985  0
N  N171  1  0.93778083  0.99526402  0.31777938  1  -0.814694  0  -0.288834  -0.175825  0  3.652069  0
N  N172  1  0.01265550  0.00333512  0.34685830  1  -0.767543  0  -0.274538  -0.23418  0  3.439795  0
N  N173  1  0.95736644  0.84242058  0.50169401  1  -0.79932  0  -0.270515  -0.208065  0  3.535654  0
N  N174  1  0.85245085  0.87381895  0.36457511  1  -0.818116  0  -0.276912  -0.21021  0  3.543787  0
N  N175  1  0.14183799  0.96626400  0.51813331  1  -0.735228  0  -0.260902  -0.234537  0  3.363024  0
N  N176  1  0.58824122  0.45248101  0.00291506  1  -0.494489  0  -0.151102  -0.130193  0  3.333193  0
F  F177  1  0.92725658  0.42037396  0.47377582  1  -0.640496  0  -0.132833  -0.190606  0  1.271337  0
F  F178  1  0.94492882  0.37418140  0.25024446  1  -0.63342  0  -0.130421  -0.18638  0  1.273292  0
F  F179  1  0.78646954  0.73146142  0.13276143  1  -0.639106  0  -0.107034  -0.150967  0  1.326303  0
