# generated using pymatgen
data_NdH27C28NO12
_symmetry_space_group_name_H-M   'P 1'
_cell_length_a   10.80570500
_cell_length_b   11.61318690
_cell_length_c   13.79300000
_cell_angle_alpha   95.37850052
_cell_angle_beta   103.36184512
_cell_angle_gamma   108.39059379
_symmetry_Int_Tables_number   1
_chemical_formula_structural   NdH27C28NO12
_chemical_formula_sum   'Nd2 H54 C56 N2 O24'
_cell_volume   1571.75724267
_cell_formula_units_Z   2
loop_
 _symmetry_equiv_pos_site_id
 _symmetry_equiv_pos_as_xyz
  1  'x, y, z'
loop_
 _atom_site_type_symbol
 _atom_site_label
 _atom_site_symmetry_multiplicity
 _atom_site_fract_x
 _atom_site_fract_y
 _atom_site_fract_z
 _atom_site_occupancy
 _atom_site_hle17_bader_spin_density
 _atom_site_hle17_ddec_charge
 _atom_site_hle17_ddec_spin_density
 _atom_site_hle17_ddec_sum_bond_order
 _atom_site_hle17_magmom
 _atom_site_hse06_10hf_bader_spin_density
 _atom_site_hse06_10hf_ddec_charge
 _atom_site_hse06_10hf_ddec_spin_density
 _atom_site_hse06_10hf_ddec_sum_bond_order
 _atom_site_hse06_10hf_magmom
 _atom_site_hse06_bader_spin_density
 _atom_site_hse06_ddec_charge
 _atom_site_hse06_ddec_spin_density
 _atom_site_hse06_ddec_sum_bond_order
 _atom_site_hse06_magmom
 _atom_site_pbe_bader_charge
 _atom_site_pbe_bader_spin_density
 _atom_site_pbe_cm5_charge
 _atom_site_pbe_ddec_charge
 _atom_site_pbe_ddec_spin_density
 _atom_site_pbe_ddec_sum_bond_order
 _atom_site_pbe_magmom
Nd  Nd0  1  0.79935976  0.47050991  0.56490308  1  0  2.282187  0  1.677565  0  0  2.122271  0  2.153947  0  0  2.21598  0  2.011465  0  2.250643  0  1.498971  2.088257  0  2.192004  0
Nd  Nd1  1  0.20063930  0.52948913  0.43509580  1  0  2.282157  0  1.677553  0  0  2.12227  0  2.15388  0  0  2.215949  0  2.011459  0  2.250709  0  1.498944  2.08824  0  2.191972  0
H  H2  1  0.49274991  0.23751576  0.53237979  1  0  0.413059  0  0.846923  0  0  0.386569  0  0.919689  0  0  0.399225  0  0.905059  0  0.66203  0  0.31913  0.377597  0  0.930114  0
H  H3  1  0.50724203  0.76247959  0.46761968  1  0  0.413036  0  0.84698  0  0  0.386548  0  0.919735  0  0  0.399206  0  0.905104  0  0.662328  0  0.319121  0.377575  0  0.930162  0
H  H4  1  0.51707761  0.43700242  0.20981502  1  0  0.065172  0  0.970686  0  0  0.083072  0  1.035855  0  0  0.082425  0  1.03775  0  0.045787  0  0.104443  0.083478  0  1.034467  0
H  H5  1  0.48292180  0.56299754  0.79018690  1  0  0.06518  0  0.970653  0  0  0.083079  0  1.035827  0  0  0.082434  0  1.03772  0  0.045795  0  0.104439  0.083486  0  1.034439  0
H  H6  1  0.38630321  0.40472751  0.27141200  1  0  0.066936  0  0.954479  0  0  0.081797  0  1.021223  0  0  0.081427  0  1.022417  0  0.068107  0  0.103144  0.081866  0  1.020744  0
H  H7  1  0.61369455  0.59527061  0.72858802  1  0  0.066927  0  0.954505  0  0  0.081808  0  1.021233  0  0  0.08144  0  1.022424  0  0.067992  0  0.103153  0.081877  0  1.020754  0
H  H8  1  0.30834369  0.47625302  0.11973211  1  0  0.044168  0  0.950794  0  0  0.059105  0  1.019995  0  0  0.057927  0  1.020674  0  0.072045  0  0.096403  0.059928  0  1.019523  0
H  H9  1  0.69165526  0.52374325  0.88026726  1  0  0.044124  0  0.950783  0  0  0.059036  0  1.020026  0  0  0.057858  0  1.020706  0  0.071995  0  0.096379  0.059863  0  1.01955  0
H  H10  1  0.21570308  0.31400756  0.09889069  1  0  0.060328  0  0.952195  0  0  0.071262  0  1.02488  0  0  0.071191  0  1.024934  0  0.056345  0  0.101818  0.071367  0  1.02466  0
H  H11  1  0.78429658  0.68599056  0.90110823  1  0  0.060324  0  0.952176  0  0  0.071274  0  1.024839  0  0  0.0712  0  1.024897  0  0.056362  0  0.101827  0.071379  0  1.024621  0
H  H12  1  0.13062531  0.41025843  0.97744855  1  0  0.099721  0  0.979607  0  0  0.111785  0  1.03882  0  0  0.114544  0  1.038214  0  0.057135  0  0.099838  0.109699  0  1.039563  0
H  H13  1  0.86938277  0.58974430  0.02255661  1  0  0.0997  0  0.979698  0  0  0.111844  0  1.038798  0  0  0.114611  0  1.038195  0  0.057022  0  0.099877  0.109758  0  1.039543  0
H  H14  1  0.02164728  0.43241900  0.80351564  1  0  0.102787  0  0.953101  0  0  0.111335  0  1.017138  0  0  0.114644  0  1.014528  0  0.105197  0  0.107707  0.1089  0  1.019084  0
H  H15  1  0.97835771  0.56758557  0.19648983  1  0  0.102716  0  0.953205  0  0  0.111268  0  1.017235  0  0  0.114574  0  1.014625  0  0.105144  0  0.107681  0.108833  0  1.019181  0
H  H16  1  0.44373003  0.32986131  0.86967053  1  0  0.101812  0  0.99518  0  0  0.110778  0  1.060535  0  0  0.112674  0  1.062515  0  0.069305  0  0.098532  0.109467  0  1.059191  0
H  H17  1  0.55626928  0.67013588  0.13032752  1  0  0.101846  0  0.995164  0  0  0.1108  0  1.06053  0  0  0.112698  0  1.062506  0  0.069328  0  0.098548  0.109491  0  1.059187  0
H  H18  1  0.33184054  0.35059095  0.69497795  1  0  0.103776  0  0.937787  0  0  0.113959  0  0.995432  0  0  0.117277  0  0.992525  0  0.073227  0  0.107119  0.111554  0  0.997463  0
H  H19  1  0.66815626  0.64940717  0.30502191  1  0  0.103752  0  0.937819  0  0  0.113943  0  0.995453  0  0  0.117263  0  0.992543  0  0.073182  0  0.10711  0.111538  0  0.997482  0
H  H20  1  0.62153427  0.30594229  0.29169006  1  0  0.036378  0  0.963552  0  0  0.054498  0  1.032757  0  0  0.054152  0  1.032739  0  0.002941  0  0.100361  0.054447  0  1.033124  0
H  H21  1  0.37846751  0.69406137  0.70831113  1  0  0.03636  0  0.963591  0  0  0.054481  0  1.032781  0  0  0.054127  0  1.032769  0  0.002969  0  0.100366  0.054431  0  1.033147  0
H  H22  1  0.53989926  0.14418487  0.24015948  1  0  0.063888  0  0.939243  0  0  0.084138  0  1.000963  0  0  0.083697  0  1.001785  0  0.027203  0  0.107773  0.084195  0  1.000624  0
H  H23  1  0.46010632  0.85581878  0.75984023  1  0  0.063834  0  0.939241  0  0  0.084117  0  1.000927  0  0  0.083664  0  1.001761  0  0.027183  0  0.107743  0.084172  0  1.000593  0
H  H24  1  0.62177399  0.34850037  0.11754198  1  0  0.064966  0  0.940136  0  0  0.076559  0  1.010046  0  0  0.076296  0  1.010877  0  0.092586  0  0.106434  0.076768  0  1.009489  0
H  H25  1  0.37822518  0.65150144  0.88245786  1  0  0.06503  0  0.940118  0  0  0.076608  0  1.010036  0  0  0.076352  0  1.010859  0  0.092616  0  0.106449  0.076817  0  1.009478  0
H  H26  1  0.72119405  0.25673050  0.16237594  1  0  0.050861  0  0.935947  0  0  0.064886  0  1.001599  0  0  0.063417  0  1.003515  0  0.059442  0  0.097987  0.066433  0  0.999368  0
H  H27  1  0.27880879  0.74327592  0.83762421  1  0  0.050855  0  0.935954  0  0  0.06488  0  1.001606  0  0  0.063412  0  1.003521  0  0.059431  0  0.097966  0.066426  0  0.999375  0
H  H28  1  0.74348244  0.33997104  0.01323440  1  0  0.104021  0  0.982072  0  0  0.11229  0  1.048577  0  0  0.114707  0  1.04909  0  0.069246  0  0.102684  0.110552  0  1.048314  0
H  H29  1  0.25652018  0.66002985  0.98676599  1  0  0.104015  0  0.982093  0  0  0.112284  0  1.048586  0  0  0.114698  0  1.049103  0  0.069271  0  0.102671  0.11055  0  1.048318  0
H  H30  1  0.76332055  0.36193510  0.83958030  1  0  0.10835  0  0.936321  0  0  0.12024  0  0.992818  0  0  0.123448  0  0.989795  0  0.093268  0  0.113165  0.117941  0  0.994857  0
H  H31  1  0.23667685  0.63806210  0.16041887  1  0  0.108341  0  0.936289  0  0  0.120231  0  0.992797  0  0  0.123434  0  0.989774  0  0.093266  0  0.113173  0.117932  0  0.994835  0
H  H32  1  0.37650766  0.02472629  0.88790188  1  0  0.117385  0  0.958815  0  0  0.125157  0  1.021615  0  0  0.128571  0  1.020903  0  0.083494  0  0.106919  0.122665  0  1.022358  0
H  H33  1  0.62349651  0.97527367  0.11210236  1  0  0.117347  0  0.958852  0  0  0.125144  0  1.021608  0  0  0.128556  0  1.020904  0  0.083455  0  0.106947  0.122654  0  1.022349  0
H  H34  1  0.38989124  0.05529349  0.71314190  1  0  0.102937  0  0.930472  0  0  0.11582  0  0.984387  0  0  0.118729  0  0.982189  0  0.061399  0  0.109798  0.113596  0  0.986183  0
H  H35  1  0.61010651  0.94470463  0.28686175  1  0  0.102942  0  0.930442  0  0  0.115825  0  0.984363  0  0  0.118735  0  0.982162  0  0.061416  0  0.109809  0.113588  0  0.986175  0
H  H36  1  0.34899917  0.14424207  0.31070734  1  0  0.056664  0  0.910899  0  0  0.071935  0  0.9733  0  0  0.072842  0  0.971671  0  0.012294  0  0.095688  0.071351  0  0.974345  0
H  H37  1  0.65100144  0.85575604  0.68929320  1  0  0.056678  0  0.910901  0  0  0.071954  0  0.973306  0  0  0.072854  0  0.971674  0  0.012318  0  0.095698  0.071369  0  0.97435  0
H  H38  1  0.23541695  0.20442713  0.23826970  1  0  0.078546  0  0.934682  0  0  0.095427  0  0.997442  0  0  0.094897  0  0.99905  0  0.084604  0  0.112592  0.096111  0  0.995584  0
H  H39  1  0.76458271  0.79557099  0.76172995  1  0  0.078553  0  0.934694  0  0  0.095444  0  0.997447  0  0  0.094908  0  0.999053  0  0.0846  0  0.112593  0.096125  0  0.995589  0
H  H40  1  0.31632902  0.99120862  0.15730411  1  0  0.049676  0  0.945884  0  0  0.062411  0  1.017428  0  0  0.061245  0  1.019552  0  0.056564  0  0.096731  0.06312  0  1.016033  0
H  H41  1  0.68367289  0.00879042  0.84269384  1  0  0.049645  0  0.945863  0  0  0.062437  0  1.017377  0  0  0.061244  0  1.019528  0  0.056658  0  0.096729  0.063144  0  1.015982  0
H  H42  1  0.16047551  0.98160263  0.18676152  1  0  0.04944  0  0.924894  0  0  0.066785  0  0.985428  0  0  0.066314  0  0.985369  0  0.054999  0  0.100484  0.06702  0  0.985494  0
H  H43  1  0.83952700  0.01839549  0.81323501  1  0  0.049444  0  0.924908  0  0  0.066781  0  0.985462  0  0  0.066308  0  0.985404  0  0.054787  0  0.100502  0.067015  0  0.985527  0
H  H44  1  0.10808472  0.82145790  0.07264297  1  0  0.102995  0  0.969572  0  0  0.114279  0  1.029887  0  0  0.116871  0  1.029844  0  0.061943  0  0.102609  0.112476  0  1.029916  0
H  H45  1  0.89191054  0.17854114  0.92735233  1  0  0.103035  0  0.969523  0  0  0.114235  0  1.029925  0  0  0.116844  0  1.029863  0  0.061896  0  0.102604  0.112435  0  1.029948  0
H  H46  1  0.00493161  0.65477202  0.92155827  1  0  0.087568  0  0.951492  0  0  0.101067  0  1.008675  0  0  0.10378  0  1.006258  0  0.083895  0  0.101904  0.099039  0  1.010433  0
H  H47  1  0.99506150  0.34522887  0.07843751  1  0  0.087649  0  0.95163  0  0  0.101181  0  1.008729  0  0  0.103892  0  1.006317  0  0.083887  0  0.101946  0.099154  0  1.010487  0
H  H48  1  0.15652592  0.09223946  0.87732070  1  0  0.115852  0  0.942591  0  0  0.126016  0  1.001318  0  0  0.129074  0  1.000928  0  0.085486  0  0.107037  0.12393  0  1.001581  0
H  H49  1  0.84348181  0.90776235  0.12267852  1  0  0.115965  0  0.942478  0  0  0.126103  0  1.001228  0  0  0.129163  0  1.000835  0  0.085507  0  0.107074  0.124016  0  1.001491  0
H  H50  1  0.05818564  0.92167221  0.72552713  1  0  0.104138  0  0.927385  0  0  0.11768  0  0.978861  0  0  0.120864  0  0.976724  0  0.088652  0  0.109498  0.115312  0  0.98038  0
H  H51  1  0.94181578  0.07833052  0.27447030  1  0  0.104186  0  0.927286  0  0  0.117698  0  0.978794  0  0  0.120897  0  0.97664  0  0.088726  0  0.109512  0.115328  0  0.980316  0
H  H52  1  0.88344858  0.29700333  0.41711466  1  0  0.456437  0  0.826728  0  0  0.42632  0  0.887534  0  0  0.437472  0  0.871209  0  0.650642  0  0.309473  0.418471  0  0.899153  0
H  H53  1  0.11654797  0.70299663  0.58288311  1  0  0.456439  0  0.826721  0  0  0.426342  0  0.88749  0  0  0.437494  0  0.871167  0  0.65061  0  0.309496  0.418496  0  0.899103  0
H  H54  1  0.72518322  0.25650908  0.38149874  1  0  0.405006  0  0.878788  0  0  0.381907  0  0.938645  0  0  0.391332  0  0.924799  0  0.594577  0  0.303954  0.375211  0  0.948646  0
H  H55  1  0.27481405  0.74349273  0.61850149  1  0  0.40503  0  0.878717  0  0  0.381929  0  0.938602  0  0  0.391353  0  0.924758  0  0.594592  0  0.30397  0.375232  0  0.948604  0
C  C56  1  0.41526292  0.37326910  0.20479733  1  0  -0.036732  0  3.704072  0  0  -0.099643  0  3.965947  0  0  -0.095898  0  3.977471  0  0.333435  0  -0.070008  -0.101966  0  3.957775  0
C  C57  1  0.58473614  0.62672995  0.79520300  1  0  -0.036698  0  3.703906  0  0  -0.099626  0  3.965793  0  0  -0.095882  0  3.977314  0  0.333556  0  -0.069993  -0.101948  0  3.957624  0
C  C58  1  0.31679236  0.38401356  0.11146270  1  0  0.080566  0  3.619874  0  0  0.013345  0  3.900499  0  0  0.022611  0  3.904311  0  0.368631  0  -0.069265  0.006934  0  3.897816  0
C  C59  1  0.68320729  0.61598456  0.88853840  1  0  0.080653  0  3.619725  0  0  0.01343  0  3.900366  0  0  0.022697  0  3.904173  0  0.368659  0  -0.069248  0.007013  0  3.897691  0
C  C60  1  0.29643241  0.37139347  0.93442140  1  0  0.298038  0  3.799688  0  0  0.284534  0  4.061038  0  0  0.300143  0  4.072955  0  0.450321  0  0.09166  0.27387  0  4.052972  0
C  C61  1  0.70357151  0.62860834  0.06558003  1  0  0.297996  0  3.799634  0  0  0.284488  0  4.061005  0  0  0.300093  0  4.072925  0  0.45037  0  0.091644  0.273837  0  4.052921  0
C  C62  1  0.17508094  0.39726285  0.91593896  1  0  -0.230087  0  3.785111  0  0  -0.24608  0  4.037089  0  0  -0.254711  0  4.057909  0  -0.01107  0  -0.117126  -0.240429  0  4.023059  0
C  C63  1  0.82492287  0.60273619  0.08406296  1  0  -0.230058  0  3.785057  0  0  -0.246113  0  4.037008  0  0  -0.254759  0  4.057838  0  -0.010991  0  -0.117117  -0.240466  0  4.022975  0
C  C64  1  0.11356538  0.40884595  0.81848896  1  0  -0.045137  0  3.760375  0  0  -0.067032  0  4.006003  0  0  -0.062976  0  4.024936  0  -0.07056  0  -0.08372  -0.069151  0  3.992367  0
C  C65  1  0.88643735  0.59115771  0.18151530  1  0  -0.045078  0  3.760408  0  0  -0.066955  0  4.006061  0  0  -0.062896  0  4.024995  0  -0.070497  0  -0.083731  -0.069074  0  3.992425  0
C  C66  1  0.35103124  0.35147940  0.85387087  1  0  -0.187541  0  3.752605  0  0  -0.209762  0  4.009313  0  0  -0.216509  0  4.028175  0  -0.022003  0  -0.106342  -0.205315  0  3.996429  0
C  C67  1  0.64897032  0.64851871  0.14612912  1  0  -0.187573  0  3.75256  0  0  -0.209791  0  4.009275  0  0  -0.216538  0  4.028134  0  -0.022021  0  -0.106378  -0.205351  0  3.99639  0
C  C68  1  0.28923106  0.36351918  0.75774230  1  0  -0.043602  0  3.770189  0  0  -0.065072  0  4.016038  0  0  -0.060947  0  4.033673  0  -0.015488  0  -0.082964  -0.067376  0  4.003615  0
C  C69  1  0.71076966  0.63648170  0.24225993  1  0  -0.043606  0  3.770184  0  0  -0.065057  0  4.016029  0  0  -0.060932  0  4.033662  0  -0.015449  0  -0.082953  -0.067361  0  4.003606  0
C  C70  1  0.17167524  0.39524146  0.73924823  1  0  -0.117887  0  3.794465  0  0  -0.097408  0  4.028291  0  0  -0.109132  0  4.051563  0  -0.006078  0  -0.035897  -0.089736  0  4.011787  0
C  C71  1  0.82832548  0.60475943  0.26075400  1  0  -0.117831  0  3.794478  0  0  -0.097391  0  4.028373  0  0  -0.109113  0  4.051644  0  -0.006086  0  -0.035873  -0.089718  0  4.011867  0
C  C72  1  0.11911160  0.42415722  0.63913692  1  0  0.735242  0  3.876401  0  0  0.68974  0  4.162711  0  0  0.726556  0  4.153444  0  1.53824  0  0.23548  0.664861  0  4.170412  0
C  C73  1  0.88088450  0.57583905  0.36086411  1  0  0.735324  0  3.876575  0  0  0.689786  0  4.162953  0  0  0.726601  0  4.15369  0  1.537875  0  0.235464  0.664906  0  4.170654  0
C  C74  1  0.54983974  0.23723160  0.22407162  1  0  -0.024204  0  3.730732  0  0  -0.090949  0  3.998622  0  0  -0.086706  0  4.010006  0  0.381524  0  -0.05913  -0.093338  0  3.990575  0
C  C75  1  0.45016359  0.76277113  0.77592905  1  0  -0.024126  0  3.730756  0  0  -0.090884  0  3.99865  0  0  -0.08663  0  4.010037  0  0.381501  0  -0.059114  -0.093278  0  3.990604  0
C  C76  1  0.61711459  0.25847051  0.13862817  1  0  0.075452  0  3.597556  0  0  0.012015  0  3.875246  0  0  0.020389  0  3.880889  0  0.354393  0  -0.064787  0.005843  0  3.871215  0
C  C77  1  0.38288754  0.74153407  0.86137316  1  0  0.075372  0  3.597561  0  0  0.011917  0  3.875239  0  0  0.020287  0  3.880876  0  0.354479  0  -0.064782  0.005744  0  3.871209  0
C  C78  1  0.55780319  0.18022948  0.96117277  1  0  0.316762  0  3.760424  0  0  0.300284  0  4.024274  0  0  0.316993  0  4.034562  0  0.462529  0  0.104858  0.28888  0  4.017344  0
C  C79  1  0.44220584  0.81977325  0.03882966  1  0  0.316645  0  3.760489  0  0  0.300283  0  4.024118  0  0  0.316995  0  4.034404  0  0.462579  0  0.104871  0.288876  0  4.017192  0
C  C80  1  0.66755255  0.27594248  0.94817598  1  0  -0.212733  0  3.770596  0  0  -0.232458  0  4.027951  0  0  -0.240761  0  4.04783  0  -0.015207  0  -0.106684  -0.227039  0  4.014685  0
C  C81  1  0.33244923  0.72406117  0.05182376  1  0  -0.212699  0  3.770642  0  0  -0.232466  0  4.027938  0  0  -0.240768  0  4.047816  0  -0.015208  0  -0.106682  -0.227048  0  4.014668  0
C  C82  1  0.67866523  0.28858287  0.85120725  1  0  -0.037872  0  3.748542  0  0  -0.061578  0  3.997029  0  0  -0.056701  0  4.014679  0  -0.069541  0  -0.076467  -0.064274  0  3.984445  0
C  C83  1  0.32133704  0.71141710  0.14879156  1  0  -0.037876  0  3.748568  0  0  -0.061606  0  3.997078  0  0  -0.056723  0  4.014721  0  -0.069551  0  -0.076478  -0.064302  0  3.984497  0
C  C84  1  0.46054414  0.09788570  0.87588159  1  0  -0.172052  0  3.710785  0  0  -0.198267  0  3.978292  0  0  -0.204241  0  3.994204  0  0.03161  0  -0.095016  -0.194522  0  3.967875  0
C  C85  1  0.53945753  0.90211519  0.12412154  1  0  -0.172048  0  3.710824  0  0  -0.198327  0  3.978292  0  0  -0.204306  0  3.994205  0  0.031612  0  -0.095069  -0.194582  0  3.967869  0
C  C86  1  0.46911992  0.11483457  0.77921989  1  0  -0.047081  0  3.755352  0  0  -0.073953  0  4.012348  0  0  -0.069874  0  4.031234  0  -0.019198  0  -0.080001  -0.07626  0  3.999509  0
C  C87  1  0.53088295  0.88516447  0.22078258  1  0  -0.047023  0  3.755236  0  0  -0.073909  0  4.012233  0  0  -0.069831  0  4.031123  0  -0.019315  0  -0.079997  -0.076205  0  3.999398  0
C  C88  1  0.57883286  0.21049222  0.76561329  1  0  -0.127261  0  3.817771  0  0  -0.108074  0  4.059151  0  0  -0.121562  0  4.084774  0  0.037296  0  -0.034831  -0.099173  0  4.04118  0
C  C89  1  0.42116239  0.78950682  0.23438781  1  0  -0.127195  0  3.8177  0  0  -0.107967  0  4.059035  0  0  -0.121455  0  4.08466  0  0.037418  0  -0.034788  -0.099071  0  4.041071  0
C  C90  1  0.59019510  0.23977702  0.66628914  1  0  0.690006  0  3.798131  0  0  0.644278  0  4.087635  0  0  0.68011  0  4.078901  0  1.461516  0  0.247819  0.620145  0  4.093665  0
C  C91  1  0.40980502  0.76022479  0.33371088  1  0  0.689869  0  3.798233  0  0  0.644106  0  4.087764  0  0  0.679938  0  4.079031  0  1.461807  0  0.247735  0.619973  0  4.093791  0
C  C92  1  0.31261384  0.16286452  0.23377558  1  0  -0.022535  0  3.706252  0  0  -0.083412  0  3.973515  0  0  -0.07914  0  3.984372  0  0.331727  0  -0.063094  -0.08632  0  3.965724  0
C  C93  1  0.68738582  0.83713360  0.76622479  1  0  -0.022569  0  3.706326  0  0  -0.083469  0  3.973671  0  0  -0.079166  0  3.984483  0  0.331629  0  -0.063116  -0.086371  0  3.965869  0
C  C94  1  0.24466930  0.04014920  0.16121241  1  0  0.076692  0  3.626324  0  0  0.009285  0  3.906354  0  0  0.01777  0  3.912282  0  0.392285  0  -0.065905  0.003615  0  3.902231  0
C  C95  1  0.75533391  0.95985076  0.83878585  1  0  0.076759  0  3.626216  0  0  0.009288  0  3.906324  0  0  0.017782  0  3.912252  0  0.392506  0  -0.065914  0.003622  0  3.902194  0
C  C96  1  0.13893620  0.96789943  0.98413739  1  0  0.299522  0  3.786414  0  0  0.284113  0  4.051006  0  0  0.299386  0  4.063455  0  0.497028  0  0.093537  0.273689  0  4.04285  0
C  C97  1  0.86106737  0.03210146  0.01586029  1  0  0.299447  0  3.786425  0  0  0.284022  0  4.051002  0  0  0.299291  0  4.063456  0  0.497444  0  0.093482  0.273597  0  4.042847  0
C  C98  1  0.09696172  0.84445065  0.99723752  1  0  -0.207367  0  3.772982  0  0  -0.228799  0  4.030896  0  0  -0.236566  0  4.051595  0  -0.029337  0  -0.110114  -0.2237  0  4.016823  0
C  C99  1  0.90303935  0.15555116  0.00275833  1  0  -0.207402  0  3.77295  0  0  -0.22877  0  4.03091  0  0  -0.23655  0  4.0516  0  -0.029491  0  -0.110149  -0.223673  0  4.016839  0
C  C100  1  0.03945209  0.75106256  0.91267713  1  0  -0.046511  0  3.788361  0  0  -0.070553  0  4.041508  0  0  -0.066462  0  4.059367  0  -0.049725  0  -0.085326  -0.07271  0  4.028178  0
C  C101  1  0.96054458  0.24894017  0.08732016  1  0  -0.046716  0  3.788478  0  0  -0.070756  0  4.041584  0  0  -0.066664  0  4.059443  0  -0.049985  0  -0.085392  -0.072912  0  4.028257  0
C  C102  1  0.12342826  0.99566564  0.88571491  1  0  -0.180778  0  3.724583  0  0  -0.200212  0  3.982606  0  0  -0.206244  0  3.99981  0  -0.015344  0  -0.098719  -0.196441  0  3.971231  0
C  C103  1  0.87657626  0.00433524  0.11428221  1  0  -0.180882  0  3.724513  0  0  -0.200289  0  3.982529  0  0  -0.206322  0  3.999738  0  -0.014854  0  -0.098726  -0.196516  0  3.971152  0
C  C104  1  0.06947096  0.90093981  0.80192409  1  0  -0.051364  0  3.752431  0  0  -0.075584  0  4.00164  0  0  -0.07226  0  4.019875  0  -0.052739  0  -0.082756  -0.07731  0  3.988456  0
C  C105  1  0.93053141  0.09906292  0.19807351  1  0  -0.051398  0  3.752278  0  0  -0.075595  0  4.001471  0  0  -0.072284  0  4.019703  0  -0.053346  0  -0.082763  -0.077321  0  3.988287  0
C  C106  1  0.02573523  0.77702974  0.81439996  1  0  -0.109234  0  3.808223  0  0  -0.089093  0  4.050684  0  0  -0.099034  0  4.072735  0  -0.057111  0  -0.036472  -0.082126  0  4.033725  0
C  C107  1  0.97426239  0.22297300  0.18559750  1  0  -0.109103  0  3.808033  0  0  -0.088965  0  4.050481  0  0  -0.098909  0  4.072539  0  -0.056887  0  -0.036429  -0.081997  0  4.033522  0
C  C108  1  0.95832202  0.67324408  0.72740714  1  0  0.648794  0  3.93094  0  0  0.601623  0  4.225386  0  0  0.635862  0  4.221596  0  1.511304  0  0.191609  0.57801  0  4.229931  0
C  C109  1  0.04167465  0.32675865  0.27259015  1  0  0.648728  0  3.930866  0  0  0.601563  0  4.225302  0  0  0.635802  0  4.221509  0  1.511278  0  0.191578  0.577951  0  4.229842  0
C  C110  1  0.46571927  0.43092441  0.47353008  1  0  0.565499  0  3.904536  0  0  0.522014  0  4.203481  0  0  0.55151  0  4.198581  0  1.580354  0  0.223612  0.501885  0  4.209604  0
C  C111  1  0.53427922  0.56906817  0.52647037  1  0  0.565317  0  3.904605  0  0  0.521864  0  4.203533  0  0  0.551357  0  4.198631  0  1.562327  0  0.223472  0.50175  0  4.209642  0
N  N112  1  0.41825288  0.24913945  0.20202883  1  0  -0.198795  0  3.332489  0  0  -0.116634  0  3.589853  0  0  -0.13173  0  3.610048  0  -1.075042  0  -0.344905  -0.106478  0  3.575791  0
N  N113  1  0.58174653  0.75086052  0.79797164  1  0  -0.198836  0  3.332481  0  0  -0.116689  0  3.589914  0  0  -0.13179  0  3.610098  0  -1.075052  0  -0.344897  -0.106533  0  3.57585  0
O  O114  1  0.19473006  0.06488564  0.06215628  1  0  -0.270293  0  2.330318  0  0  -0.198768  0  2.570988  0  0  -0.218248  0  2.574772  0  -1.0654  0  -0.168331  -0.185145  0  2.567961  0
O  O115  1  0.80527411  0.93511433  0.93784433  1  0  -0.27027  0  2.330234  0  0  -0.198708  0  2.570926  0  0  -0.218178  0  2.574696  0  -1.065569  0  -0.168297  -0.185085  0  2.567897  0
O  O116  1  0.53722557  0.16216797  0.05236269  1  0  -0.261261  0  2.308732  0  0  -0.189003  0  2.545134  0  0  -0.208132  0  2.546977  0  -1.05892  0  -0.163785  -0.175555  0  2.54365  0
O  O117  1  0.46277906  0.83783569  0.94764119  1  0  -0.261201  0  2.308791  0  0  -0.188913  0  2.545079  0  0  -0.208045  0  2.546929  0  -1.059016  0  -0.163792  -0.175462  0  2.543593  0
O  O118  1  0.36867603  0.36493812  0.02655652  1  0  -0.268914  0  2.327745  0  0  -0.197169  0  2.567617  0  0  -0.215638  0  2.569263  0  -1.069093  0  -0.170625  -0.184161  0  2.565981  0
O  O119  1  0.63132553  0.63506000  0.97344492  1  0  -0.268937  0  2.327872  0  0  -0.197179  0  2.567723  0  0  -0.215641  0  2.569369  0  -1.069056  0  -0.170617  -0.184174  0  2.566085  0
O  O120  1  0.47736258  0.19150628  0.58961685  1  0  -0.531038  0  2.021261  0  0  -0.482239  0  2.21483  0  0  -0.502514  0  2.197421  0  -1.160808  0  -0.3226  -0.468174  0  2.226315  0
O  O121  1  0.52263007  0.80849092  0.41038363  1  0  -0.530953  0  2.021499  0  0  -0.48214  0  2.215068  0  0  -0.502416  0  2.19766  0  -1.161372  0  -0.322552  -0.468073  0  2.22655  0
O  O122  1  0.69827364  0.31020280  0.65528546  1  0  -0.685879  0  2.038432  0  0  -0.636076  0  2.280788  0  0  -0.66502  0  2.265169  0  -1.196439  0  -0.366325  -0.620769  0  2.289205  0
O  O123  1  0.30171805  0.68979439  0.34471195  1  0  -0.685899  0  2.038249  0  0  -0.636086  0  2.280601  0  0  -0.665026  0  2.264986  0  -1.196505  0  -0.366314  -0.620774  0  2.289018  0
O  O124  1  0.87774346  0.57257586  0.74202006  1  0  -0.7093  0  1.958416  0  0  -0.663305  0  2.208682  0  0  -0.69317  0  2.198173  0  -1.178115  0  -0.400826  -0.646281  0  2.215168  0
O  O125  1  0.12225381  0.42742595  0.25797727  1  0  -0.709291  0  1.958374  0  0  -0.663302  0  2.208622  0  0  -0.693163  0  2.198112  0  -1.178161  0  -0.400841  -0.646283  0  2.215117  0
O  O126  1  0.97697196  0.68378742  0.63939363  1  0  -0.716046  0  1.960527  0  0  -0.65908  0  2.186038  0  0  -0.688049  0  2.173117  0  -1.192763  0  -0.372579  -0.641912  0  2.193808  0
O  O127  1  0.02302580  0.31621070  0.36060422  1  0  -0.715993  0  1.960485  0  0  -0.65902  0  2.185985  0  0  -0.687986  0  2.173067  0  -1.192694  0  -0.372535  -0.641848  0  2.193755  0
O  O128  1  0.19772337  0.44239126  0.58145317  1  0  -0.757837  0  2.035636  0  0  -0.706954  0  2.291763  0  0  -0.738679  0  2.27604  0  -1.19427  0  -0.427826  -0.68961  0  2.300458  0
O  O129  1  0.80226677  0.55760686  0.41854403  1  0  -0.757929  0  2.035702  0  0  -0.707012  0  2.291827  0  0  -0.738742  0  2.276104  0  -1.194087  0  -0.427814  -0.68967  0  2.300522  0
O  O130  1  0.00248060  0.43413778  0.61560278  1  0  -0.774141  0  2.07648  0  0  -0.717332  0  2.340656  0  0  -0.751159  0  2.324774  0  -1.222516  0  -0.427325  -0.699732  0  2.35022  0
O  O131  1  0.99751134  0.56585757  0.38440395  1  0  -0.774146  0  2.07654  0  0  -0.717356  0  2.340792  0  0  -0.751181  0  2.324919  0  -1.222506  0  -0.427326  -0.699753  0  2.350354  0
O  O132  1  0.54365266  0.36681005  0.47987119  1  0  -0.703335  0  2.045857  0  0  -0.648455  0  2.282692  0  0  -0.678271  0  2.270566  0  -1.1832  0  -0.361759  -0.631533  0  2.289921  0
O  O133  1  0.45634273  0.63318437  0.52012232  1  0  -0.703335  0  2.045718  0  0  -0.648473  0  2.282539  0  0  -0.678287  0  2.270416  0  -1.18308  0  -0.361771  -0.63155  0  2.289762  0
O  O134  1  0.34121499  0.39317763  0.42902260  1  0  -0.623559  0  2.028117  0  0  -0.580807  0  2.268067  0  0  -0.607059  0  2.257277  0  -1.172887  0  -0.345035  -0.566601  0  2.274235  0
O  O135  1  0.65877589  0.60681495  0.57098009  1  0  -0.623526  0  2.028281  0  0  -0.580779  0  2.268222  0  0  -0.607035  0  2.257435  0  -1.172867  0  -0.344979  -0.56658  0  2.274384  0
O  O136  1  0.80225840  0.29071958  0.44163665  1  0  -0.88113  0  1.808555  0  0  -0.83675  0  1.975244  0  0  -0.858867  0  1.938857  0  -1.24344  0  -0.614171  -0.82527  0  1.998137  0
O  O137  1  0.19773993  0.70928500  0.55836182  1  0  -0.881137  0  1.808459  0  0  -0.836773  0  1.975169  0  0  -0.858885  0  1.938784  0  -1.243395  0  -0.614198  -0.825293  0  1.998064  0
