# generated using pymatgen
data_CoH24C24(NO2)4
_symmetry_space_group_name_H-M   'P 1'
_cell_length_a   8.58231755
_cell_length_b   7.24440376
_cell_length_c   11.01116051
_cell_angle_alpha   74.98626960
_cell_angle_beta   68.00743654
_cell_angle_gamma   72.60116640
_symmetry_Int_Tables_number   1
_chemical_formula_structural   CoH24C24(NO2)4
_chemical_formula_sum   'Co1 H24 C24 N4 O8'
_cell_volume   597.31801152
_cell_formula_units_Z   1
loop_
 _symmetry_equiv_pos_site_id
 _symmetry_equiv_pos_as_xyz
  1  'x, y, z'
loop_
 _atom_site_type_symbol
 _atom_site_label
 _atom_site_symmetry_multiplicity
 _atom_site_fract_x
 _atom_site_fract_y
 _atom_site_fract_z
 _atom_site_occupancy
 _atom_site_pbe_cm5_charge
 _atom_site_pbe_ddec_charge
 _atom_site_pbe_ddec_spin_density
 _atom_site_pbe_ddec_sum_bond_order
 _atom_site_pbe_magmom
Co  Co0  1  0.49999988  0.50000061  0.99999614  1  0.628922  0.714992  1.067367  2.765307  0.996
H  H1  1  0.32897488  0.90602433  0.03102270  1  0.298157  0.388322  0.000277  0.923936  0.001
H  H2  1  0.67106080  0.09397415  0.96895641  1  0.298292  0.388502  0.000277  0.923679  0.001
H  H3  1  0.50532882  0.86677588  0.91649531  1  0.279811  0.359572  -0.000263  0.997026  0.0
H  H4  1  0.49472390  0.13321693  0.08349837  1  0.279926  0.359748  -0.000263  0.996782  0.0
H  H5  1  0.95212094  0.51624147  0.16517476  1  0.116015  0.114788  -6e-05  0.990519  0.0
H  H6  1  0.04788117  0.48373598  0.83487025  1  0.115922  0.11478  -6e-05  0.990587  0.0
H  H7  1  0.97062178  0.34447843  0.06699172  1  0.122049  0.124806  -0.00021  0.983938  0.0
H  H8  1  0.02932696  0.65558969  0.93301459  1  0.122032  0.124874  -0.00021  0.983806  0.0
H  H9  1  0.84655013  0.15274652  0.59930191  1  0.112216  0.140672  -7.9e-05  0.978251  0.0
H  H10  1  0.15346736  0.84725394  0.40069560  1  0.112239  0.140755  -7.9e-05  0.978345  0.0
H  H11  1  0.66300779  0.95253647  0.59075189  1  0.105101  0.100495  -0.000109  1.011482  0.0
H  H12  1  0.33700225  0.04745531  0.40926142  1  0.105036  0.100338  -0.000109  1.011415  0.0
H  H13  1  0.63444081  0.95269017  0.36993371  1  0.099698  0.101794  2.7e-05  1.05978  0.0
H  H14  1  0.36551883  0.04731552  0.63010007  1  0.099664  0.101874  2.7e-05  1.059801  0.0
H  H15  1  0.80379258  0.13945332  0.16562299  1  0.121788  0.113748  -4.4e-05  1.007076  0.0
H  H16  1  0.19616069  0.86052816  0.83438222  1  0.1218  0.113693  -4.4e-05  1.007118  0.0
H  H17  1  0.28959488  0.36675183  0.27473304  1  0.119763  0.093496  -0.000225  1.077233  0.0
H  H18  1  0.71044484  0.63318806  0.72526830  1  0.119681  0.093476  -0.000225  1.077405  0.0
H  H19  1  0.28528414  0.35489458  0.49506893  1  0.113755  0.126227  -9e-06  1.014379  0.0
H  H20  1  0.71471452  0.64511183  0.50494268  1  0.113687  0.126224  -9e-06  1.01462  0.0
H  H21  1  0.68303599  0.68738112  0.32449530  1  0.108259  0.111853  2e-05  1.032134  0.0
H  H22  1  0.31695988  0.31266317  0.67549541  1  0.108232  0.111847  2e-05  1.032477  0.0
H  H23  1  0.65482431  0.70860359  0.10936370  1  0.116773  0.080931  1.3e-05  1.047835  0.0
H  H24  1  0.34522074  0.29137813  0.89061176  1  0.116843  0.081233  1.2e-05  1.048045  0.0
C  C25  1  0.19915722  0.31839251  0.11488382  1  0.214486  0.589763  -0.003323  4.163125  -0.002
C  C26  1  0.80079629  0.68160831  0.88512086  1  0.214548  0.590064  -0.003318  4.163596  -0.002
C  C27  1  0.00265610  0.36290931  0.15015332  1  -0.058733  -0.224154  -0.001192  3.916756  -0.001
C  C28  1  0.99734350  0.63709619  0.84984577  1  -0.058757  -0.224479  -0.001194  3.916689  -0.001
C  C29  1  0.93224718  0.25525186  0.38824783  1  0.211135  0.425387  -6.4e-05  4.142581  0.0
C  C30  1  0.06773017  0.74472165  0.61175133  1  0.211197  0.425633  -6.4e-05  4.143221  0.0
C  C31  1  0.83718982  0.14273623  0.50546022  1  -0.09921  -0.242176  -0.000454  3.966849  0.0
C  C32  1  0.16282178  0.85724953  0.49452661  1  -0.099361  -0.242469  -0.000454  3.966788  0.0
C  C33  1  0.73489459  0.03417333  0.49949495  1  -0.075829  -0.013838  -0.000226  4.014379  0.0
C  C34  1  0.26509366  0.96580059  0.50052014  1  -0.07582  -0.013663  -0.000226  4.014274  0.0
C  C35  1  0.72125052  0.02942727  0.37634030  1  -0.117497  -0.191035  -5.1e-05  4.075578  0.0
C  C36  1  0.27873692  0.97058546  0.62367498  1  -0.117452  -0.191206  -5.1e-05  4.07556  0.0
C  C37  1  0.81401548  0.13179987  0.26267685  1  0.036907  0.032208  -9e-05  3.927023  0.0
C  C38  1  0.18595245  0.86821194  0.73731868  1  0.036915  0.032449  -9e-05  3.926966  0.0
C  C39  1  0.37924557  0.43321136  0.28678556  1  0.047694  0.095805  -0.009085  3.883275  -0.005
C  C40  1  0.62078103  0.56679385  0.71321382  1  0.047651  0.095785  -0.009095  3.882936  -0.005
C  C41  1  0.37948654  0.42500615  0.41371743  1  -0.076487  -0.156979  -0.002572  3.917467  -0.001
C  C42  1  0.62052891  0.57503305  0.58627972  1  -0.076452  -0.157041  -0.002565  3.91699  -0.001
C  C43  1  0.49400303  0.50809017  0.43396321  1  0.009194  0.094405  -0.012749  3.994644  -0.007
C  C44  1  0.50597222  0.49195143  0.56601844  1  0.009024  0.09414  -0.012779  3.993497  -0.007
C  C45  1  0.59375149  0.61223496  0.31953251  1  -0.083604  -0.174021  -0.001144  3.957599  0.0
C  C46  1  0.40622346  0.38777187  0.68047118  1  -0.083531  -0.173877  -0.001139  3.957417  0.0
C  C47  1  0.58216238  0.62142356  0.19611174  1  0.039106  0.08363  -0.008311  3.93191  -0.005
C  C48  1  0.41783750  0.37855643  0.80389057  1  0.038957  0.083243  -0.008325  3.932165  -0.005
N  N49  1  0.91761429  0.23814093  0.26799899  1  -0.23887  -0.026412  -8.7e-05  3.685658  0.0
N  N50  1  0.08237874  0.76182209  0.73199885  1  -0.238973  -0.026735  -8.8e-05  3.685988  0.0
N  N51  1  0.48253472  0.52489905  0.17635654  1  -0.336192  -0.19423  -0.013486  3.599202  -0.01
N  N52  1  0.51748161  0.47507262  0.82365015  1  -0.3361  -0.194186  -0.013482  3.598415  -0.01
O  O53  1  0.38664544  0.83996706  0.95319295  1  -0.573884  -0.748244  0.027022  2.049491  0.043
O  O54  1  0.61340435  0.16002972  0.04678343  1  -0.574081  -0.748545  0.027021  2.04928  0.043
O  O55  1  0.26133406  0.47289273  0.06521157  1  -0.304875  -0.518907  -0.00572  2.425305  -0.004
O  O56  1  0.73866198  0.52713678  0.93478040  1  -0.304859  -0.518865  -0.005716  2.426246  -0.004
O  O57  1  0.28273642  0.14273188  0.12999740  1  -0.313595  -0.551984  -0.00104  2.170917  -0.001
O  O58  1  0.71726877  0.85726079  0.86999798  1  -0.313578  -0.552027  -0.001039  2.171484  -0.001
O  O59  1  0.02238550  0.36503500  0.38415135  1  -0.307462  -0.493341  -0.000434  2.152323  0.0
O  O60  1  0.97761402  0.63496949  0.61583038  1  -0.307274  -0.49314  -0.000433  2.153784  0.0
