# generated using pymatgen
data_CuH19C13SINO
_symmetry_space_group_name_H-M   'P 1'
_cell_length_a   8.16949163
_cell_length_b   10.72252376
_cell_length_c   10.90248631
_cell_angle_alpha   116.89047479
_cell_angle_beta   93.17168216
_cell_angle_gamma   94.21024366
_symmetry_Int_Tables_number   1
_chemical_formula_structural   CuH19C13SINO
_chemical_formula_sum   'Cu2 H38 C26 S2 I2 N2 O2'
_cell_volume   845.24932404
_cell_formula_units_Z   2
loop_
 _symmetry_equiv_pos_site_id
 _symmetry_equiv_pos_as_xyz
  1  'x, y, z'
loop_
 _atom_site_type_symbol
 _atom_site_label
 _atom_site_symmetry_multiplicity
 _atom_site_fract_x
 _atom_site_fract_y
 _atom_site_fract_z
 _atom_site_occupancy
 _atom_site_pbe_bader_charge
 _atom_site_pbe_bader_spin_density
 _atom_site_pbe_cm5_charge
 _atom_site_pbe_ddec_charge
 _atom_site_pbe_ddec_spin_density
 _atom_site_pbe_ddec_sum_bond_order
 _atom_site_pbe_magmom
Cu  Cu0  1  0.96897205  0.56331109  0.13289087  1  0.424173  0  0.282769  0.130853  0  2.738031  0
Cu  Cu1  1  0.03103967  0.43670465  0.86711405  1  0.423959  0  0.282793  0.130872  0  2.737898  0
H  H2  1  0.60492190  0.62088358  0.97312381  1  0.025524  0  0.075799  0.078261  0  1.040677  0
H  H3  1  0.39506932  0.37911767  0.02687580  1  0.025233  0  0.075797  0.078306  0  1.040654  0
H  H4  1  0.80767983  0.67583704  0.95733183  1  0.024713  0  0.076743  0.072655  0  1.06262  0
H  H5  1  0.19231905  0.32415784  0.04266722  1  0.024793  0  0.076727  0.072633  0  1.062653  0
H  H6  1  0.59848566  0.84420466  0.18852272  1  0.063277  0  0.093506  0.075242  0  0.973058  0
H  H7  1  0.40150908  0.15579550  0.81147657  1  0.063277  0  0.093532  0.075265  0  0.97305  0
H  H8  1  0.84895730  0.89918055  0.90580188  1  0.021404  0  0.083661  0.078348  0  1.007627  0
H  H9  1  0.15104585  0.10081853  0.09420100  1  0.021443  0  0.083669  0.078338  0  1.007671  0
H  H10  1  0.67437352  0.98349389  0.89767415  1  0.033039  0  0.0791  0.071167  0  1.015773  0
H  H11  1  0.32563361  0.01650721  0.10232703  1  0.033031  0  0.079074  0.071142  0  1.015772  0
H  H12  1  0.60895415  0.71996313  0.80348659  1  -0.020061  0  0.078129  0.067842  0  1.020334  0
H  H13  1  0.39105025  0.28003584  0.19651079  1  -0.020025  0  0.07812  0.067805  0  1.020395  0
H  H14  1  0.49504040  0.81439607  0.94357346  1  0.007443  0  0.077929  0.074714  0  1.024782  0
H  H15  1  0.50495911  0.18560291  0.05642187  1  0.007431  0  0.077932  0.074751  0  1.024725  0
H  H16  1  0.52461858  0.49410501  0.33752211  1  0.061415  0  0.097916  0.0651  0  1.013793  0
H  H17  1  0.47538216  0.50588559  0.66247242  1  0.061398  0  0.097924  0.065116  0  1.013848  0
H  H18  1  0.71875702  0.45835821  0.26603374  1  0.054657  0  0.095307  0.064859  0  1.029564  0
H  H19  1  0.28124721  0.54163142  0.73396696  1  0.054698  0  0.09533  0.064904  0  1.029595  0
H  H20  1  0.95580168  0.91144752  0.14510398  1  0.04029  0  0.081383  0.087386  0  1.010893  0
H  H21  1  0.04419520  0.08855060  0.85489912  1  0.040267  0  0.081396  0.087403  0  1.010852  0
H  H22  1  0.85310824  0.01212113  0.29185117  1  0.05978  0  0.083135  0.078453  0  0.997418  0
H  H23  1  0.14689079  0.98787484  0.70815019  1  0.059775  0  0.083122  0.078443  0  0.997433  0
H  H24  1  0.52234587  0.70613626  0.30473899  1  0.082779  0  0.094177  0.109131  0  0.98998  0
H  H25  1  0.47764709  0.29384274  0.69524563  1  0.082725  0  0.094206  0.109149  0  0.989931  0
H  H26  1  0.55676545  0.56044308  0.14628506  1  0.099516  0  0.092273  0.11064  0  1.034265  0
H  H27  1  0.44324280  0.43954003  0.85370477  1  0.099543  0  0.092261  0.110691  0  1.034297  0
H  H28  1  0.05661774  0.69252268  0.82878189  1  0.118394  0  0.095196  0.062404  0  1.083894  0
H  H29  1  0.94337900  0.30749938  0.17121682  1  0.118634  0  0.095144  0.062358  0  1.083876  0
H  H30  1  0.93871601  0.77809945  0.66599007  1  0.095383  0  0.11798  0.140117  0  0.98825  0
H  H31  1  0.06127127  0.22190792  0.33399914  1  0.095368  0  0.117882  0.140047  0  0.988461  0
H  H32  1  0.79037390  0.30143137  0.60889982  1  0.10743  0  0.112846  0.082247  0  0.988819  0
H  H33  1  0.20963943  0.69858784  0.39112317  1  0.107404  0  0.112843  0.082274  0  0.988666  0
H  H34  1  0.66397120  0.36646565  0.43558723  1  0.070132  0  0.112474  0.135744  0  0.994806  0
H  H35  1  0.33602717  0.63353473  0.56442608  1  0.070091  0  0.11248  0.135726  0  0.994787  0
H  H36  1  0.64647104  0.05959705  0.14629035  1  0.029869  0  0.08505  0.078749  0  0.996092  0
H  H37  1  0.35353073  0.94040098  0.85371110  1  0.029834  0  0.085036  0.078737  0  0.996075  0
H  H38  1  0.84661418  0.11416114  0.12360304  1  0.006484  0  0.080574  0.069986  0  1.045035  0
H  H39  1  0.15338774  0.88583796  0.87639979  1  0.006497  0  0.080594  0.07  0  1.045077  0
C  C40  1  0.68943283  0.71410187  0.99337969  1  -0.013615  0  -0.179501  -0.184934  0  3.921221  0
C  C41  1  0.31056176  0.28589725  0.00662007  1  -0.01341  0  -0.179471  -0.184977  0  3.9212  0
C  C42  1  0.71768223  0.81196096  0.14829638  1  -0.088849  0  -0.074639  0.02383  0  3.810345  0
C  C43  1  0.28231450  0.18803607  0.85170441  1  -0.088964  0  -0.074661  0.023854  0  3.810309  0
C  C44  1  0.72980075  0.92586773  0.94824824  1  -0.044405  0  -0.172109  -0.142662  0  3.935776  0
C  C45  1  0.27020118  0.07413133  0.05175274  1  -0.04444  0  -0.172095  -0.142644  0  3.935718  0
C  C46  1  0.62066886  0.79034479  0.91550746  1  0.014328  0  -0.172827  -0.137237  0  3.930177  0
C  C47  1  0.37933446  0.20965525  0.08449034  1  0.014344  0  -0.172833  -0.137225  0  3.930093  0
C  C48  1  0.64241731  0.54202205  0.32510173  1  0.403544  0  -0.069362  0.03832  0  3.881843  0
C  C49  1  0.35758464  0.45796853  0.67489286  1  0.403611  0  -0.06941  0.038256  0  3.882195  0
C  C50  1  0.83427917  0.94336176  0.17950117  1  -0.082585  0  -0.171197  -0.180341  0  3.93199  0
C  C51  1  0.16571757  0.05663525  0.82049870  1  -0.082487  0  -0.171207  -0.180366  0  3.932066  0
C  C52  1  0.79011844  0.58040678  0.53912850  1  0.5021  0  0.099917  0.292872  0  4.078593  0
C  C53  1  0.20988062  0.41958901  0.46086361  1  0.501743  0  0.099881  0.292832  0  4.078618  0
C  C54  1  0.60987248  0.63032194  0.25266960  1  -0.1407  0  -0.157327  -0.214259  0  3.912447  0
C  C55  1  0.39013040  0.36966649  0.74732227  1  -0.140892  0  -0.157324  -0.214283  0  3.912638  0
C  C56  1  0.96846324  0.62467931  0.73993988  1  0.417405  0  0.032246  0.09087  0  3.981286  0
C  C57  1  0.03153227  0.37533444  0.26006070  1  0.417239  0  0.032278  0.090793  0  3.980977  0
C  C58  1  0.90336012  0.67191220  0.65109012  1  0.032014  0  -0.094821  -0.239047  0  3.96705  0
C  C59  1  0.09662881  0.32809014  0.34891077  1  0.032493  0  -0.09469  -0.238837  0  3.967068  0
C  C60  1  0.82090790  0.40619840  0.61754751  1  0.470673  0  0.041819  0.110637  0  3.949498  0
C  C61  1  0.17909354  0.59381444  0.38246304  1  0.470668  0  0.041876  0.110613  0  3.949256  0
C  C62  1  0.74937939  0.44330373  0.52130934  1  -0.031894  0  -0.106652  -0.274664  0  3.985209  0
C  C63  1  0.25061594  0.55670077  0.47869919  1  -0.032043  0  -0.106652  -0.274585  0  3.98495  0
C  C64  1  0.76260271  0.02089187  0.10403663  1  -0.024912  0  -0.168805  -0.139587  0  3.939074  0
C  C65  1  0.23739938  0.97910821  0.89596296  1  -0.024865  0  -0.168801  -0.139591  0  3.939039  0
S  S66  1  0.80003851  0.72793969  0.24873937  1  -0.014061  0  -0.049186  0.00783  0  3.127414  0
S  S67  1  0.19995823  0.27205729  0.75125864  1  -0.013845  0  -0.049174  0.007848  0  3.127268  0
I  I68  1  0.78492048  0.32755982  0.94333457  1  -0.497938  0  -0.215292  -0.391149  0  1.801888  0
I  I69  1  0.21509340  0.67244536  0.05666499  1  -0.497787  0  -0.215296  -0.391151  0  1.802016  0
N  N70  1  0.92859986  0.49400427  0.72587281  1  -1.230553  0  -0.364696  -0.203307  0  3.617617  0
N  N71  1  0.07140452  0.50601154  0.27413089  1  -1.230515  0  -0.364721  -0.203283  0  3.617608  0
O  O72  1  0.72874988  0.63490155  0.45867970  1  -1.076177  0  -0.173525  -0.191094  0  2.560601  0
O  O73  1  0.27124075  0.36508708  0.54131538  1  -1.076239  0  -0.17355  -0.19119  0  2.560605  0
