# generated using pymatgen
data_CuH17C13N5O2
_symmetry_space_group_name_H-M   'P 1'
_cell_length_a   7.11342244
_cell_length_b   10.01273634
_cell_length_c   10.75726687
_cell_angle_alpha   115.34013980
_cell_angle_beta   90.00041820
_cell_angle_gamma   89.99948906
_symmetry_Int_Tables_number   1
_chemical_formula_structural   CuH17C13N5O2
_chemical_formula_sum   'Cu2 H34 C26 N10 O4'
_cell_volume   692.46441359
_cell_formula_units_Z   2
loop_
 _symmetry_equiv_pos_site_id
 _symmetry_equiv_pos_as_xyz
  1  'x, y, z'
loop_
 _atom_site_type_symbol
 _atom_site_label
 _atom_site_symmetry_multiplicity
 _atom_site_fract_x
 _atom_site_fract_y
 _atom_site_fract_z
 _atom_site_occupancy
 _atom_site_hle17_ddec_charge
 _atom_site_hle17_ddec_spin_density
 _atom_site_hle17_ddec_sum_bond_order
 _atom_site_hle17_magmom
 _atom_site_hse06_10hf_ddec_charge
 _atom_site_hse06_10hf_ddec_spin_density
 _atom_site_hse06_10hf_ddec_sum_bond_order
 _atom_site_hse06_10hf_magmom
 _atom_site_hse06_ddec_charge
 _atom_site_hse06_ddec_spin_density
 _atom_site_hse06_ddec_sum_bond_order
 _atom_site_hse06_magmom
 _atom_site_pbe_cm5_charge
 _atom_site_pbe_ddec_charge
 _atom_site_pbe_ddec_spin_density
 _atom_site_pbe_ddec_sum_bond_order
 _atom_site_pbe_magmom
Cu  Cu0  1  0.15447367  0.24751364  0.45144253  1  0.747558  -0.647417  1.92573  -0.423  0.726477  -0.747364  2.328458  -0.54  0.810756  -0.842257  2.260439  -0.631  0.753487  0.679391  -0.683139  2.375115  -0.484
Cu  Cu1  1  0.65447364  0.75247964  0.54855756  1  0.747499  0.647375  1.92558  0.423  0.726419  0.747352  2.328278  0.54  0.810731  0.842263  2.26029  0.631  0.753433  0.679329  0.683118  2.374877  0.484
H  H2  1  0.68382860  0.39520104  0.75505462  1  0.112075  0.000349  0.941984  0.001  0.125152  6.1e-05  0.996713  0.0  0.128614  6.6e-05  0.995922  0.0  0.101707  0.12279  3.4e-05  0.997371  0.0
H  H3  1  0.18383728  0.60479541  0.24494037  1  0.112005  -0.000348  0.942029  0.0  0.125091  -6.1e-05  0.996751  0.0  0.128553  -6.6e-05  0.995961  0.0  0.101672  0.122728  -3.4e-05  0.997403  0.0
H  H4  1  0.69337503  0.43191904  0.99678090  1  0.07791  -0.000618  0.991978  -0.001  0.089737  -0.000391  1.052547  0.0  0.0913  -0.000259  1.052475  0.0  0.095037  0.088636  -0.000503  1.052538  -0.001
H  H5  1  0.19338855  0.56807074  0.00321240  1  0.077861  0.000617  0.992054  0.001  0.089686  0.000391  1.052628  0.0  0.091241  0.000259  1.052566  0.0  0.09503  0.088596  0.000503  1.052617  0.001
H  H6  1  0.97464021  0.35354087  0.08981655  1  0.090722  1.1e-05  0.967642  0.0  0.1005  -2e-05  1.031335  0.0  0.103465  -2e-06  1.031207  0.0  0.095524  0.098288  -0.00012  1.031781  0.0
H  H7  1  0.47464725  0.64645415  0.91017927  1  0.090759  -1.1e-05  0.967651  0.0  0.10055  2e-05  1.03132  0.0  0.103512  2e-06  1.031195  0.0  0.095538  0.098341  0.00012  1.031771  0.0
H  H8  1  0.24864482  0.24381940  0.93599103  1  0.09282  -0.00034  0.981651  0.0  0.09899  -0.000297  1.051235  0.0  0.102677  -0.000199  1.048044  0.0  0.09957  0.096308  -0.000355  1.053586  0.0
H  H9  1  0.74864643  0.75618336  0.06401050  1  0.09283  0.000339  0.981599  0.0  0.098988  0.000298  1.051199  0.0  0.102675  0.0002  1.048008  0.0  0.099578  0.09631  0.000355  1.053542  0.0
H  H10  1  0.40395481  0.16571203  0.73251833  1  0.071695  -0.007387  0.908803  -0.008  0.086777  -0.005609  0.968042  -0.006  0.088571  -0.004328  0.963224  -0.005  0.119227  0.085212  -0.006624  0.971532  -0.006
H  H11  1  0.90395345  0.83429881  0.26748716  1  0.071739  0.007391  0.908698  0.008  0.086788  0.005611  0.967978  0.006  0.08858  0.004329  0.963163  0.005  0.119229  0.085221  0.006627  0.971475  0.006
H  H12  1  0.46641144  0.98928139  0.41812060  1  0.064309  -0.000442  0.963442  0.0  0.078762  -0.00025  1.032363  0.0  0.078249  -0.00029  1.033867  0.0  0.101734  0.07883  -0.000206  1.031658  0.0
H  H13  1  0.96640996  0.01072030  0.58188155  1  0.064266  0.000442  0.963472  0.0  0.078763  0.000251  1.03236  0.0  0.078247  0.00029  1.033866  0.0  0.101704  0.07883  0.000206  1.031655  0.0
H  H14  1  0.60557578  0.11838745  0.55319674  1  0.077812  -0.002511  0.920244  -0.003  0.095948  -0.002151  0.981399  -0.002  0.096051  -0.001672  0.981656  -0.002  0.108089  0.09561  -0.002484  0.981564  -0.002
H  H15  1  0.10557191  0.88161713  0.44680668  1  0.077836  0.002511  0.920255  0.003  0.095994  0.002151  0.981404  0.002  0.096104  0.001671  0.981652  0.002  0.108097  0.095642  0.002483  0.981588  0.002
H  H16  1  0.59047308  0.29824946  0.45728619  1  0.088879  2.2e-05  0.930459  0.0  0.10341  4.7e-05  0.993542  0.0  0.103973  5.9e-05  0.993855  0.0  0.112612  0.102897  1.6e-05  0.993383  0.0
H  H17  1  0.09048240  0.70175519  0.54271626  1  0.08887  -2.3e-05  0.930453  0.0  0.103419  -4.7e-05  0.993534  0.0  0.103982  -5.8e-05  0.993855  0.0  0.112623  0.102905  -1.6e-05  0.993369  0.0
H  H18  1  0.66339472  0.12815375  0.32418572  1  0.074182  -0.003824  0.928069  -0.005  0.090789  -0.002703  0.990564  -0.003  0.090431  -0.001918  0.991075  -0.003  0.103785  0.090904  -0.003246  0.990195  -0.004
H  H19  1  0.16339913  0.87184722  0.67581747  1  0.074105  0.003824  0.928103  0.005  0.090743  0.002704  0.990585  0.003  0.090386  0.001918  0.991101  0.003  0.10376  0.090851  0.003247  0.990217  0.004
H  H20  1  0.18461764  0.06855511  0.16284323  1  0.087053  -0.000555  0.948779  -0.001  0.099176  -0.000395  1.018934  -0.001  0.099981  -0.000217  1.017829  -0.001  0.108798  0.098416  -0.000587  1.019882  -0.001
H  H21  1  0.68461710  0.93144134  0.83715176  1  0.087046  0.000556  0.948799  0.001  0.099207  0.000395  1.018926  0.001  0.100008  0.000216  1.017827  0.001  0.108804  0.098445  0.000587  1.019869  0.001
H  H22  1  0.32901956  0.96494409  0.22442691  1  0.080134  -6.7e-05  0.940745  0.0  0.094033  -5.6e-05  1.007643  0.0  0.093309  2e-06  1.009736  0.0  0.105895  0.094446  -6e-05  1.006404  0.0
H  H23  1  0.82901569  0.03505827  0.77557206  1  0.080106  6.7e-05  0.940774  0.0  0.094036  5.7e-05  1.00764  0.0  0.093312  -3e-06  1.009734  0.0  0.1059  0.094442  6e-05  1.006406  0.0
H  H24  1  0.60361081  0.99526721  0.09505190  1  0.047012  0.000104  0.942117  0.0  0.059484  6.6e-05  1.01155  0.0  0.059843  6.7e-05  1.011017  0.0  0.095501  0.05921  2.1e-05  1.011896  0.0
H  H25  1  0.10360628  0.00473627  0.90495293  1  0.046988  -0.000104  0.942059  0.0  0.059398  -6.6e-05  1.011548  0.0  0.059753  -6.7e-05  1.011022  0.0  0.095461  0.059125  -2.1e-05  1.011904  0.0
H  H26  1  0.40929480  0.92135966  0.98229991  1  0.067311  -0.000503  0.935838  0.0  0.080971  -0.000591  1.003454  0.0  0.080504  -0.000451  1.004192  0.0  0.105213  0.081571  -0.000615  1.002237  -0.001
H  H27  1  0.90928483  0.07864121  0.01770072  1  0.067284  0.000504  0.935822  0.0  0.080931  0.000592  1.003444  0.0  0.080461  0.000451  1.004185  0.0  0.105194  0.081534  0.000615  1.002224  0.001
H  H28  1  0.53498271  0.35684984  0.10668204  1  0.064595  -0.000585  0.94337  0.0  0.081651  -0.000675  1.002962  -0.001  0.080422  -0.000478  1.004814  0.0  0.104954  0.082756  -0.000754  1.00115  -0.001
H  H29  1  0.03498821  0.64315177  0.89332172  1  0.064628  0.000584  0.943369  0.0  0.081681  0.000676  1.002944  0.001  0.080453  0.000477  1.004797  0.0  0.10495  0.082787  0.000754  1.001134  0.001
H  H30  1  0.67821154  0.25126681  0.16812997  1  0.046316  -0.000117  0.955113  0.0  0.057843  -0.000129  1.027576  0.0  0.058042  -7.4e-05  1.02765  0.0  0.095979  0.05774  -0.000228  1.027424  0.0
H  H31  1  0.17821783  0.74873520  0.83187742  1  0.046349  0.000116  0.95531  0.0  0.05789  0.000129  1.027711  0.0  0.058091  7.3e-05  1.027787  0.0  0.096033  0.057788  0.000227  1.027566  0.0
H  H32  1  0.45243973  0.41515887  0.34980625  1  0.090912  -1.9e-05  0.956695  0.0  0.100454  -4e-05  1.028258  0.0  0.100379  -5e-06  1.029767  0.0  0.109053  0.1005  -5.5e-05  1.027375  0.0
H  H33  1  0.95245981  0.58484068  0.65019312  1  0.090869  2e-05  0.956734  0.0  0.100398  4.1e-05  1.028333  0.0  0.100321  4e-06  1.029841  0.0  0.10902  0.100451  5.5e-05  1.027458  0.0
H  H34  1  0.26153993  0.33598882  0.23428010  1  0.079283  -0.000771  0.95496  -0.001  0.093416  -0.000709  1.020513  -0.001  0.09357  -0.00049  1.021361  -0.001  0.105044  0.093125  -0.000899  1.020259  -0.001
H  H35  1  0.76155184  0.66400835  0.76571462  1  0.079274  0.000772  0.955011  0.001  0.093461  0.00071  1.020502  0.001  0.093612  0.00049  1.021348  0.001  0.105078  0.093172  0.000899  1.020249  0.001
C  C36  1  0.12446443  0.25842542  0.75925843  1  -0.1334  -0.006345  3.821361  -0.008  -0.11558  -0.003203  4.061278  -0.005  -0.132518  -0.002267  4.089503  -0.004  -0.042504  -0.104635  -0.003891  4.042226  -0.005
C  C37  1  0.62446395  0.74157906  0.24074133  1  -0.133465  0.006336  3.821348  0.008  -0.115634  0.003206  4.061295  0.005  -0.132573  0.002266  4.089516  0.004  -0.04253  -0.104686  0.003894  4.042237  0.005
C  C38  1  0.96101618  0.29973447  0.70412344  1  0.335586  0.004503  3.861317  0.008  0.3264  -0.000566  4.119605  0.002  0.348772  0.000381  4.134553  0.002  0.088255  0.3116  -0.001649  4.109038  0.001
C  C39  1  0.46101436  0.70027166  0.29587581  1  0.335641  -0.004488  3.861459  -0.008  0.326377  0.000565  4.11987  -0.002  0.348749  -0.000378  4.134823  -0.002  0.088224  0.311572  0.001649  4.1093  -0.001
C  C40  1  0.80674174  0.36126105  0.79516669  1  -0.22437  -0.013363  3.737338  -0.013  -0.240827  -0.007276  3.990769  -0.008  -0.251881  -0.005514  4.010166  -0.006  -0.117716  -0.233499  -0.008224  3.977282  -0.009
C  C41  1  0.30675095  0.63873590  0.20483095  1  -0.224249  0.013346  3.737316  0.013  -0.240671  0.00728  3.990758  0.008  -0.251726  0.005513  4.010155  0.006  -0.11759  -0.23334  0.008225  3.97727  0.009
C  C42  1  0.81308811  0.38075513  0.93047139  1  -0.026472  0.004132  3.803814  0.003  -0.044095  0.000553  4.055257  0.0  -0.038473  0.000998  4.074583  0.001  -0.090127  -0.0473  0.000158  4.04165  0.0
C  C43  1  0.31309327  0.61924289  0.06952299  1  -0.0264  -0.004111  3.803629  -0.003  -0.04402  -0.000556  4.055067  0.0  -0.038392  -0.000997  4.074397  -0.001  -0.090133  -0.04724  -0.000158  4.04148  0.0
C  C44  1  0.97160168  0.33858220  0.98334833  1  -0.127547  -0.002056  3.805018  -0.002  -0.140611  0.000125  4.059313  0.0  -0.149015  1.8e-05  4.082354  0.0  -0.115867  -0.135514  0.000323  4.044289  0.0
C  C45  1  0.47160853  0.66141394  0.01664978  1  -0.127665  0.002038  3.805136  0.002  -0.140734  -0.000121  4.059419  0.0  -0.149139  -1.8e-05  4.082462  0.0  -0.115913  -0.135646  -0.000322  4.044418  0.0
C  C46  1  0.12418250  0.27814980  0.89765082  1  -0.080187  0.003944  3.780815  0.004  -0.099258  0.000968  4.029782  0.001  -0.094617  0.001216  4.049896  0.001  -0.088444  -0.102221  0.000877  4.01636  0.001
C  C47  1  0.62417653  0.72185247  0.10234712  1  -0.080152  -0.003918  3.780827  -0.004  -0.099207  -0.000969  4.029809  -0.001  -0.094569  -0.001214  4.049928  -0.001  -0.088414  -0.102166  -0.000877  4.016373  -0.001
C  C48  1  0.29044778  0.19590251  0.67960073  1  0.164375  0.014273  3.710868  0.014  0.125122  0.00438  3.963063  0.006  0.147274  0.005673  3.972571  0.007  0.075804  0.110528  0.003145  3.957137  0.004
C  C49  1  0.79045020  0.80409895  0.32040234  1  0.164378  -0.014254  3.711179  -0.014  0.125116  -0.004379  3.963366  -0.006  0.147272  -0.005667  3.97288  -0.007  0.075824  0.110519  -0.003143  3.957428  -0.004
C  C50  1  0.49048598  0.10794584  0.48115343  1  0.002323  -0.003142  3.68481  -0.002  -0.056151  -0.003423  3.953089  -0.002  -0.051704  -0.00229  3.966695  -0.001  -0.069079  -0.058553  -0.004178  3.944007  -0.003
C  C51  1  0.99048806  0.89205462  0.51884928  1  0.002354  0.003137  3.684761  0.002  -0.056222  0.003418  3.953136  0.002  -0.051773  0.002291  3.966756  0.001  -0.069068  -0.058626  0.004178  3.944045  0.003
C  C52  1  0.54461927  0.18520537  0.39156906  1  -0.035917  0.002446  3.610376  0.005  -0.093438  -0.000301  3.867124  0.002  -0.089583  0.000371  3.881217  0.002  -0.073688  -0.095487  -0.000876  3.857345  0.002
C  C53  1  0.04462085  0.81479620  0.60843565  1  -0.035734  -0.002444  3.610176  -0.005  -0.093312  0.000299  3.867065  -0.002  -0.089431  -0.000373  3.881086  -0.002  -0.073639  -0.09535  0.000875  3.857269  -0.002
C  C54  1  0.32844880  0.05588876  0.19299671  1  -0.068263  0.001561  3.625933  0.004  -0.12824  -7.2e-05  3.886051  0.002  -0.124093  0.000852  3.898134  0.003  -0.081611  -0.130813  -0.00088  3.877947  0.001
C  C55  1  0.82844917  0.94411140  0.80700231  1  -0.068289  -0.001561  3.626047  -0.004  -0.128324  7e-05  3.886152  -0.002  -0.12418  -0.000849  3.898243  -0.003  -0.081641  -0.130893  0.00088  3.878034  -0.001
C  C56  1  0.46022177  0.01959624  0.07081608  1  0.066213  -0.005449  3.642032  -0.005  0.01107  -0.00361  3.907909  -0.004  0.017765  -0.002444  3.914485  -0.003  -0.074979  0.006806  -0.004377  3.902382  -0.004
C  C57  1  0.96021600  0.98040328  0.92918518  1  0.066243  0.005449  3.641965  0.005  0.011197  0.00361  3.907836  0.004  0.01789  0.002441  3.914412  0.003  -0.074906  0.006928  0.004378  3.902308  0.004
C  C58  1  0.53321217  0.26915067  0.14192860  1  0.067363  -0.00626  3.635919  -0.006  0.012238  -0.004534  3.899944  -0.005  0.018765  -0.003186  3.906784  -0.003  -0.07721  0.007968  -0.005526  3.89437  -0.005
C  C59  1  0.03322178  0.73084985  0.85807378  1  0.067191  0.006263  3.636  0.006  0.012136  0.004533  3.899945  0.005  0.018658  0.003186  3.906787  0.003  -0.077243  0.007863  0.005526  3.894394  0.005
C  C60  1  0.40170342  0.31441658  0.26433270  1  -0.072353  0.001577  3.650112  0.004  -0.132401  -0.000517  3.909182  0.002  -0.129517  0.000438  3.92429  0.003  -0.086066  -0.133948  -0.001312  3.899046  0.001
C  C61  1  0.90171333  0.68558432  0.73566604  1  -0.072301  -0.001581  3.650134  -0.004  -0.132442  0.000511  3.909293  -0.002  -0.12955  -0.000436  3.924389  -0.003  -0.086107  -0.134009  0.001312  3.899186  -0.001
N  N62  1  0.31661325  0.17344779  0.55299000  1  -0.335417  -0.084449  3.331341  -0.097  -0.27823  -0.061743  3.641734  -0.076  -0.309237  -0.054982  3.656569  -0.071  -0.387993  -0.26116  -0.064315  3.63439  -0.076
N  N63  1  0.81661256  0.82655574  0.44700380  1  -0.335511  0.084435  3.331598  0.097  -0.278178  0.06175  3.641885  0.076  -0.30921  0.05498  3.656755  0.071  -0.387966  -0.2611  0.064325  3.634504  0.076
N  N64  1  0.37856649  0.19681569  0.31256032  1  -0.182123  -0.100116  3.250504  -0.117  -0.102829  -0.075342  3.511192  -0.095  -0.133518  -0.063316  3.539658  -0.084  -0.34469  -0.084539  -0.081346  3.49339  -0.099
N  N65  1  0.87857015  0.80318533  0.68744393  1  -0.182056  0.100107  3.250393  0.117  -0.102734  0.075341  3.511118  0.095  -0.133426  0.063307  3.539596  0.084  -0.34463  -0.084446  0.081339  3.493304  0.099
N  N66  1  0.98983291  0.28762288  0.32350896  1  -0.523544  -0.046921  2.715414  -0.055  -0.549615  -0.024519  3.051966  -0.03  -0.579092  -0.014069  3.054929  -0.019  -0.323682  -0.532983  -0.030705  3.051825  -0.035
N  N67  1  0.48983233  0.71236765  0.67648515  1  -0.52343  0.046874  2.715857  0.055  -0.549551  0.0245  3.052478  0.03  -0.579026  0.014048  3.055453  0.019  -0.323666  -0.532928  0.030685  3.052331  0.035
N  N68  1  0.89330508  0.39652353  0.36647383  1  0.385338  0.019106  4.212483  0.029  0.437609  0.000513  4.50892  0.005  0.457864  0.003199  4.53861  0.008  0.077677  0.425126  -0.002176  4.489706  0.002
N  N69  1  0.39331525  0.60347852  0.63352718  1  0.385361  -0.019128  4.21278  -0.029  0.437633  -0.000523  4.509214  -0.005  0.457883  -0.003208  4.538906  -0.008  0.077622  0.425148  0.002169  4.490003  -0.002
N  N70  1  0.79461513  0.49996403  0.40089451  1  -0.400807  -0.108149  2.470122  -0.111  -0.422458  -0.056551  2.736179  -0.06  -0.436873  -0.050386  2.74333  -0.056  -0.207891  -0.414558  -0.060168  2.732423  -0.062
N  N71  1  0.29461920  0.50002415  0.59910702  1  -0.400921  0.108239  2.469915  0.111  -0.422565  0.056582  2.735964  0.06  -0.436989  0.050414  2.743123  0.056  -0.207876  -0.414654  0.060196  2.732209  0.062
O  O72  1  0.94441036  0.28300956  0.57729283  1  -0.557231  -0.098006  2.098096  -0.12  -0.523682  -0.069423  2.3826  -0.094  -0.565955  -0.056295  2.380288  -0.08  -0.34102  -0.496576  -0.076887  2.38485  -0.1
O  O73  1  0.44441254  0.71699776  0.42270495  1  -0.557293  0.098013  2.097989  0.12  -0.523767  0.069425  2.382661  0.094  -0.566044  0.05629  2.380355  0.08  -0.341061  -0.496653  0.076891  2.38489  0.1
O  O74  1  0.46758434  0.13740165  0.02898922  1  -0.31413  -0.002661  2.190183  -0.003  -0.248579  -0.001297  2.437568  -0.002  -0.264488  -0.000374  2.43767  -0.001  -0.240383  -0.236846  -0.002494  2.436174  -0.003
O  O75  1  0.96758474  0.86260225  0.97101289  1  -0.314031  0.002661  2.190074  0.003  -0.248552  0.001298  2.437438  0.002  -0.264461  0.000377  2.437544  0.001  -0.240384  -0.236815  0.002495  2.43604  0.003
