# generated using pymatgen
data_SrH18C24(N2O5)2
_symmetry_space_group_name_H-M   'P 1'
_cell_length_a   14.71003899
_cell_length_b   14.70997348
_cell_length_c   14.71003505
_cell_angle_alpha   69.83731053
_cell_angle_beta   71.90333611
_cell_angle_gamma   110.16311450
_symmetry_Int_Tables_number   1
_chemical_formula_structural   SrH18C24(N2O5)2
_chemical_formula_sum   'Sr4 H72 C96 N16 O40'
_cell_volume   2449.23187068
_cell_formula_units_Z   4
loop_
 _symmetry_equiv_pos_site_id
 _symmetry_equiv_pos_as_xyz
  1  'x, y, z'
loop_
 _atom_site_type_symbol
 _atom_site_label
 _atom_site_symmetry_multiplicity
 _atom_site_fract_x
 _atom_site_fract_y
 _atom_site_fract_z
 _atom_site_occupancy
 _atom_site_pbe_bader_charge
 _atom_site_pbe_bader_spin_density
 _atom_site_pbe_cm5_charge
 _atom_site_pbe_ddec_charge
 _atom_site_pbe_ddec_spin_density
 _atom_site_pbe_ddec_sum_bond_order
 _atom_site_pbe_magmom
Sr  Sr0  1  0.22979804  0.74999906  0.52020347  1  1.667166  0  0.994796  1.379202  0  1.573508  0
Sr  Sr1  1  0.97979873  0.25000032  0.27020089  1  1.667034  0  0.994667  1.379232  0  1.573471  0
Sr  Sr2  1  0.77020236  0.25000105  0.47979681  1  1.667167  0  0.994808  1.379227  0  1.573473  0
Sr  Sr3  1  0.02020049  0.74999861  0.72979913  1  1.667033  0  0.994685  1.379217  0  1.573518  0
H  H4  1  0.34999034  0.28906413  0.10596639  1  0.081095  0  0.113297  0.130334  0  0.974537  0
H  H5  1  0.10497389  0.21093737  0.93907276  1  0.079191  0  0.11335  0.130324  0  0.974553  0
H  H6  1  0.56092779  0.95594631  0.15001357  1  0.088517  0  0.113274  0.130288  0  0.97459  0
H  H7  1  0.39404054  0.54405283  0.39502162  1  0.076147  0  0.11332  0.130282  0  0.974559  0
H  H8  1  0.65000895  0.71093487  0.89403573  1  0.081078  0  0.113291  0.130312  0  0.974586  0
H  H9  1  0.89502871  0.78906409  0.06092504  1  0.079188  0  0.113355  0.13033  0  0.974553  0
H  H10  1  0.43907326  0.04405031  0.84998819  1  0.088504  0  0.113278  0.130278  0  0.974597  0
H  H11  1  0.60596057  0.45594881  0.60497681  1  0.076121  0  0.113326  0.13029  0  0.974561  0
H  H12  1  0.36131677  0.98465083  0.24390765  1  0.093632  0  0.112159  0.128206  0  1.050553  0
H  H13  1  0.27143841  0.51534937  0.62333445  1  0.119794  0  0.112186  0.128244  0  1.050531  0
H  H14  1  0.87666588  0.10522300  0.13868640  1  0.1187  0  0.112194  0.128183  0  1.050592  0
H  H15  1  0.25609149  0.39477587  0.22855907  1  0.118511  0  0.112154  0.128223  0  1.050579  0
H  H16  1  0.63868295  0.01534860  0.75609332  1  0.09366  0  0.11216  0.128207  0  1.050528  0
H  H17  1  0.72855930  0.48465219  0.37666640  1  0.119797  0  0.112191  0.128237  0  1.050513  0
H  H18  1  0.12333480  0.89477489  0.86131417  1  0.118739  0  0.112174  0.128202  0  1.05053  0
H  H19  1  0.74390856  0.60522637  0.77143883  1  0.118347  0  0.112169  0.128255  0  1.050562  0
H  H20  1  0.52643762  0.25773063  0.28993989  1  0.091022  0  0.100819  0.104796  0  1.039557  0
H  H21  1  0.95232882  0.24226450  0.73129599  1  0.090212  0  0.100796  0.104766  0  1.03965  0
H  H22  1  0.76870074  0.31636941  0.97356696  1  0.109313  0  0.100714  0.104806  0  1.039625  0
H  H23  1  0.21006488  0.18362990  0.54766870  1  0.10509  0  0.100717  0.104812  0  1.039599  0
H  H24  1  0.47356167  0.74226837  0.71006223  1  0.091042  0  0.100798  0.104778  0  1.039623  0
H  H25  1  0.04766956  0.75773442  0.26870516  1  0.090217  0  0.1008  0.104794  0  1.039637  0
H  H26  1  0.23129694  0.68362799  0.02643605  1  0.109194  0  0.100688  0.104787  0  1.03959  0
H  H27  1  0.78993610  0.81637327  0.45232900  1  0.105047  0  0.100678  0.104774  0  1.039611  0
H  H28  1  0.22322621  0.92396670  0.20536162  1  0.097828  0  0.09494  0.096398  0  1.044377  0
H  H29  1  0.37067252  0.57603647  0.70073834  1  0.080875  0  0.094926  0.096413  0  1.044346  0
H  H30  1  0.79926246  0.92858712  0.27677457  1  0.08077  0  0.094915  0.096362  0  1.044347  0
H  H31  1  0.29463782  0.57141178  0.12932822  1  0.07719  0  0.094905  0.096362  0  1.044388  0
H  H32  1  0.77677394  0.07603315  0.79463819  1  0.097823  0  0.094954  0.096423  0  1.044375  0
H  H33  1  0.62932884  0.42396542  0.29926056  1  0.080888  0  0.094935  0.096356  0  1.044405  0
H  H34  1  0.20074008  0.07141263  0.72322558  1  0.080833  0  0.094921  0.096343  0  1.044403  0
H  H35  1  0.70536143  0.42858800  0.87067062  1  0.077222  0  0.094926  0.09638  0  1.044382  0
H  H36  1  0.35124597  0.00262909  0.07817494  1  0.052466  0  0.097047  0.098118  0  0.992199  0
H  H37  1  0.41919517  0.49737181  0.65138338  1  0.054069  0  0.09708  0.098084  0  0.992196  0
H  H38  1  0.84861906  0.92941847  0.14875603  1  0.076097  0  0.097094  0.098085  0  0.992137  0
H  H39  1  0.42182412  0.57058049  0.08080058  1  0.057458  0  0.097033  0.098085  0  0.992136  0
H  H40  1  0.64875551  0.99737127  0.92182469  1  0.052487  0  0.097037  0.098105  0  0.992228  0
H  H41  1  0.58080498  0.50262804  0.34861643  1  0.054187  0  0.097097  0.098114  0  0.992213  0
H  H42  1  0.15138283  0.07058146  0.85124363  1  0.076141  0  0.097089  0.098079  0  0.992185  0
H  H43  1  0.57817513  0.42941929  0.91919826  1  0.05752  0  0.097015  0.098061  0  0.99218  0
H  H44  1  0.22654897  0.98781418  0.07499720  1  0.066795  0  0.104987  0.115938  0  0.984514  0
H  H45  1  0.43718948  0.51218883  0.76126347  1  0.066366  0  0.105001  0.115949  0  0.984541  0
H  H46  1  0.73873554  0.80154296  0.27345298  1  0.055538  0  0.104978  0.115896  0  0.984494  0
H  H47  1  0.42500290  0.69845586  0.06280905  1  0.058624  0  0.104978  0.115891  0  0.984526  0
H  H48  1  0.77345183  0.01218550  0.92500311  1  0.066797  0  0.104981  0.115901  0  0.984531  0
H  H49  1  0.56281203  0.48781238  0.23873499  1  0.066352  0  0.105007  0.115951  0  0.984529  0
H  H50  1  0.26126659  0.19845722  0.72654715  1  0.055557  0  0.104963  0.115854  0  0.984535  0
H  H51  1  0.57499637  0.30154477  0.93718862  1  0.058618  0  0.10499  0.115899  0  0.984536  0
H  H52  1  0.46465791  0.36901954  0.18276390  1  0.080204  0  0.10067  0.094446  0  1.013082  0
H  H53  1  0.94822047  0.13097878  0.90436197  1  0.086471  0  0.100707  0.094448  0  1.013113  0
H  H54  1  0.59563562  0.14741016  0.03534780  1  0.079363  0  0.100687  0.094421  0  1.01314  0
H  H55  1  0.31724237  0.35258885  0.55177681  1  0.085191  0  0.100691  0.094452  0  1.013075  0
H  H56  1  0.53534138  0.63097946  0.81723822  1  0.080199  0  0.100682  0.094453  0  1.013089  0
H  H57  1  0.05178238  0.86902293  0.09563630  1  0.086431  0  0.100683  0.094425  0  1.013141  0
H  H58  1  0.40436352  0.85258621  0.96465576  1  0.079539  0  0.100698  0.094464  0  1.013104  0
H  H59  1  0.68275790  0.64741279  0.44822275  1  0.08518  0  0.100694  0.094475  0  1.013078  0
H  H60  1  0.64499606  0.18109995  0.28954647  1  0.562573  0  0.320793  0.29611  0  0.963823  0
H  H61  1  0.02935342  0.31889846  0.53610399  1  0.555552  0  0.320767  0.296078  0  0.96385  0
H  H62  1  0.96389537  0.43454295  0.85500408  1  0.555398  0  0.320722  0.296109  0  0.963688  0
H  H63  1  0.21045403  0.06545844  0.47064454  1  0.551444  0  0.320757  0.296094  0  0.963726  0
H  H64  1  0.35500172  0.81889837  0.71045746  1  0.56253  0  0.320784  0.296101  0  0.963852  0
H  H65  1  0.97064698  0.68110165  0.46389629  1  0.555562  0  0.3208  0.296117  0  0.963831  0
H  H66  1  0.03610189  0.56545650  0.14499445  1  0.555468  0  0.320748  0.296122  0  0.963719  0
H  H67  1  0.78954625  0.93454319  0.52935502  1  0.551581  0  0.32076  0.296071  0  0.963746  0
H  H68  1  0.62329799  0.84949553  0.48189084  1  0.649061  0  0.295475  0.340492  0  1.017099  0
H  H69  1  0.16861250  0.65050347  0.22620067  1  0.650014  0  0.295499  0.340477  0  1.017083  0
H  H70  1  0.27380148  0.60519024  0.87670104  1  0.648092  0  0.295499  0.340463  0  1.017166  0
H  H71  1  0.01811056  0.89481446  0.33138612  1  0.645878  0  0.295537  0.340502  0  1.017059  0
H  H72  1  0.37670201  0.15050169  0.51811041  1  0.649086  0  0.295471  0.340447  0  1.017167  0
H  H73  1  0.83138657  0.34949614  0.77379980  1  0.650004  0  0.295489  0.340454  0  1.017059  0
H  H74  1  0.72619953  0.39481378  0.12329548  1  0.648121  0  0.295498  0.340474  0  1.017103  0
H  H75  1  0.98189160  0.10518657  0.66861283  1  0.645889  0  0.295485  0.340436  0  1.01708  0
C  C76  1  0.37818749  0.24127122  0.15305351  1  0.012773  0  -0.096929  -0.195916  0  3.976993  0
C  C77  1  0.10567834  0.25872938  0.86308402  1  -0.056721  0  -0.096938  -0.19586  0  3.977039  0
C  C78  1  0.63691824  0.03123274  0.12181445  1  -0.084734  0  -0.096863  -0.195771  0  3.977069  0
C  C79  1  0.34695515  0.46876708  0.39431539  1  -0.061882  0  -0.096832  -0.195806  0  3.977078  0
C  C80  1  0.62181220  0.75872736  0.84694863  1  0.012749  0  -0.09691  -0.195884  0  3.976984  0
C  C81  1  0.89432243  0.74127276  0.13691649  1  -0.056784  0  -0.096968  -0.195909  0  3.976998  0
C  C82  1  0.36308402  0.96876591  0.87818640  1  -0.084512  0  -0.09692  -0.195821  0  3.977044  0
C  C83  1  0.65304599  0.53123541  0.60568186  1  -0.061931  0  -0.096827  -0.195797  0  3.977009  0
C  C84  1  0.34922866  0.13301456  0.16941793  1  0.435968  0  0.080269  0.249713  0  4.084735  0
C  C85  1  0.19756848  0.36698652  0.78378570  1  0.440165  0  0.080284  0.249805  0  4.084799  0
C  C86  1  0.71621834  0.01864130  0.15077086  1  0.423101  0  0.08022  0.249661  0  4.084792  0
C  C87  1  0.33058458  0.48135721  0.30242759  1  0.447155  0  0.080306  0.249745  0  4.084719  0
C  C88  1  0.65077106  0.86698487  0.83058303  1  0.435853  0  0.080276  0.249724  0  4.084605  0
C  C89  1  0.80243285  0.63301452  0.21621438  1  0.440113  0  0.080286  0.249784  0  4.084755  0
C  C90  1  0.28378450  0.98135710  0.84922840  1  0.422907  0  0.080353  0.249841  0  4.084631  0
C  C91  1  0.66941641  0.51864596  0.69757011  1  0.447191  0  0.080353  0.249861  0  4.084635  0
C  C92  1  0.38281615  0.06855538  0.23057483  1  0.022103  0  -0.103825  -0.26068  0  3.934978  0
C  C93  1  0.20086705  0.43144621  0.68574074  1  0.007022  0  -0.103756  -0.260707  0  3.935018  0
C  C94  1  0.81426298  0.11338944  0.11718455  1  -0.002989  0  -0.103766  -0.260704  0  3.934938  0
C  C95  1  0.26942442  0.38661051  0.29912901  1  -0.033755  0  -0.103804  -0.260754  0  3.934969  0
C  C96  1  0.61718249  0.93144380  0.76942680  1  0.022023  0  -0.103848  -0.260679  0  3.934962  0
C  C97  1  0.79913091  0.56855560  0.31426058  1  0.007037  0  -0.103785  -0.260701  0  3.934965  0
C  C98  1  0.18573866  0.88661023  0.88281463  1  -0.003107  0  -0.103755  -0.260756  0  3.934989  0
C  C99  1  0.73057589  0.61339198  0.70086937  1  -0.033552  0  -0.103856  -0.260862  0  3.935074  0
C  C100  1  0.44776619  0.11430827  0.27346254  1  -0.041976  0  -0.010096  0.029203  0  4.044184  0
C  C101  1  0.11222803  0.38569032  0.66654401  1  -0.006771  0  -0.010048  0.029193  0  4.044191  0
C  C102  1  0.83345602  0.22122330  0.05223547  1  -0.037892  0  -0.009907  0.029309  0  4.044007  0
C  C103  1  0.22653917  0.27877374  0.38776987  1  0.017815  0  -0.009887  0.029299  0  4.04399  0
C  C104  1  0.55223310  0.88569073  0.72653959  1  -0.041932  0  -0.010035  0.02925  0  4.044196  0
C  C105  1  0.88777092  0.61431082  0.33345573  1  -0.006685  0  -0.010044  0.02923  0  4.044086  0
C  C106  1  0.16654484  0.77877477  0.94776347  1  -0.037673  0  -0.009875  0.029274  0  4.044008  0
C  C107  1  0.77346103  0.72122782  0.61222758  1  0.017663  0  -0.009816  0.02931  0  4.04397  0
C  C108  1  0.47745470  0.22260354  0.25594061  1  -0.026818  0  -0.103136  -0.14079  0  3.964058  0
C  C109  1  0.02145584  0.27739401  0.74515129  1  -0.042976  0  -0.103194  -0.140819  0  3.963998  0
C  C110  1  0.75484624  0.23338678  0.02255150  1  -0.055044  0  -0.103189  -0.140955  0  3.964188  0
C  C111  1  0.24406453  0.26661348  0.47854026  1  -0.03162  0  -0.10319  -0.140964  0  3.964171  0
C  C112  1  0.52254459  0.77739546  0.74406151  1  -0.026808  0  -0.103176  -0.140837  0  3.964193  0
C  C113  1  0.97854527  0.72260762  0.25484714  1  -0.042889  0  -0.103236  -0.14097  0  3.964138  0
C  C114  1  0.24515426  0.76661094  0.97745069  1  -0.055033  0  -0.103124  -0.14084  0  3.964065  0
C  C115  1  0.75593620  0.73338943  0.52145697  1  -0.031523  0  -0.10316  -0.140915  0  3.964118  0
C  C116  1  0.48772896  0.04920023  0.33221711  1  0.955779  0  0.238042  0.315862  0  3.975132  0
C  C117  1  0.11858287  0.45079803  0.56147296  1  0.939852  0  0.238112  0.316003  0  3.974986  0
C  C118  1  0.93852620  0.31994426  0.01227280  1  0.962642  0  0.238074  0.315835  0  3.975006  0
C  C119  1  0.16778577  0.18005578  0.38141621  1  0.943861  0  0.238069  0.315843  0  3.975035  0
C  C120  1  0.51227048  0.95079809  0.66778456  1  0.955782  0  0.238037  0.315891  0  3.97513  0
C  C121  1  0.88141647  0.54920268  0.43852681  1  0.939622  0  0.238154  0.315979  0  3.97493  0
C  C122  1  0.06147354  0.68005602  0.98772699  1  0.962723  0  0.23807  0.315915  0  3.974952  0
C  C123  1  0.83221481  0.81994450  0.61858245  1  0.943815  0  0.238126  0.315975  0  3.974959  0
C  C124  1  0.60206569  0.01194860  0.38688746  1  0.38953  0  0.090717  -0.006994  0  3.963363  0
C  C125  1  0.10116145  0.48804912  0.40988670  1  0.430613  0  0.090942  -0.006903  0  3.963316  0
C  C126  1  0.09011309  0.48895108  0.89793632  1  0.411536  0  0.090713  -0.006938  0  3.963439  0
C  C127  1  0.11311386  0.01104895  0.39883464  1  0.409142  0  0.090949  -0.006928  0  3.963259  0
C  C128  1  0.39793384  0.98805066  0.61311513  1  0.389196  0  0.090726  -0.007  0  3.963385  0
C  C129  1  0.89883762  0.51195049  0.59011377  1  0.430512  0  0.090923  -0.006908  0  3.963252  0
C  C130  1  0.90988333  0.51104837  0.10206334  1  0.411545  0  0.090703  -0.006968  0  3.963328  0
C  C131  1  0.88688911  0.98895123  0.60116436  1  0.408708  0  0.090935  -0.006955  0  3.963276  0
C  C132  1  0.27167799  0.99690021  0.12100731  1  0.349925  0  -0.141376  -0.168093  0  3.893961  0
C  C133  1  0.38209196  0.50310285  0.72522165  1  0.368063  0  -0.14131  -0.168081  0  3.893972  0
C  C134  1  0.77478081  0.89268248  0.22832455  1  0.358161  0  -0.141217  -0.167846  0  3.893476  0
C  C135  1  0.37899278  0.60731674  0.11790381  1  0.374386  0  -0.14134  -0.167962  0  3.893757  0
C  C136  1  0.72832306  0.00309972  0.87899348  1  0.34989  0  -0.141397  -0.1681  0  3.894033  0
C  C137  1  0.61790832  0.49689879  0.27477791  1  0.367967  0  -0.14136  -0.168084  0  3.894098  0
C  C138  1  0.22522253  0.10731642  0.77167565  1  0.358131  0  -0.141259  -0.167902  0  3.893866  0
C  C139  1  0.62100690  0.39268347  0.88209387  1  0.374273  0  -0.141365  -0.167983  0  3.893876  0
C  C140  1  0.50804070  0.91252370  0.42332681  1  0.438632  0  0.081852  -0.023228  0  4.05538  0
C  C141  1  0.16414622  0.58747525  0.40448608  1  0.438242  0  0.081934  -0.023158  0  4.055368  0
C  C142  1  0.09551441  0.43136657  0.99195980  1  0.440174  0  0.081847  -0.023278  0  4.05539  0
C  C143  1  0.07667299  0.06863431  0.33585142  1  0.44213  0  0.081904  -0.023227  0  4.055419  0
C  C144  1  0.49195985  0.08747573  0.57667303  1  0.43907  0  0.081838  -0.023248  0  4.055438  0
C  C145  1  0.83585312  0.41252546  0.59551368  1  0.438206  0  0.081964  -0.023169  0  4.055223  0
C  C146  1  0.90448462  0.56863380  0.00803739  1  0.4403  0  0.081789  -0.023329  0  4.055436  0
C  C147  1  0.92332973  0.93136562  0.66414710  1  0.442083  0  0.081881  -0.023246  0  4.055456  0
C  C148  1  0.70196506  0.03606751  0.39962712  1  1.624059  0  0.232775  0.583628  0  4.236917  0
C  C149  1  0.06430752  0.46393242  0.33410310  1  1.613625  0  0.232773  0.583645  0  4.237062  0
C  C150  1  0.16589403  0.60158921  0.79803887  1  1.614609  0  0.232831  0.583748  0  4.236798  0
C  C151  1  0.10037327  0.89840899  0.43569396  1  1.624441  0  0.232759  0.583673  0  4.23689  0
C  C152  1  0.29803380  0.96393106  0.60037615  1  1.623912  0  0.232818  0.583784  0  4.236937  0
C  C153  1  0.93569182  0.53606829  0.66589667  1  1.613618  0  0.232768  0.583645  0  4.237035  0
C  C154  1  0.83410131  0.39840999  0.20196145  1  1.614477  0  0.23278  0.583676  0  4.236904  0
C  C155  1  0.89962859  0.10159009  0.56430687  1  1.624449  0  0.232732  0.583661  0  4.236911  0
C  C156  1  0.47853006  0.79451768  0.48683270  1  1.567215  0  0.239219  0.581582  0  4.156769  0
C  C157  1  0.21864638  0.70548194  0.31599107  1  1.552117  0  0.23907  0.5813  0  4.15708  0
C  C158  1  0.18401284  0.46536301  0.02146883  1  1.566811  0  0.239203  0.581562  0  4.156685  0
C  C159  1  0.01316863  0.03463835  0.28135142  1  1.541645  0  0.23914  0.581456  0  4.156808  0
C  C160  1  0.52147049  0.20548175  0.51316714  1  1.564614  0  0.239205  0.581528  0  4.156778  0
C  C161  1  0.78135160  0.29451741  0.68401006  1  1.552115  0  0.23912  0.581401  0  4.156923  0
C  C162  1  0.81598802  0.53463838  0.97852912  1  1.573065  0  0.239114  0.581539  0  4.156608  0
C  C163  1  0.98683408  0.96536158  0.71864710  1  1.541715  0  0.239093  0.581323  0  4.156983  0
C  C164  1  0.44202856  0.28500887  0.19602592  1  -0.063794  0  -0.089474  -0.047804  0  4.040212  0
C  C165  1  0.01896838  0.21498960  0.84298072  1  -0.013326  0  -0.089483  -0.047833  0  4.040211  0
C  C166  1  0.65701944  0.13804634  0.05797345  1  0.037746  0  -0.089435  -0.047714  0  4.040244  0
C  C167  1  0.30398336  0.36195381  0.48102795  1  -0.019284  0  -0.089458  -0.047756  0  4.040231  0
C  C168  1  0.55797116  0.71499055  0.80397505  1  -0.063801  0  -0.089469  -0.04779  0  4.040235  0
C  C169  1  0.98103297  0.78501228  0.15701818  1  -0.013247  0  -0.089394  -0.047694  0  4.040207  0
C  C170  1  0.34298216  0.86195248  0.94202691  1  0.037499  0  -0.089493  -0.047855  0  4.040317  0
C  C171  1  0.69601735  0.63804825  0.51897046  1  -0.019206  0  -0.089476  -0.04784  0  4.040281  0
N  N172  1  0.43731673  0.93672295  0.39037627  1  -1.169086  0  -0.36944  -0.412427  0  3.29984  0
N  N173  1  0.17289717  0.56327557  0.49940938  1  -1.171056  0  -0.369385  -0.412487  0  3.29988  0
N  N174  1  0.00059118  0.32769187  0.06268447  1  -1.179246  0  -0.369429  -0.412372  0  3.299901  0
N  N175  1  0.10962435  0.17230833  0.32710008  1  -1.170472  0  -0.369372  -0.412395  0  3.299854  0
N  N176  1  0.56268271  0.06327537  0.60962540  1  -1.169065  0  -0.369449  -0.412433  0  3.299887  0
N  N177  1  0.82710000  0.43672464  0.50059170  1  -1.171004  0  -0.369428  -0.412482  0  3.299814  0
N  N178  1  0.99940912  0.67230731  0.93731489  1  -1.179514  0  -0.369382  -0.412374  0  3.299937  0
N  N179  1  0.89037638  0.82769128  0.67289813  1  -1.170461  0  -0.369388  -0.412434  0  3.299859  0
N  N180  1  0.58671112  0.09643021  0.33046094  1  -1.268833  0  -0.355171  -0.260617  0  3.613293  0
N  N181  1  0.07310869  0.40356764  0.50972052  1  -1.278381  0  -0.35511  -0.260697  0  3.613222  0
N  N182  1  0.99027725  0.41716978  0.91329162  1  -1.2669  0  -0.355165  -0.260705  0  3.613212  0
N  N183  1  0.16953960  0.08282901  0.42689117  1  -1.277705  0  -0.355133  -0.26065  0  3.613186  0
N  N184  1  0.41328774  0.90356836  0.66954233  1  -1.268792  0  -0.35516  -0.260633  0  3.613254  0
N  N185  1  0.92689065  0.59643307  0.49027924  1  -1.278223  0  -0.355175  -0.260742  0  3.613201  0
N  N186  1  0.00971955  0.58282839  0.08670924  1  -1.266967  0  -0.355201  -0.260727  0  3.613181  0
N  N187  1  0.83046123  0.91717152  0.57310796  1  -1.277451  0  -0.355134  -0.260622  0  3.613087  0
O  O188  1  0.28906244  0.09887906  0.12138232  1  -1.075836  0  -0.195056  -0.175412  0  2.551421  0
O  O189  1  0.27973842  0.40112726  0.80981497  1  -1.07469  0  -0.195108  -0.175478  0  2.551567  0
O  O190  1  0.69018577  0.91043962  0.21093970  1  -1.073523  0  -0.195165  -0.17553  0  2.551263  0
O  O191  1  0.37861931  0.58955948  0.22025535  1  -1.071487  0  -0.195062  -0.175439  0  2.55135  0
O  O192  1  0.71093793  0.90112020  0.87861914  1  -1.075723  0  -0.195052  -0.175415  0  2.551401  0
O  O193  1  0.72026189  0.59887523  0.19018341  1  -1.074704  0  -0.195102  -0.175449  0  2.551549  0
O  O194  1  0.30981624  0.08955878  0.78906068  1  -1.073576  0  -0.195186  -0.175471  0  2.551416  0
O  O195  1  0.62138158  0.41044275  0.77974142  1  -1.071424  0  -0.195116  -0.175492  0  2.551346  0
O  O196  1  0.76931302  0.13820069  0.36112971  1  -1.224178  0  -0.380342  -0.623258  0  2.300353  0
O  O197  1  0.00067158  0.36179989  0.36888639  1  -1.22447  0  -0.380355  -0.623326  0  2.300477  0
O  O198  1  0.13111120  0.63043952  0.73068977  1  -1.221688  0  -0.380407  -0.623369  0  2.300281  0
O  O199  1  0.13887170  0.86955958  0.49932489  1  -1.219236  0  -0.380332  -0.623304  0  2.300377  0
O  O200  1  0.23068534  0.86180070  0.63887163  1  -1.224183  0  -0.380377  -0.623385  0  2.300435  0
O  O201  1  0.99932749  0.63819972  0.63111408  1  -1.224457  0  -0.380337  -0.623318  0  2.300482  0
O  O202  1  0.86888415  0.36955968  0.26931055  1  -1.221556  0  -0.380348  -0.623331  0  2.300227  0
O  O203  1  0.86112826  0.13044010  0.50067655  1  -1.219171  0  -0.380325  -0.623329  0  2.300324  0
O  O204  1  0.71408679  0.95331040  0.44774906  1  -1.173177  0  -0.293801  -0.533422  0  2.26925  0
O  O205  1  0.09894463  0.54668940  0.23922365  1  -1.179416  0  -0.293847  -0.533408  0  2.269351  0
O  O206  1  0.26077338  0.66183431  0.78591802  1  -1.178964  0  -0.293721  -0.533416  0  2.269228  0
O  O207  1  0.05225171  0.83816416  0.40105779  1  -1.178608  0  -0.293786  -0.533437  0  2.269215  0
O  O208  1  0.28591158  0.04668935  0.55225675  1  -1.173145  0  -0.293795  -0.533433  0  2.269322  0
O  O209  1  0.90105418  0.45330995  0.76077635  1  -1.179414  0  -0.293847  -0.533386  0  2.269343  0
O  O210  1  0.73922160  0.33816454  0.21408554  1  -1.178822  0  -0.293681  -0.533351  0  2.269327  0
O  O211  1  0.94775086  0.16183645  0.59894118  1  -1.178599  0  -0.293726  -0.53338  0  2.269268  0
O  O212  1  0.38574079  0.71633686  0.51869485  1  -1.191924  0  -0.34622  -0.545412  0  2.213447  0
O  O213  1  0.26496472  0.78366129  0.33060061  1  -1.189666  0  -0.346132  -0.545275  0  2.213651  0
O  O214  1  0.16940343  0.40443434  0.11425781  1  -1.184884  0  -0.346239  -0.545407  0  2.213401  0
O  O215  1  0.98130624  0.09556607  0.23503242  1  -1.183232  0  -0.346155  -0.545341  0  2.213411  0
O  O216  1  0.61425908  0.28366189  0.48130567  1  -1.189311  0  -0.346211  -0.54538  0  2.21346  0
O  O217  1  0.73503391  0.21633788  0.66940101  1  -1.189678  0  -0.346126  -0.545282  0  2.213608  0
O  O218  1  0.83059637  0.59556765  0.88573962  1  -1.191192  0  -0.346161  -0.545325  0  2.21326  0
O  O219  1  0.01869688  0.90443343  0.76496613  1  -1.183298  0  -0.34613  -0.545274  0  2.213498  0
O  O220  1  0.55135697  0.77386793  0.50911575  1  -1.168578  0  -0.315944  -0.460373  0  2.3247  0
O  O221  1  0.21701525  0.72613222  0.22251300  1  -1.16664  0  -0.315938  -0.460296  0  2.324724  0
O  O222  1  0.27748880  0.56047360  0.94864203  1  -1.175588  0  -0.315973  -0.460356  0  2.324822  0
O  O223  1  0.99088454  0.93952825  0.28298495  1  -1.162747  0  -0.31592  -0.460358  0  2.32478  0
O  O224  1  0.44864225  0.22613099  0.49088427  1  -1.168588  0  -0.315927  -0.460314  0  2.324736  0
O  O225  1  0.78298450  0.27386806  0.77748679  1  -1.166618  0  -0.315951  -0.460339  0  2.324703  0
O  O226  1  0.72251115  0.43952771  0.05135495  1  -1.175629  0  -0.315962  -0.460379  0  2.32473  0
O  O227  1  0.00911664  0.06047015  0.71701657  1  -1.162708  0  -0.3159  -0.460268  0  2.324741  0
