# generated using pymatgen
data_Ag2Mo4H15C11(NO5)3
_symmetry_space_group_name_H-M   'P 1'
_cell_length_a   9.81109226
_cell_length_b   10.56001005
_cell_length_c   11.99009814
_cell_angle_alpha   80.57623304
_cell_angle_beta   82.16239684
_cell_angle_gamma   85.69494574
_symmetry_Int_Tables_number   1
_chemical_formula_structural   Ag2Mo4H15C11(NO5)3
_chemical_formula_sum   'Ag4 Mo8 H30 C22 N6 O30'
_cell_volume   1212.25540603
_cell_formula_units_Z   2
loop_
 _symmetry_equiv_pos_site_id
 _symmetry_equiv_pos_as_xyz
  1  'x, y, z'
loop_
 _atom_site_type_symbol
 _atom_site_label
 _atom_site_symmetry_multiplicity
 _atom_site_fract_x
 _atom_site_fract_y
 _atom_site_fract_z
 _atom_site_occupancy
 _atom_site_pbe_bader_charge
 _atom_site_pbe_bader_spin_density
 _atom_site_pbe_cm5_charge
 _atom_site_pbe_ddec_charge
 _atom_site_pbe_ddec_spin_density
 _atom_site_pbe_ddec_sum_bond_order
 _atom_site_pbe_magmom
Ag  Ag0  1  0.04906095  0.35111678  0.97994533  1  0.739408  0  0.500757  0.664396  0  1.855388  0
Ag  Ag1  1  0.95093814  0.64888585  0.02005352  1  0.739542  0  0.500705  0.664342  0  1.855373  0
Ag  Ag2  1  0.93827555  0.67916800  0.30799308  1  0.609377  0  0.523732  0.439927  0  1.970281  0
Ag  Ag3  1  0.06172570  0.32083274  0.69201000  1  0.609555  0  0.523733  0.439927  0  1.970292  0
Mo  Mo4  1  0.33059359  0.54304112  0.81955473  1  2.580974  0  1.494697  2.107276  0  4.625924  0
Mo  Mo5  1  0.66940961  0.45696154  0.18044534  1  2.580651  0  1.494711  2.107288  0  4.625941  0
Mo  Mo6  1  0.41675502  0.23197426  0.86450113  1  2.590385  0  1.514898  2.114165  0  4.635712  0
Mo  Mo7  1  0.58324413  0.76802741  0.13549870  1  2.590363  0  1.514935  2.114221  0  4.635656  0
Mo  Mo8  1  0.65487013  0.43976614  0.91922352  1  2.603993  0  1.495663  2.165146  0  4.597198  0
Mo  Mo9  1  0.34513114  0.56023458  0.08077622  1  2.603928  0  1.495703  2.16522  0  4.597077  0
Mo  Mo10  1  0.57763489  0.74184650  0.86343131  1  2.5797  0  1.500433  2.096478  0  4.650147  0
Mo  Mo11  1  0.42236626  0.25815614  0.13656732  1  2.579714  0  1.50041  2.096407  0  4.650282  0
H  H12  1  0.70423325  0.09809930  0.28348547  1  0.20868  0  0.125046  0.209767  0  0.970865  0
H  H13  1  0.29576188  0.90190136  0.71651077  1  0.208818  0  0.12506  0.209779  0  0.970921  0
H  H14  1  0.86002556  0.03190292  0.33878277  1  0.100668  0  0.122935  0.181529  0  0.952983  0
H  H15  1  0.13997177  0.96809581  0.66121102  1  0.100587  0  0.122949  0.18157  0  0.95288  0
H  H16  1  0.79522916  0.96179491  0.23208647  1  0.149106  0  0.117332  0.179113  0  0.996714  0
H  H17  1  0.20477124  0.03820384  0.76790782  1  0.149132  0  0.117315  0.17917  0  0.996772  0
H  H18  1  0.82157687  0.77277745  0.52408849  1  0.616114  0  0.28768  0.322388  0  1.016768  0
H  H19  1  0.17842367  0.22721848  0.47591372  1  0.616133  0  0.287694  0.322449  0  1.016676  0
H  H20  1  0.14135120  0.23768850  0.29305991  1  0.644602  0  0.29785  0.364307  0  0.964681  0
H  H21  1  0.85864691  0.76231318  0.70694170  1  0.644579  0  0.297839  0.364286  0  0.964717  0
H  H22  1  0.28975326  0.90811063  0.00555847  1  0.124364  0  0.122966  0.19787  0  0.962627  0
H  H23  1  0.71024198  0.09188811  0.99443888  1  0.124352  0  0.122976  0.197872  0  0.962701  0
H  H24  1  0.30564749  0.98726438  0.12229013  1  0.141495  0  0.122697  0.185862  0  0.98055  0
H  H25  1  0.69434539  0.01273915  0.87770592  1  0.141436  0  0.122703  0.185879  0  0.980459  0
H  H26  1  0.18029060  0.04808881  0.02921427  1  0.170417  0  0.116059  0.190374  0  1.00045  0
H  H27  1  0.81970729  0.95191669  0.97078346  1  0.170516  0  0.116026  0.190301  0  1.000399  0
H  H28  1  0.60406716  0.70390945  0.41277659  1  0.085405  0  0.10902  0.100184  0  0.990862  0
H  H29  1  0.39593052  0.29608262  0.58722900  1  0.085329  0  0.109055  0.100218  0  0.990951  0
H  H30  1  0.59986467  0.69798449  0.56197414  1  0.091112  0  0.106866  0.092384  0  0.979244  0
H  H31  1  0.40013663  0.30201530  0.43802991  1  0.090732  0  0.10685  0.092393  0  0.979219  0
H  H32  1  0.57464142  0.47579367  0.62865939  1  0.111661  0  0.106842  0.134767  0  1.031613  0
H  H33  1  0.42535842  0.52419742  0.37134111  1  0.111679  0  0.106817  0.134752  0  1.031635  0
H  H34  1  0.67814169  0.25105586  0.64440016  1  0.108475  0  0.111749  0.11605  0  0.9893  0
H  H35  1  0.32185466  0.74894191  0.35559555  1  0.108634  0  0.111732  0.116079  0  0.989244  0
H  H36  1  0.89267579  0.20496573  0.51156452  1  0.129192  0  0.110993  0.126015  0  0.996156  0
H  H37  1  0.10731992  0.79502535  0.48843726  1  0.129192  0  0.110991  0.125988  0  0.996167  0
H  H38  1  0.99051691  0.40107762  0.25813971  1  0.098726  0  0.105628  0.104403  0  1.013887  0
H  H39  1  0.00948232  0.59892217  0.74186706  1  0.098238  0  0.105584  0.104348  0  1.013822  0
H  H40  1  0.09920726  0.45188792  0.34666369  1  0.048088  0  0.093036  0.060738  0  1.032826  0
H  H41  1  0.90078787  0.54811184  0.65334186  1  0.048113  0  0.093028  0.060707  0  1.032793  0
C  C42  1  0.88560139  0.13757778  0.17466352  1  0.882028  0  0.2324  0.434569  0  3.914274  0
C  C43  1  0.11439719  0.86241713  0.82533321  1  0.882042  0  0.232507  0.434871  0  3.914335  0
C  C44  1  0.80712575  0.05261605  0.26232852  1  -0.018989  0  -0.202486  -0.446607  0  3.918761  0
C  C45  1  0.19287335  0.94738657  0.73766950  1  -0.019031  0  -0.202506  -0.446806  0  3.91879  0
C  C46  1  0.13380159  0.87888350  0.14134520  1  0.8732  0  0.23593  0.44468  0  3.927159  0
C  C47  1  0.86619746  0.12112008  0.85865186  1  0.873288  0  0.235945  0.44471  0  3.927172  0
C  C48  1  0.23182368  0.96039920  0.07040225  1  0.026532  0  -0.212024  -0.453862  0  3.923375  0
C  C49  1  0.76817214  0.03960629  0.92959653  1  0.026532  0  -0.212022  -0.453829  0  3.923155  0
C  C50  1  0.66795644  0.68617892  0.48294161  1  0.456457  0  -0.072795  -0.007446  0  3.911381  0
C  C51  1  0.33204530  0.31381414  0.51706340  1  0.456869  0  -0.072788  -0.007454  0  3.911489  0
C  C52  1  0.72822630  0.54876298  0.49269079  1  0.452794  0  0.11483  0.219527  0  3.935236  0
C  C53  1  0.27177532  0.45123199  0.50731310  1  0.452813  0  0.114745  0.219504  0  3.935173  0
C  C54  1  0.66620805  0.45202533  0.57240978  1  -0.040718  0  -0.08729  -0.171426  0  3.907504  0
C  C55  1  0.33379364  0.54796867  0.42759258  1  -0.040772  0  -0.087186  -0.1713  0  3.907327  0
C  C56  1  0.72459757  0.32703643  0.58115310  1  0.051217  0  -0.057973  0.012798  0  3.935236  0
C  C57  1  0.27540402  0.67295947  0.41884566  1  0.051171  0  -0.058059  0.01254  0  3.935287  0
C  C58  1  0.84375805  0.30115990  0.50910884  1  -0.091767  0  -0.092239  -0.189192  0  3.97521  0
C  C59  1  0.15624344  0.69883701  0.49089561  1  -0.091594  0  -0.092196  -0.189069  0  3.974992  0
C  C60  1  0.89967028  0.40103701  0.42935207  1  0.501684  0  0.115641  0.226443  0  3.967777  0
C  C61  1  0.10033145  0.59895605  0.57065377  1  0.501656  0  0.115629  0.226501  0  3.967536  0
C  C62  1  0.02306698  0.38056612  0.34399637  1  0.449495  0  -0.078578  -0.01944  0  3.925092  0
C  C63  1  0.97693131  0.61943270  0.65600814  1  0.449956  0  -0.078551  -0.019377  0  3.924744  0
N  N64  1  0.94756673  0.20636202  0.10313556  1  -1.226661  0  -0.351802  -0.417649  0  3.239083  0
N  N65  1  0.05243944  0.79364257  0.89686224  1  -1.226727  0  -0.351848  -0.417836  0  3.239319  0
N  N66  1  0.05423052  0.81266436  0.19858929  1  -1.237795  0  -0.375839  -0.41573  0  3.397491  0
N  N67  1  0.94576741  0.18734020  0.80141107  1  -1.2379  0  -0.37584  -0.415756  0  3.397619  0
N  N68  1  0.84330542  0.52246209  0.42257025  1  -1.224115  0  -0.350314  -0.300091  0  3.571479  0
N  N69  1  0.15669498  0.47753577  0.57743418  1  -1.22443  0  -0.350262  -0.300085  0  3.571439  0
O  O70  1  0.15831380  0.50721110  0.86550489  1  -0.884858  0  -0.53783  -0.764601  0  2.119044  0
O  O71  1  0.84168826  0.49279346  0.13449336  1  -0.884765  0  -0.537837  -0.764605  0  2.119057  0
O  O72  1  0.24100062  0.20810226  0.89530383  1  -0.874646  0  -0.531813  -0.756997  0  1.912945  0
O  O73  1  0.75900066  0.79189845  0.10469508  1  -0.874651  0  -0.531829  -0.757  0  1.912868  0
O  O74  1  0.82795044  0.46214275  0.88643884  1  -0.822331  0  -0.508537  -0.700696  0  1.885911  0
O  O75  1  0.17205179  0.53785895  0.11356232  1  -0.822291  0  -0.508538  -0.700687  0  1.885843  0
O  O76  1  0.75331352  0.76033744  0.83029249  1  -0.871526  0  -0.515578  -0.707415  0  1.803189  0
O  O77  1  0.24668858  0.23966618  0.16970840  1  -0.87149  0  -0.515588  -0.707405  0  1.803257  0
O  O78  1  0.32915308  0.65143667  0.69763762  1  -0.778665  0  -0.492022  -0.59852  0  1.673104  0
O  O79  1  0.67084911  0.34856597  0.30236007  1  -0.778628  0  -0.492058  -0.59855  0  1.673141  0
O  O80  1  0.47990914  0.12193732  0.77869997  1  -0.785119  0  -0.50017  -0.607991  0  1.607123  0
O  O81  1  0.52009209  0.87806435  0.22129713  1  -0.785101  0  -0.500198  -0.60801  0  1.607172  0
O  O82  1  0.62430436  0.30862559  0.85287747  1  -0.926967  0  -0.542049  -0.751854  0  1.951951  0
O  O83  1  0.37569691  0.69137513  0.14712227  1  -0.926926  0  -0.542081  -0.751887  0  1.951902  0
O  O84  1  0.50517074  0.83720944  0.75592103  1  -0.768552  0  -0.491716  -0.597285  0  1.659551  0
O  O85  1  0.49483047  0.16279225  0.24407857  1  -0.768546  0  -0.491718  -0.597281  0  1.65952  0
O  O86  1  0.39887801  0.39136117  0.76100171  1  -1.004613  0  -0.582035  -0.835792  0  2.082503  0
O  O87  1  0.60112018  0.60863953  0.23899837  1  -1.004486  0  -0.582027  -0.835759  0  2.082498  0
O  O88  1  0.35243824  0.66062929  0.92789015  1  -1.068386  0  -0.596035  -0.913368  0  2.115393  0
O  O89  1  0.64756296  0.33937240  0.07211112  1  -1.068358  0  -0.595996  -0.913316  0  2.11537  0
O  O90  1  0.46723766  0.16336155  0.01357599  1  -1.001061  0  -0.581834  -0.821846  0  2.01985  0
O  O91  1  0.53276258  0.83663916  0.98642386  1  -1.001087  0  -0.581852  -0.821911  0  2.019886  0
O  O92  1  0.57133729  0.57192335  0.81170014  1  -1.073635  0  -0.594663  -0.914832  0  2.105534  0
O  O93  1  0.42866385  0.42807930  0.18830016  1  -1.073649  0  -0.594657  -0.914873  0  2.105616  0
O  O94  1  0.40533422  0.41725883  0.97944048  1  -1.241788  0  -0.624139  -1.166946  0  2.183788  0
O  O95  1  0.59466700  0.58274285  0.02055829  1  -1.241714  0  -0.624158  -1.166974  0  2.183808  0
O  O96  1  0.76969589  0.77998013  0.45692060  1  -1.134708  0  -0.415781  -0.472279  0  2.340792  0
O  O97  1  0.23030562  0.22001676  0.54308135  1  -1.13479  0  -0.415796  -0.472349  0  2.34078  0
O  O98  1  0.08189681  0.25220387  0.36475003  1  -1.14853  0  -0.390118  -0.45928  0  2.285202  0
O  O99  1  0.91810149  0.74779493  0.63525199  1  -1.14853  0  -0.390069  -0.459216  0  2.285149  0
