# generated using pymatgen
data_LiH7C14(N2O)2
_symmetry_space_group_name_H-M   'P 1'
_cell_length_a   8.60057146
_cell_length_b   9.45283274
_cell_length_c   9.58005985
_cell_angle_alpha   64.87691485
_cell_angle_beta   78.11596373
_cell_angle_gamma   67.41158515
_symmetry_Int_Tables_number   1
_chemical_formula_structural   LiH7C14(N2O)2
_chemical_formula_sum   'Li2 H14 C28 N8 O4'
_cell_volume   650.22356321
_cell_formula_units_Z   2
loop_
 _symmetry_equiv_pos_site_id
 _symmetry_equiv_pos_as_xyz
  1  'x, y, z'
loop_
 _atom_site_type_symbol
 _atom_site_label
 _atom_site_symmetry_multiplicity
 _atom_site_fract_x
 _atom_site_fract_y
 _atom_site_fract_z
 _atom_site_occupancy
 _atom_site_hle17_bader_spin_density
 _atom_site_hle17_ddec_charge
 _atom_site_hle17_ddec_spin_density
 _atom_site_hle17_ddec_sum_bond_order
 _atom_site_hle17_magmom
 _atom_site_hse06_10hf_bader_spin_density
 _atom_site_hse06_10hf_ddec_charge
 _atom_site_hse06_10hf_ddec_spin_density
 _atom_site_hse06_10hf_ddec_sum_bond_order
 _atom_site_hse06_10hf_magmom
 _atom_site_hse06_bader_spin_density
 _atom_site_hse06_ddec_charge
 _atom_site_hse06_ddec_spin_density
 _atom_site_hse06_ddec_sum_bond_order
 _atom_site_hse06_magmom
 _atom_site_pbe_bader_spin_density
 _atom_site_pbe_cm5_charge
 _atom_site_pbe_ddec_charge
 _atom_site_pbe_ddec_spin_density
 _atom_site_pbe_ddec_sum_bond_order
 _atom_site_pbe_magmom
Li  Li0  1  0.62098933  0.28065269  0.28784022  1  0  0.855963  0  0.410179  0  0  0.808204  0  0.532832  0  0  0.818549  0  0.513965  0  0  0.552736  0.800745  0  0.546283  0
Li  Li1  1  0.37900949  0.71934923  0.71216028  1  0  0.855945  0  0.410198  0  0  0.808158  0  0.532902  0  0  0.818507  0  0.514029  0  0  0.552716  0.800699  0  0.546357  0
H  H2  1  0.04995635  0.15662039  0.18678932  1  0  0.08625  0  0.976678  0  0  0.092984  0  1.047245  0  0  0.094774  0  1.047502  0  0  0.102517  0.091836  0  1.046668  0
H  H3  1  0.95004449  0.84337533  0.81321235  1  0  0.086244  0  0.97673  0  0  0.092996  0  1.047284  0  0  0.094782  0  1.047549  0  0  0.1025  0.091853  0  1.046679  0
H  H4  1  0.04603374  0.92546040  0.12992484  1  0  0.097028  0  0.964947  0  0  0.106153  0  1.026831  0  0  0.108695  0  1.026873  0  0  0.103393  0.104388  0  1.026783  0
H  H5  1  0.95396692  0.07454275  0.87006748  1  0  0.097089  0  0.964913  0  0  0.106197  0  1.026815  0  0  0.108739  0  1.026858  0  0  0.103403  0.104436  0  1.02677  0
H  H6  1  0.31495304  0.70162074  0.11525802  1  0  0.084428  0  0.95798  0  0  0.095674  0  1.018605  0  0  0.097681  0  1.017982  0  0  0.107497  0.094299  0  1.018962  0
H  H7  1  0.68504571  0.29837749  0.88473884  1  0  0.08441  0  0.957915  0  0  0.095654  0  1.01855  0  0  0.097658  0  1.017931  0  0  0.107504  0.09428  0  1.018908  0
H  H8  1  0.58629173  0.70452934  0.16415235  1  0  0.099024  0  0.960309  0  0  0.10498  0  1.026221  0  0  0.107388  0  1.02653  0  0  0.104425  0.10327  0  1.026162  0
H  H9  1  0.41370754  0.29546394  0.83585067  1  0  0.099024  0  0.960318  0  0  0.104984  0  1.026227  0  0  0.107397  0  1.026522  0  0  0.104443  0.103272  0  1.026166  0
H  H10  1  0.59213539  0.93719077  0.21702745  1  0  0.110937  0  0.954596  0  0  0.115477  0  1.023802  0  0  0.119245  0  1.020374  0  0  0.111205  0.112807  0  1.02616  0
H  H11  1  0.40786474  0.06280001  0.78297853  1  0  0.110919  0  0.954548  0  0  0.115471  0  1.023735  0  0  0.119236  0  1.020318  0  0  0.11121  0.1128  0  1.026094  0
H  H12  1  0.38824099  0.43642795  0.45105880  1  0  0.432935  0  0.867338  0  0  0.399032  0  0.935949  0  0  0.409327  0  0.920704  0  0  0.295606  0.391753  0  0.946715  0
H  H13  1  0.61176188  0.56357267  0.54894458  1  0  0.432939  0  0.867324  0  0  0.399041  0  0.935933  0  0  0.409336  0  0.920683  0  0  0.295583  0.391764  0  0.946696  0
H  H14  1  0.55767033  0.33357988  0.53544900  1  0  0.42365  0  0.856066  0  0  0.400202  0  0.915979  0  0  0.407363  0  0.905831  0  0  0.310847  0.395085  0  0.923269  0
H  H15  1  0.44233015  0.66642078  0.46455484  1  0  0.423599  0  0.85619  0  0  0.400137  0  0.916098  0  0  0.407299  0  0.905949  0  0  0.310793  0.395021  0  0.923388  0
C  C16  1  0.32892111  0.20094435  0.23056419  1  0  0.412023  0  3.712934  0  0  0.400038  0  3.963035  0  0  0.420786  0  3.965731  0  0  0.185953  0.38568  0  3.961168  0
C  C17  1  0.67107332  0.79906009  0.76943613  1  0  0.412026  0  3.712831  0  0  0.400065  0  3.962952  0  0  0.420813  0  3.965643  0  0  0.185973  0.385709  0  3.961089  0
C  C18  1  0.32163629  0.06256057  0.20385182  1  0  -0.069107  0  3.806093  0  0  -0.05041  0  4.036205  0  0  -0.061743  0  4.065646  0  0  -0.021915  -0.043088  0  4.016433  0
C  C19  1  0.67836214  0.93743889  0.79614876  1  0  -0.069035  0  3.805963  0  0  -0.050441  0  4.036225  0  0  -0.061773  0  4.06566  0  0  -0.021915  -0.043121  0  4.016452  0
C  C20  1  0.16739133  0.05847573  0.18026205  1  0  -0.05926  0  3.72366  0  0  -0.083528  0  3.971467  0  0  -0.083317  0  3.995917  0  0  -0.074118  -0.083005  0  3.954364  0
C  C21  1  0.83260910  0.94152123  0.81973918  1  0  -0.059261  0  3.723573  0  0  -0.083507  0  3.971383  0  0  -0.083297  0  3.995831  0  0  -0.074085  -0.082975  0  3.954278  0
C  C22  1  0.16519841  0.92946058  0.14743723  1  0  -0.075499  0  3.741206  0  0  -0.087254  0  3.990901  0  0  -0.092724  0  4.014009  0  0  -0.087104  -0.083641  0  3.974973  0
C  C23  1  0.83480151  0.07053763  0.85255835  1  0  -0.075663  0  3.741159  0  0  -0.087408  0  3.990885  0  0  -0.092879  0  4.013993  0  0  -0.087132  -0.083802  0  3.974966  0
C  C24  1  0.31603806  0.80305197  0.14077259  1  0  -0.004869  0  3.686634  0  0  -0.023836  0  3.935237  0  0  -0.021867  0  3.954723  0  0  -0.061061  -0.024882  0  3.92179  0
C  C25  1  0.68395870  0.19694875  0.85922465  1  0  -0.00477  0  3.686519  0  0  -0.023743  0  3.93514  0  0  -0.021774  0  3.954624  0  0  -0.061061  -0.024793  0  3.921699  0
C  C26  1  0.46945486  0.80447720  0.16746645  1  0  -0.089077  0  3.746255  0  0  -0.096306  0  3.993256  0  0  -0.101781  0  4.015345  0  0  -0.083347  -0.09282  0  3.978597  0
C  C27  1  0.53054441  0.19551977  0.83253709  1  0  -0.08915  0  3.746411  0  0  -0.096373  0  3.993428  0  0  -0.101844  0  4.015518  0  0  -0.083412  -0.092882  0  3.978765  0
C  C28  1  0.47313799  0.93445293  0.19764898  1  0  -0.038149  0  3.68145  0  0  -0.062605  0  3.925673  0  0  -0.059991  0  3.944686  0  0  -0.063872  -0.064192  0  3.912911  0
C  C29  1  0.52686287  0.06554279  0.80235373  1  0  -0.03808  0  3.681545  0  0  -0.062535  0  3.925816  0  0  -0.059921  0  3.944823  0  0  -0.063843  -0.064121  0  3.91305  0
C  C30  1  0.16750775  0.31862847  0.27458477  1  0  0.034229  0  3.720407  0  0  0.018583  0  3.969855  0  0  0.029621  0  3.984323  0  0  0.034884  0.012026  0  3.95912  0
C  C31  1  0.83249099  0.68137346  0.72541157  1  0  0.034223  0  3.720402  0  0  0.018619  0  3.969832  0  0  0.029657  0  3.984294  0  0  0.034895  0.012053  0  3.959109  0
C  C32  1  0.08893402  0.25379645  0.42000145  1  0  -0.152868  0  3.920852  0  0  -0.135059  0  4.163775  0  0  -0.1473  0  4.18212  0  0  -0.01117  -0.126823  0  4.150849  0
C  C33  1  0.91106141  0.74620431  0.57998873  1  0  -0.15288  0  3.920699  0  0  -0.135127  0  4.163709  0  0  -0.147372  0  4.182047  0  0  -0.011183  -0.126896  0  4.150799  0
C  C34  1  0.93954669  0.34758825  0.47767541  1  0  0.319523  0  3.791938  0  0  0.296621  0  4.061363  0  0  0.310092  0  4.079744  0  0  0.206153  0.287538  0  4.048733  0
C  C35  1  0.06045448  0.65240625  0.52232254  1  0  0.319548  0  3.792112  0  0  0.296652  0  4.061562  0  0  0.310126  0  4.079938  0  0  0.206132  0.28757  0  4.048932  0
C  C36  1  0.15737846  0.08604331  0.51865969  1  0  0.342788  0  3.796638  0  0  0.323176  0  4.065358  0  0  0.336328  0  4.083726  0  0  0.213434  0.314226  0  4.052957  0
C  C37  1  0.84261830  0.91395371  0.48133702  1  0  0.342848  0  3.796471  0  0  0.323249  0  4.065211  0  0  0.336405  0  4.083576  0  0  0.213527  0.3143  0  4.05281  0
C  C38  1  0.11656124  0.48322699  0.16746876  1  0  -0.15454  0  3.94211  0  0  -0.139304  0  4.189733  0  0  -0.152085  0  4.210294  0  0  -0.017992  -0.131063  0  4.176422  0
C  C39  1  0.88344115  0.51677859  0.83253054  1  0  -0.154561  0  3.942151  0  0  -0.139358  0  4.189805  0  0  -0.152135  0  4.210362  0  0  -0.018066  -0.131112  0  4.176495  0
C  C40  1  0.98101988  0.61534233  0.19329924  1  0  0.267674  0  3.814412  0  0  0.252253  0  4.089162  0  0  0.263395  0  4.109231  0  0  0.177624  0.244706  0  4.075849  0
C  C41  1  0.01898016  0.38466327  0.80670260  1  0  0.267738  0  3.81457  0  0  0.25233  0  4.089301  0  0  0.263469  0  4.109371  0  0  0.177689  0.244782  0  4.075989  0
C  C42  1  0.20207702  0.53243712  0.02199755  1  0  0.332405  0  3.818813  0  0  0.31039  0  4.094922  0  0  0.323958  0  4.112909  0  0  0.207229  0.300877  0  4.083806  0
C  C43  1  0.79792982  0.46756962  0.97800455  1  0  0.3324  0  3.818664  0  0  0.310402  0  4.09477  0  0  0.32397  0  4.112752  0  0  0.207327  0.300889  0  4.083654  0
N  N44  1  0.21253300  0.94696083  0.60042719  1  0  -0.497171  0  2.636031  0  0  -0.468333  0  2.873769  0  0  -0.480027  0  2.882549  0  0  -0.375827  -0.460399  0  2.86782  0
N  N45  1  0.78746127  0.05304364  0.39956480  1  0  -0.497302  0  2.635916  0  0  -0.468472  0  2.873656  0  0  -0.480168  0  2.882436  0  0  -0.375961  -0.460535  0  2.867709  0
N  N46  1  0.81507542  0.42150503  0.52798098  1  0  -0.428904  0  2.692828  0  0  -0.390854  0  2.925078  0  0  -0.405295  0  2.937326  0  0  -0.284889  -0.380915  0  2.916768  0
N  N47  1  0.18492592  0.57849314  0.47202583  1  0  -0.428914  0  2.69309  0  0  -0.39086  0  2.925347  0  0  -0.405301  0  2.937594  0  0  -0.284868  -0.380919  0  2.917036  0
N  N48  1  0.87356314  0.73091892  0.20812106  1  0  -0.384338  0  2.59133  0  0  -0.361148  0  2.818416  0  0  -0.37217  0  2.832248  0  0  -0.289148  -0.353729  0  2.808954  0
N  N49  1  0.12644020  0.26908415  0.79188641  1  0  -0.384409  0  2.591462  0  0  -0.361221  0  2.818532  0  0  -0.372243  0  2.832365  0  0  -0.289213  -0.353802  0  2.809071  0
N  N50  1  0.26632813  0.58367614  0.89967465  1  0  -0.50607  0  2.631883  0  0  -0.476608  0  2.872125  0  0  -0.487673  0  2.87899  0  0  -0.380294  -0.469384  0  2.867887  0
N  N51  1  0.73368153  0.41632563  0.10032899  1  0  -0.50604  0  2.631801  0  0  -0.476593  0  2.872038  0  0  -0.487657  0  2.878903  0  0  -0.380327  -0.46937  0  2.867801  0
O  O52  1  0.46177563  0.22833563  0.21820134  1  0  -0.523224  0  1.996974  0  0  -0.475113  0  2.210859  0  0  -0.492608  0  2.205966  0  0  -0.296125  -0.462807  0  2.214144  0
O  O53  1  0.53822239  0.77166506  0.78179880  1  0  -0.523208  0  1.996988  0  0  -0.475063  0  2.210841  0  0  -0.492562  0  2.205944  0  0  -0.296098  -0.46276  0  2.214124  0
O  O54  1  0.50595164  0.36485759  0.44072500  1  0  -0.915754  0  1.792166  0  0  -0.873364  0  1.962891  0  0  -0.888577  0  1.93356  0  0  -0.666629  -0.862446  0  1.983378  0
O  O55  1  0.49405162  0.63514549  0.55927830  1  0  -0.915705  0  1.792252  0  0  -0.873301  0  1.962906  0  0  -0.888514  0  1.933585  0  0  -0.66654  -0.862381  0  1.983393  0
