# generated using pymatgen
data_MnH4C4(N4O)2
_symmetry_space_group_name_H-M   'P 1'
_cell_length_a   6.45705002
_cell_length_b   6.51843554
_cell_length_c   9.91881034
_cell_angle_alpha   89.99990831
_cell_angle_beta   90.00048307
_cell_angle_gamma   101.13123495
_symmetry_Int_Tables_number   1
_chemical_formula_structural   MnH4C4(N4O)2
_chemical_formula_sum   'Mn2 H8 C8 N16 O4'
_cell_volume   409.62753998
_cell_formula_units_Z   2
loop_
 _symmetry_equiv_pos_site_id
 _symmetry_equiv_pos_as_xyz
  1  'x, y, z'
loop_
 _atom_site_type_symbol
 _atom_site_label
 _atom_site_symmetry_multiplicity
 _atom_site_fract_x
 _atom_site_fract_y
 _atom_site_fract_z
 _atom_site_occupancy
 _atom_site_pbe_cm5_charge
 _atom_site_pbe_ddec_charge
 _atom_site_pbe_ddec_spin_density
 _atom_site_pbe_ddec_sum_bond_order
 _atom_site_pbe_magmom
Mn  Mn0  1  0.99999072  0.99999531  0.49999763  1  0.66298  0.894797  -4.463325  2.757444  -4.248
Mn  Mn1  1  0.00000473  0.50000113  0.99999865  1  0.66298  0.894878  -4.463299  2.757397  -4.248
H  H2  1  0.75394572  0.51559291  0.68399108  1  0.141854  0.139929  0.000366  1.016055  0.0
H  H3  1  0.24606139  0.98441295  0.18398989  1  0.141882  0.139989  0.000366  1.016006  0.0
H  H4  1  0.24603492  0.48439766  0.31601813  1  0.141896  0.139951  0.000366  1.016057  0.0
H  H5  1  0.75395457  0.01560147  0.81601025  1  0.141887  0.139941  0.000366  1.016  0.0
H  H6  1  0.43496807  0.83351674  0.41221244  1  0.143127  0.143522  0.000145  1.004523  0.0
H  H7  1  0.56502471  0.66647964  0.91220432  1  0.143115  0.143557  0.000146  1.004461  0.0
H  H8  1  0.56501567  0.16647387  0.58779677  1  0.143086  0.143546  0.000145  1.004543  0.0
H  H9  1  0.43498884  0.33353007  0.08779380  1  0.14307  0.143517  0.000146  1.004536  0.0
C  C10  1  0.64098010  0.50482462  0.60226121  1  0.055091  -0.049455  -0.017759  3.841982  -0.011
C  C11  1  0.35902638  0.99517497  0.10225761  1  0.055097  -0.049436  -0.017751  3.842182  -0.011
C  C12  1  0.35900380  0.49517535  0.39774598  1  0.054987  -0.049483  -0.017741  3.842189  -0.011
C  C13  1  0.64098844  0.00483319  0.89774050  1  0.054964  -0.049562  -0.017733  3.842117  -0.011
C  C14  1  0.46170313  0.68320307  0.44821087  1  0.058132  -0.041925  -0.018252  3.839409  -0.011
C  C15  1  0.53829154  0.81680114  0.94820343  1  0.058151  -0.041861  -0.018251  3.839192  -0.011
C  C16  1  0.53827596  0.31678748  0.55179531  1  0.05817  -0.041987  -0.018262  3.839307  -0.011
C  C17  1  0.46172655  0.18321643  0.05179167  1  0.058177  -0.041979  -0.018263  3.839339  -0.011
N  N18  1  0.97862994  0.74154810  0.36596654  1  -0.257517  -0.474443  -0.062087  2.964636  -0.035
N  N19  1  0.02136168  0.75844513  0.86597139  1  -0.257611  -0.474657  -0.062084  2.964206  -0.035
N  N20  1  0.02134915  0.25844245  0.63402755  1  -0.257709  -0.474815  -0.062085  2.964252  -0.035
N  N21  1  0.97865821  0.24155686  0.13402572  1  -0.257695  -0.474768  -0.062084  2.964262  -0.035
N  N22  1  0.90215840  0.69675414  0.25865005  1  0.09241  0.431042  -0.0328  4.481726  -0.036
N  N23  1  0.09784782  0.80325017  0.75864217  1  0.092509  0.43119  -0.032802  4.481753  -0.036
N  N24  1  0.09784160  0.30324915  0.74135411  1  0.092641  0.431448  -0.0328  4.481849  -0.036
N  N25  1  0.90216063  0.19674856  0.24135292  1  0.092571  0.431301  -0.032805  4.482015  -0.036
N  N26  1  0.60351667  0.68792068  0.55054814  1  -0.105897  0.322687  -0.040068  3.946858  -0.043
N  N27  1  0.39648322  0.81208037  0.05054498  1  -0.105953  0.322516  -0.040056  3.947212  -0.043
N  N28  1  0.39647088  0.31206530  0.44946611  1  -0.105807  0.3228  -0.040072  3.946814  -0.043
N  N29  1  0.60352400  0.18793706  0.94946020  1  -0.105847  0.322786  -0.040057  3.947169  -0.043
N  N30  1  0.82849338  0.64819261  0.15133257  1  -0.246229  -0.463269  -0.063673  2.901442  -0.04
N  N31  1  0.17150906  0.85180694  0.65134117  1  -0.246221  -0.463218  -0.06367  2.901988  -0.04
N  N32  1  0.17151197  0.35180608  0.84865446  1  -0.246213  -0.463305  -0.063667  2.902033  -0.04
N  N33  1  0.82848669  0.14819006  0.34864989  1  -0.246165  -0.4632  -0.063669  2.902137  -0.04
O  O34  1  0.70836000  0.86798131  0.59652561  1  -0.212458  -0.455464  -0.03423  2.144481  -0.017
O  O35  1  0.29164415  0.63202292  0.09652309  1  -0.212423  -0.455397  -0.034228  2.144618  -0.017
O  O36  1  0.29163094  0.13200627  0.40347553  1  -0.212531  -0.455619  -0.03424  2.144574  -0.017
O  O37  1  0.70836262  0.36798358  0.90347301  1  -0.212501  -0.455551  -0.034233  2.144629  -0.017
