# generated using pymatgen
data_Cu3H16C8(Cl3O2)2
_symmetry_space_group_name_H-M   'P 1'
_cell_length_a   7.12846250
_cell_length_b   7.12843777
_cell_length_c   9.11006872
_cell_angle_alpha   98.90615769
_cell_angle_beta   98.90640347
_cell_angle_gamma   112.84181812
_symmetry_Int_Tables_number   1
_chemical_formula_structural   Cu3H16C8(Cl3O2)2
_chemical_formula_sum   'Cu3 H16 C8 Cl6 O4'
_cell_volume   409.56904473
_cell_formula_units_Z   1
loop_
 _symmetry_equiv_pos_site_id
 _symmetry_equiv_pos_as_xyz
  1  'x, y, z'
loop_
 _atom_site_type_symbol
 _atom_site_label
 _atom_site_symmetry_multiplicity
 _atom_site_fract_x
 _atom_site_fract_y
 _atom_site_fract_z
 _atom_site_occupancy
 _atom_site_hle17_ddec_charge
 _atom_site_hle17_ddec_spin_density
 _atom_site_hle17_ddec_sum_bond_order
 _atom_site_hle17_magmom
 _atom_site_hse06_10hf_ddec_charge
 _atom_site_hse06_10hf_ddec_spin_density
 _atom_site_hse06_10hf_ddec_sum_bond_order
 _atom_site_hse06_10hf_magmom
 _atom_site_hse06_ddec_charge
 _atom_site_hse06_ddec_spin_density
 _atom_site_hse06_ddec_sum_bond_order
 _atom_site_hse06_magmom
 _atom_site_pbe_cm5_charge
 _atom_site_pbe_ddec_charge
 _atom_site_pbe_ddec_spin_density
 _atom_site_pbe_ddec_sum_bond_order
 _atom_site_pbe_magmom
Cu  Cu0  1  0.91545923  0.91545661  0.30754119  1  0.725886  0.559319  1.941764  0.411  0.729082  0.679576  2.336984  0.547  0.829424  0.781494  2.25348  0.641  0.487394  0.672124  0.585735  2.38886  0.469
Cu  Cu1  1  0.08502145  0.08502065  0.69163608  1  0.725595  -0.575276  1.954925  -0.421  0.732508  -0.6916  2.348109  -0.55  0.832606  -0.772576  2.263558  -0.639  0.490793  0.677856  -0.629365  2.399936  -0.492
Cu  Cu2  1  0.00117723  0.00117680  0.00215949  1  0.719457  -0.57938  2.005021  -0.423  0.731499  -0.693568  2.390129  -0.552  0.829564  -0.776367  2.306398  -0.641  0.496165  0.678557  -0.627416  2.440655  -0.489
H  H3  1  0.38249873  0.58886730  0.12932119  1  0.060113  0.000177  0.935387  0.0  0.071085  0.00012  1.006512  0.0  0.073497  0.000111  1.003259  0.0  0.087934  0.06942  0.000124  1.008748  0.0
H  H4  1  0.41161329  0.61780594  0.87083810  1  0.060593  -0.000149  0.935118  0.0  0.071268  -0.000168  1.006266  0.0  0.07372  -0.000123  1.002953  0.0  0.08786  0.06963  -0.000207  1.008474  0.0
H  H5  1  0.61780358  0.41161366  0.87084154  1  0.06048  -0.000152  0.935042  0.0  0.071175  -0.000168  1.006194  0.0  0.073622  -0.000123  1.002879  0.0  0.087817  0.069538  -0.000207  1.008404  0.0
H  H6  1  0.58887418  0.38249429  0.12932297  1  0.060066  0.000177  0.935361  0.0  0.071064  0.00012  1.006434  0.0  0.073476  0.000111  1.00318  0.0  0.087916  0.069399  0.000124  1.008671  0.0
H  H7  1  0.42130469  0.76514672  0.30576204  1  0.071578  -0.000679  0.937615  0.0  0.084532  -0.00075  1.005354  0.0  0.086012  -0.000605  1.003327  0.0  0.095501  0.083761  -0.000824  1.006435  0.0
H  H8  1  0.23487634  0.57871019  0.69457447  1  0.071876  0.000254  0.938199  0.0  0.084601  0.000236  1.005952  0.0  0.086165  0.000199  1.003814  0.0  0.095468  0.083691  0.000243  1.007282  0.0
H  H9  1  0.57870944  0.23488406  0.69457706  1  0.071863  0.000251  0.938328  0.0  0.084619  0.000235  1.006037  0.0  0.086178  0.000199  1.003897  0.0  0.095459  0.083711  0.000243  1.007368  0.0
H  H10  1  0.76514738  0.42130323  0.30576698  1  0.071703  -0.000679  0.937646  0.0  0.084579  -0.00075  1.005417  0.0  0.08606  -0.000605  1.003393  0.0  0.09554  0.083811  -0.000823  1.006489  0.0
H  H11  1  0.25838694  0.46768587  0.42249961  1  0.064922  -9.3e-05  0.947955  0.0  0.076702  -0.000117  1.017424  0.0  0.077916  -8.9e-05  1.01577  0.0  0.093892  0.076013  -0.000151  1.018408  0.0
H  H12  1  0.53191439  0.74118324  0.57728660  1  0.063966  0.000185  0.948416  0.0  0.075921  0.000185  1.018015  0.0  0.07699  0.000159  1.016474  0.0  0.093582  0.075295  0.000197  1.018967  0.0
H  H13  1  0.74117324  0.53191607  0.57728050  1  0.063951  0.000184  0.948308  0.0  0.07586  0.000185  1.017936  0.0  0.076947  0.000159  1.016369  0.0  0.093578  0.075225  0.000197  1.018891  0.0
H  H14  1  0.46768626  0.25838064  0.42249819  1  0.064952  -9.4e-05  0.948074  0.0  0.076697  -0.000117  1.017534  0.0  0.077907  -8.9e-05  1.015883  0.0  0.093904  0.076008  -0.000151  1.018518  0.0
H  H15  1  0.08562815  0.42864696  0.24435398  1  0.073738  -0.001055  0.946786  0.0  0.087355  -0.001146  1.013142  0.0  0.089024  -0.000927  1.011388  0.0  0.092991  0.086485  -0.001269  1.013962  0.0
H  H16  1  0.57140111  0.91430809  0.75533500  1  0.072871  -0.000267  0.946491  0.0  0.08704  -0.000275  1.012619  0.0  0.088812  -0.000178  1.010723  0.0  0.092488  0.086027  -0.000371  1.013726  0.0
H  H17  1  0.91430448  0.57140294  0.75532994  1  0.072923  -0.000267  0.946518  0.0  0.087081  -0.000275  1.012618  0.0  0.088848  -0.000178  1.010722  0.0  0.092521  0.086068  -0.000371  1.013721  0.0
H  H18  1  0.42865017  0.08562450  0.24435457  1  0.073778  -0.001056  0.946728  0.0  0.087368  -0.001146  1.013079  0.0  0.089036  -0.000927  1.011323  0.0  0.092977  0.086499  -0.001269  1.013899  0.0
C  C19  1  0.41178577  0.61090532  0.25463504  1  0.043736  -0.000813  3.646179  -0.001  -0.01395  -0.000959  3.913995  -0.001  -0.006407  -0.00075  3.916726  -0.001  -0.090702  -0.018882  -0.001106  3.911669  -0.001
C  C20  1  0.38915303  0.58830305  0.74549870  1  0.041227  -1e-05  3.646269  0.0  -0.015469  -9.6e-05  3.913633  0.0  -0.007988  -4.5e-05  3.916406  0.0  -0.091304  -0.020436  -0.000131  3.911434  0.0
C  C21  1  0.58829914  0.38914832  0.74549145  1  0.041338  4e-06  3.646398  0.0  -0.015409  -9.5e-05  3.913698  0.0  -0.007911  -4.5e-05  3.91644  0.0  -0.091279  -0.020377  -0.000131  3.911498  0.0
C  C22  1  0.61091063  0.41178377  0.25463692  1  0.043633  -0.00081  3.646485  -0.001  -0.013961  -0.000959  3.91412  -0.001  -0.006424  -0.000751  3.916852  -0.001  -0.090738  -0.018897  -0.001106  3.911791  -0.001
C  C23  1  0.23933073  0.43942825  0.29775862  1  0.042985  -0.001326  3.634457  -0.001  -0.014533  -0.001555  3.902947  -0.001  -0.007223  -0.001184  3.906865  -0.001  -0.091439  -0.019219  -0.001851  3.899968  -0.002
C  C24  1  0.56058713  0.76056489  0.70206008  1  0.043849  -0.000225  3.635677  -0.001  -0.014459  -0.00015  3.904681  -0.001  -0.007136  -1.1e-05  3.908634  0.0  -0.092171  -0.019207  -0.000328  3.901819  -0.001
C  C25  1  0.76055817  0.56058909  0.70206427  1  0.043739  -0.000229  3.635911  -0.001  -0.014456  -0.00015  3.904756  -0.001  -0.00713  -1.1e-05  3.908667  0.0  -0.092181  -0.019195  -0.000328  3.901894  -0.001
C  C26  1  0.43943181  0.23933191  0.29776176  1  0.042851  -0.001321  3.634724  -0.001  -0.01456  -0.001555  3.903039  -0.001  -0.007239  -0.001182  3.906944  -0.001  -0.09146  -0.01925  -0.001851  3.900061  -0.002
Cl  Cl27  1  0.86897038  0.13294964  0.50011923  1  -0.372871  -1.7e-05  1.17388  0.0  -0.371709  -0.001233  1.497038  0.0  -0.418647  -6.5e-05  1.469869  0.0  -0.213579  -0.347322  -0.00402  1.517093  -0.003
Cl  Cl28  1  0.13294891  0.86896716  0.50011956  1  -0.372887  -1.4e-05  1.173876  0.0  -0.371737  -0.001231  1.497064  0.0  -0.418675  -6.5e-05  1.469896  0.0  -0.213599  -0.34735  -0.004018  1.517119  -0.003
Cl  Cl29  1  0.73761109  0.00421901  0.11770556  1  -0.364957  -0.005379  1.229586  -0.005  -0.367481  -0.003815  1.557555  -0.003  -0.414463  -0.000921  1.532199  0.0  -0.206426  -0.341561  -0.009081  1.575729  -0.008
Cl  Cl30  1  0.99469238  0.25987652  0.88164961  1  -0.356399  -0.194292  1.231496  -0.231  -0.365395  -0.138755  1.56064  -0.174  -0.413895  -0.113265  1.535385  -0.148  -0.203614  -0.338429  -0.146574  1.579114  -0.179
Cl  Cl31  1  0.25987580  0.99469100  0.88165237  1  -0.356419  -0.194292  1.231518  -0.231  -0.36542  -0.138755  1.560672  -0.174  -0.413921  -0.113264  1.535418  -0.148  -0.203635  -0.338455  -0.146575  1.579147  -0.179
Cl  Cl32  1  0.00421936  0.73761169  0.11770539  1  -0.364976  -0.005382  1.229622  -0.005  -0.367495  -0.003817  1.557593  -0.003  -0.414477  -0.000922  1.532237  0.0  -0.206434  -0.341575  -0.009081  1.575765  -0.008
O  O33  1  0.61273510  0.61273203  0.31312653  1  -0.340303  -0.001051  2.323257  -0.001  -0.271067  -0.000732  2.588993  0.0  -0.294944  -0.000863  2.592451  -0.001  -0.242463  -0.254992  -0.000561  2.586794  0.0
O  O34  1  0.38730560  0.38730787  0.68706979  1  -0.340179  0.000857  2.326341  0.0  -0.271598  0.000952  2.591721  0.001  -0.295466  0.001152  2.595121  0.001  -0.243137  -0.255784  0.000442  2.589786  0.0
O  O35  1  0.23791306  0.23790961  0.24231616  1  -0.363047  0.000181  2.383431  0.0  -0.301002  0.000219  2.661475  0.0  -0.327473  0.000373  2.666242  0.0  -0.245517  -0.28437  -0.000215  2.659689  -0.001
O  O36  1  0.76204292  0.76204577  0.75734928  1  -0.361631  0.002719  2.376857  0.002  -0.300337  0.002107  2.655223  0.001  -0.326385  0.002174  2.659901  0.001  -0.244099  -0.283818  0.002076  2.65331  0.001
