# generated using pymatgen
data_CuH5C4N3O4
_symmetry_space_group_name_H-M   'P 1'
_cell_length_a   6.68774256
_cell_length_b   7.56196160
_cell_length_c   8.93236969
_cell_angle_alpha   67.45944349
_cell_angle_beta   68.00502223
_cell_angle_gamma   64.15067348
_symmetry_Int_Tables_number   1
_chemical_formula_structural   CuH5C4N3O4
_chemical_formula_sum   'Cu2 H10 C8 N6 O8'
_cell_volume   363.60243479
_cell_formula_units_Z   2
loop_
 _symmetry_equiv_pos_site_id
 _symmetry_equiv_pos_as_xyz
  1  'x, y, z'
loop_
 _atom_site_type_symbol
 _atom_site_label
 _atom_site_symmetry_multiplicity
 _atom_site_fract_x
 _atom_site_fract_y
 _atom_site_fract_z
 _atom_site_occupancy
 _atom_site_pbe_bader_spin_density
 _atom_site_pbe_cm5_charge
 _atom_site_pbe_ddec_charge
 _atom_site_pbe_ddec_spin_density
 _atom_site_pbe_ddec_sum_bond_order
 _atom_site_pbe_magmom
Cu  Cu0  1  0.99999204  0.00000667  0.50000091  1  0  0.713931  0.795633  0  2.315201  0
Cu  Cu1  1  0.49999897  0.00000424  0.50000265  1  0  0.712645  0.79375  0  2.31608  0
H  H2  1  0.36118620  0.72590554  0.54769136  1  0  0.301927  0.395118  0  0.892843  0
H  H3  1  0.63880642  0.27410547  0.45230302  1  0  0.301906  0.39512  0  0.892772  0
H  H4  1  0.96525116  0.19395976  0.15712304  1  0  0.125142  0.102733  0  1.027063  0
H  H5  1  0.31432629  0.80528206  0.84306078  1  0  0.123849  0.10104  0  1.029915  0
H  H6  1  0.03474114  0.80606162  0.84287536  1  0  0.125119  0.102652  0  1.027043  0
H  H7  1  0.68566074  0.19470405  0.15694782  1  0  0.123913  0.101126  0  1.029919  0
H  H8  1  0.21098021  0.32015622  0.87548584  1  0  0.112921  0.122369  0  1.055309  0
H  H9  1  0.40287175  0.67969343  0.12467697  1  0  0.113142  0.122758  0  1.054554  0
H  H10  1  0.78904055  0.67981678  0.12451552  1  0  0.112915  0.122379  0  1.055326  0
H  H11  1  0.59713875  0.32027457  0.87533310  1  0  0.113149  0.122765  0  1.054683  0
C  C12  1  0.13226889  0.19712549  0.14277167  1  0  0.069215  0.079209  0  3.883207  0
C  C13  1  0.47003260  0.80241989  0.85729447  1  0  0.069128  0.077094  0  3.882891  0
C  C14  1  0.86774291  0.80285815  0.85722760  1  0  0.069283  0.079398  0  3.882693  0
C  C15  1  0.52997658  0.19756091  0.14270095  1  0  0.069044  0.076934  0  3.883072  0
C  C16  1  0.26967742  0.26821584  0.98874745  1  0  -0.054146  -0.056081  0  3.881421  0
C  C17  1  0.52367951  0.73149636  0.01130566  1  0  -0.054136  -0.055726  0  3.878534  0
C  C18  1  0.73030803  0.73178672  0.01126448  1  0  -0.054145  -0.056154  0  3.88125  0
C  C19  1  0.47632629  0.26849523  0.98868509  1  0  -0.054116  -0.055736  0  3.878501  0
N  N20  1  0.19560922  0.12782893  0.28580912  1  0  -0.20589  -0.078097  0  3.579137  0
N  N21  1  0.60785887  0.87205138  0.71418238  1  0  -0.202461  -0.070098  0  3.572222  0
N  N22  1  0.80438474  0.87218614  0.71419468  1  0  -0.205939  -0.078149  0  3.579158  0
N  N23  1  0.39214893  0.12796448  0.28580655  1  0  -0.202471  -0.070018  0  3.572272  0
N  N24  1  0.00044500  0.68142371  0.31338139  1  0  0.095043  0.74757  0  4.381143  0
N  N25  1  0.99956178  0.31858119  0.68661522  1  0  0.095024  0.747593  0  4.381153  0
O  O26  1  0.28243762  0.85549735  0.57771876  1  0  -0.577809  -0.81446  0  2.215561  0
O  O27  1  0.71754969  0.14450548  0.42228774  1  0  -0.577835  -0.814527  0  2.215698  0
O  O28  1  0.11550061  0.72471930  0.37136708  1  0  -0.214173  -0.503088  0  2.01812  0
O  O29  1  0.21524786  0.27561189  0.62840214  1  0  -0.214555  -0.502434  0  2.018624  0
O  O30  1  0.88450474  0.27529477  0.62862713  1  0  -0.214177  -0.50311  0  2.018198  0
O  O31  1  0.78475518  0.72440100  0.37158523  1  0  -0.214584  -0.502457  0  2.018633  0
O  O32  1  0.10189527  0.59621355  0.19456973  1  0  -0.200415  -0.462528  0  1.964609  0
O  O33  1  0.89811589  0.40378667  0.80543015  1  0  -0.200445  -0.462577  0  1.964525  0
