# generated using pymatgen
data_ZnH12C22(NO)4
_symmetry_space_group_name_H-M   'P 1'
_cell_length_a   9.89550917
_cell_length_b   10.98548538
_cell_length_c   10.89455846
_cell_angle_alpha   89.89579972
_cell_angle_beta   89.20757846
_cell_angle_gamma   99.39551820
_symmetry_Int_Tables_number   1
_chemical_formula_structural   ZnH12C22(NO)4
_chemical_formula_sum   'Zn2 H24 C44 N8 O8'
_cell_volume   1168.30507659
_cell_formula_units_Z   2
loop_
 _symmetry_equiv_pos_site_id
 _symmetry_equiv_pos_as_xyz
  1  'x, y, z'
loop_
 _atom_site_type_symbol
 _atom_site_label
 _atom_site_symmetry_multiplicity
 _atom_site_fract_x
 _atom_site_fract_y
 _atom_site_fract_z
 _atom_site_occupancy
 _atom_site_pbe_bader_charge
 _atom_site_pbe_bader_spin_density
 _atom_site_pbe_cm5_charge
 _atom_site_pbe_ddec_charge
 _atom_site_pbe_ddec_spin_density
 _atom_site_pbe_ddec_sum_bond_order
 _atom_site_pbe_magmom
Zn  Zn0  1  0.64872282  0.51986073  0.49349988  1  1.321944  0  0.699045  0.892418  0  2.25603  0
Zn  Zn1  1  0.35283843  0.48086424  0.50637029  1  1.298783  0  0.682748  0.842172  0  2.321394  0
H  H2  1  0.32598440  0.09124394  0.38654731  1  0.052592  0  0.10759  0.115962  0  1.001291  0
H  H3  1  0.27808671  0.39289729  0.11006392  1  0.098586  0  0.109304  0.122628  0  0.993682  0
H  H4  1  0.70694082  0.23189427  0.65108174  1  0.163195  0  0.114519  0.133132  0  1.006691  0
H  H5  1  0.66122665  0.71125216  0.20133499  1  0.114309  0  0.11616  0.131715  0  1.003534  0
H  H6  1  0.19080126  0.25147722  0.46928757  1  0.16616  0  0.113342  0.132306  0  1.053328  0
H  H7  1  0.05495376  0.11254506  0.31713445  1  0.12112  0  0.115604  0.121052  0  0.97917  0
H  H8  1  0.89164289  0.07639669  0.16741906  1  0.100226  0  0.094923  0.143837  0  1.032034  0
H  H9  1  0.74055581  0.14607384  0.18119585  1  0.073811  0  0.099092  0.140037  0  0.981765  0
H  H10  1  0.87875737  0.21370720  0.08635661  1  0.090837  0  0.103639  0.151503  0  0.981179  0
H  H11  1  0.66697324  0.33533605  0.23464633  1  0.099718  0  0.09791  0.142831  0  0.987242  0
H  H12  1  0.75109255  0.48831493  0.25969829  1  0.086342  0  0.093142  0.135388  0  1.06656  0
H  H13  1  0.80551518  0.39988833  0.13834188  1  0.033983  0  0.095533  0.133057  0  0.999219  0
H  H14  1  0.09385637  0.04923138  0.57655818  1  0.059416  0  0.096217  0.140539  0  0.998749  0
H  H15  1  0.03467347  0.93183565  0.68409181  1  0.097745  0  0.105242  0.157579  0  0.984175  0
H  H16  1  0.03880328  0.89521970  0.52539500  1  0.064156  0  0.092401  0.131341  0  1.035101  0
H  H17  1  0.06721352  0.62642650  0.03447051  1  0.058338  0  0.102846  0.150383  0  0.968111  0
H  H18  1  0.03673380  0.56150681  0.88584137  1  0.066011  0  0.093505  0.133684  0  1.038038  0
H  H19  1  0.05536647  0.72373616  0.90752142  1  0.10456  0  0.104481  0.156495  0  0.988595  0
H  H20  1  0.31182940  0.77545320  0.29699641  1  0.075313  0  0.096792  0.147542  0  0.987247  0
H  H21  1  0.20932350  0.80751480  0.42161757  1  0.050435  0  0.093123  0.137559  0  1.010446  0
H  H22  1  0.23533053  0.91206049  0.29598489  1  0.036795  0  0.091135  0.12972  0  1.008129  0
H  H23  1  0.28339384  0.30965352  0.78776748  1  0.055217  0  0.095141  0.145111  0  0.992016  0
H  H24  1  0.19441775  0.29571480  0.93141461  1  0.070957  0  0.093013  0.137339  0  1.010961  0
H  H25  1  0.19042251  0.42488356  0.83564734  1  0.070124  0  0.094081  0.141598  0  1.003624  0
C  C26  1  0.45710419  0.51042637  0.26577570  1  1.537703  0  0.216641  0.589197  0  4.156373  0
C  C27  1  0.50497767  0.26288984  0.49536265  1  1.578693  0  0.222947  0.597836  0  4.159593  0
C  C28  1  0.51021073  0.48368597  0.73611262  1  1.575823  0  0.223241  0.610647  0  4.143008  0
C  C29  1  0.50770444  0.73579272  0.48359202  1  1.5653  0  0.217406  0.602268  0  4.140065  0
C  C30  1  0.72379165  0.14419541  0.61231714  1  0.059778  0  -0.057248  -0.115111  0  3.882096  0
C  C31  1  0.68823230  0.66480603  0.11888687  1  0.002046  0  -0.054974  -0.106974  0  3.892423  0
C  C32  1  0.83851067  0.09531838  0.64582002  1  -0.031556  0  0.005263  -0.004407  0  4.067272  0
C  C33  1  0.81735261  0.69821885  0.06650930  1  0.100222  0  0.006737  -0.004427  0  4.05442  0
C  C34  1  0.87563030  0.99280843  0.58024133  1  0.118318  0  0.024055  0.134755  0  3.905163  0
C  C35  1  0.86275080  0.62358181  0.97236884  1  0.056434  0  0.026669  0.139638  0  3.903448  0
C  C36  1  0.77495211  0.92366797  0.50915655  1  0.118443  0  0.005678  -0.048506  0  4.002688  0
C  C37  1  0.76267696  0.54261085  0.91049574  1  0.097973  0  0.003069  -0.060881  0  4.005273  0
C  C38  1  0.63906258  0.95449270  0.49977174  1  0.02376  0  0.020271  0.06347  0  3.896462  0
C  C39  1  0.61943428  0.52817863  0.94586936  1  -0.018866  0  0.021645  0.059295  0  3.893304  0
C  C40  1  0.62639445  0.07839820  0.53197168  1  -0.038039  0  -7e-05  0.043373  0  3.983392  0
C  C41  1  0.59202495  0.56973551  0.06689937  1  0.044654  0  0.002855  0.050633  0  3.970611  0
C  C42  1  0.51066925  0.12735033  0.48848190  1  -0.039303  0  -0.000267  -0.036342  0  3.930955  0
C  C43  1  0.46840197  0.51319578  0.12817282  1  -0.022617  0  -0.007306  -0.059322  0  3.929602  0
C  C44  1  0.40992348  0.05154799  0.42578677  1  0.055444  0  -0.084656  -0.168833  0  3.938315  0
C  C45  1  0.36867147  0.44038317  0.06148249  1  0.008924  0  -0.077732  -0.14852  0  3.923725  0
C  C46  1  0.40821569  0.92294872  0.41458220  1  -0.011168  0  0.018079  0.199098  0  3.900916  0
C  C47  1  0.37938794  0.42806049  0.93260505  1  -0.015974  0  0.016777  0.194094  0  3.913782  0
C  C48  1  0.52007527  0.87229747  0.45885159  1  -0.001182  0  -0.012086  -0.15111  0  3.830186  0
C  C49  1  0.50469842  0.47370695  0.87401725  1  0.023547  0  -0.008108  -0.138932  0  3.836341  0
C  C50  1  0.09804996  0.27440590  0.42878795  1  -0.032558  0  -0.083953  -0.164451  0  3.973164  0
C  C51  1  0.02448045  0.20014390  0.34343914  1  -0.026138  0  -0.061344  -0.084447  0  3.917767  0
C  C52  1  0.91469630  0.23924628  0.27990557  1  -0.018254  0  0.018618  0.148317  0  3.88892  0
C  C53  1  0.86778813  0.34832158  0.31332833  1  0.072219  0  0.008775  0.062636  0  3.878187  0
C  C54  1  0.92690702  0.41516572  0.41671640  1  0.473287  0  0.136957  0.141301  0  3.864492  0
C  C55  1  0.05438475  0.38566556  0.46249965  1  0.427984  0  0.132823  0.186641  0  3.961243  0
C  C56  1  0.08566023  0.56359141  0.57844735  1  0.698959  0  0.163107  0.145917  0  4.012893  0
C  C57  1  0.94538619  0.57414736  0.55830213  1  0.736956  0  0.161481  0.144694  0  4.045567  0
C  C58  1  0.85310229  0.16421314  0.17396487  1  -0.12502  0  -0.232519  -0.417556  0  3.930742  0
C  C59  1  0.76686356  0.39594754  0.23376617  1  -0.09095  0  -0.246628  -0.414817  0  3.980304  0
C  C60  1  0.88876204  0.66007801  0.63318611  1  0.851511  0  0.192192  0.189212  0  3.99118  0
C  C61  1  0.92103238  0.14074879  0.74722355  1  0.871441  0  0.183835  0.255579  0  4.017482  0
C  C62  1  0.91077134  0.80203509  0.10843964  1  0.863137  0  0.190757  0.270179  0  4.007562  0
C  C63  1  0.01820385  0.96527657  0.59119238  1  -0.098061  0  -0.238435  -0.432843  0  3.963155  0
C  C64  1  0.01315159  0.63350926  0.94785295  1  -0.09336  0  -0.236815  -0.432222  0  3.958941  0
C  C65  1  0.81611551  0.82914109  0.43504939  1  0.855342  0  0.184018  0.275117  0  4.059229  0
C  C66  1  0.81384253  0.46413245  0.82352612  1  0.851151  0  0.185242  0.276673  0  4.054587  0
C  C67  1  0.28527419  0.85066792  0.35345194  1  -0.047815  0  -0.238507  -0.412641  0  3.942831  0
C  C68  1  0.25645553  0.36060401  0.86834848  1  -0.032797  0  -0.242809  -0.42186  0  3.959259  0
C  C69  1  0.16699871  0.65566850  0.65023937  1  0.870835  0  0.196459  0.212592  0  3.975952  0
N  N70  1  0.13684925  0.46845733  0.53250728  1  -1.191961  0  -0.272095  -0.214281  0  3.401839  0
N  N71  1  0.87027366  0.50639872  0.47459855  1  -1.164034  0  -0.259398  -0.219302  0  3.356576  0
N  N72  1  0.85248938  0.72930369  0.70257557  1  -1.048697  0  -0.244153  -0.252766  0  2.749838  0
N  N73  1  0.98563779  0.16388729  0.83556959  1  -1.139592  0  -0.295387  -0.353678  0  2.75146  0
N  N74  1  0.98939017  0.88886847  0.13533752  1  -1.159748  0  -0.305205  -0.374477  0  2.746839  0
N  N75  1  0.86226508  0.75974264  0.37196527  1  -1.189464  0  -0.320968  -0.40212  0  2.843366  0
N  N76  1  0.87349342  0.40383134  0.76093414  1  -1.172698  0  -0.316964  -0.396541  0  2.839961  0
N  N77  1  0.22280699  0.73555774  0.71069700  1  -1.055595  0  -0.256716  -0.267485  0  2.658169  0
O  O78  1  0.56659119  0.54870284  0.32396662  1  -1.188584  0  -0.304619  -0.559497  0  2.460356  0
O  O79  1  0.61685645  0.33354320  0.46980390  1  -1.159642  0  -0.300624  -0.538714  0  2.408232  0
O  O80  1  0.34345858  0.46406071  0.31651916  1  -1.157208  0  -0.315013  -0.535033  0  2.282248  0
O  O81  1  0.39113564  0.29736992  0.52035841  1  -1.170604  0  -0.305124  -0.542029  0  2.330564  0
O  O82  1  0.62257505  0.48040994  0.67925918  1  -1.16065  0  -0.29761  -0.542237  0  2.405591  0
O  O83  1  0.61275156  0.69577230  0.52440125  1  -1.159365  0  -0.302817  -0.546778  0  2.417021  0
O  O84  1  0.39947367  0.50101927  0.68596683  1  -1.154312  0  -0.303669  -0.533742  0  2.397652  0
O  O85  1  0.39081046  0.66943984  0.47061243  1  -1.154747  0  -0.302302  -0.537211  0  2.388592  0
