# generated using pymatgen
data_SmH16C15O11
_symmetry_space_group_name_H-M   'P 1'
_cell_length_a   8.01155170
_cell_length_b   9.42703985
_cell_length_c   12.82003729
_cell_angle_alpha   105.29199223
_cell_angle_beta   95.69621743
_cell_angle_gamma   109.46273597
_symmetry_Int_Tables_number   1
_chemical_formula_structural   SmH16C15O11
_chemical_formula_sum   'Sm2 H32 C30 O22'
_cell_volume   861.74570648
_cell_formula_units_Z   2
loop_
 _symmetry_equiv_pos_site_id
 _symmetry_equiv_pos_as_xyz
  1  'x, y, z'
loop_
 _atom_site_type_symbol
 _atom_site_label
 _atom_site_symmetry_multiplicity
 _atom_site_fract_x
 _atom_site_fract_y
 _atom_site_fract_z
 _atom_site_occupancy
 _atom_site_hle17_bader_spin_density
 _atom_site_hle17_ddec_charge
 _atom_site_hle17_ddec_spin_density
 _atom_site_hle17_ddec_sum_bond_order
 _atom_site_hle17_magmom
 _atom_site_hse06_10hf_bader_spin_density
 _atom_site_hse06_10hf_ddec_charge
 _atom_site_hse06_10hf_ddec_spin_density
 _atom_site_hse06_10hf_ddec_sum_bond_order
 _atom_site_hse06_10hf_magmom
 _atom_site_hse06_bader_spin_density
 _atom_site_hse06_ddec_charge
 _atom_site_hse06_ddec_spin_density
 _atom_site_hse06_ddec_sum_bond_order
 _atom_site_hse06_magmom
 _atom_site_pbe_bader_spin_density
 _atom_site_pbe_cm5_charge
 _atom_site_pbe_ddec_charge
 _atom_site_pbe_ddec_spin_density
 _atom_site_pbe_ddec_sum_bond_order
 _atom_site_pbe_magmom
Sm  Sm0  1  0.63728859  0.22398011  0.51462762  1  0  2.269665  0  1.620778  0  0  2.113463  0  2.085208  0  0  2.22391  0  1.921056  0  0  1.496997  2.079609  0  2.117126  0
Sm  Sm1  1  0.36270654  0.77601414  0.48536967  1  0  2.269667  0  1.620638  0  0  2.113525  0  2.084947  0  0  2.223917  0  1.920892  0  0  1.49699  2.079688  0  2.116829  0
H  H2  1  0.53420417  0.01331103  0.80928909  1  0  0.095726  0  0.915442  0  0  0.105447  0  0.979816  0  0  0.107083  0  0.979128  0  0  0.115335  0.104308  0  0.98032  0
H  H3  1  0.46580112  0.98668354  0.19070732  1  0  0.095759  0  0.915431  0  0  0.105409  0  0.979846  0  0  0.107037  0  0.979163  0  0  0.115279  0.104264  0  0.980356  0
H  H4  1  0.71173845  0.94416889  0.77924919  1  0  0.094648  0  0.932896  0  0  0.102154  0  1.004155  0  0  0.103786  0  1.002908  0  0  0.115467  0.101036  0  1.004925  0
H  H5  1  0.28827497  0.05584016  0.22075661  1  0  0.094569  0  0.933003  0  0  0.102067  0  1.004205  0  0  0.103698  0  1.002955  0  0  0.115438  0.100955  0  1.004963  0
H  H6  1  0.59161126  0.88568328  0.92897887  1  0  0.104906  0  0.972263  0  0  0.114754  0  1.035656  0  0  0.117769  0  1.034553  0  0  0.101218  0.112611  0  1.036486  0
H  H7  1  0.40839787  0.11431149  0.07102016  1  0  0.104841  0  0.972637  0  0  0.11477  0  1.035927  0  0  0.11777  0  1.034824  0  0  0.101258  0.112629  0  1.036751  0
H  H8  1  0.66180487  0.80609263  0.08779880  1  0  0.094249  0  1.008469  0  0  0.103492  0  1.074072  0  0  0.104925  0  1.075877  0  0  0.094709  0.102372  0  1.073055  0
H  H9  1  0.33820577  0.19390924  0.91220317  1  0  0.094223  0  1.008435  0  0  0.103442  0  1.074068  0  0  0.104873  0  1.075878  0  0  0.094698  0.102326  0  1.073044  0
H  H10  1  0.09420927  0.26186917  0.24082183  1  0  0.104069  0  0.97791  0  0  0.116169  0  1.038208  0  0  0.120116  0  1.034671  0  0  0.101236  0.113373  0  1.040712  0
H  H11  1  0.90580591  0.73813153  0.75917397  1  0  0.104109  0  0.977829  0  0  0.116163  0  1.038185  0  0  0.120113  0  1.034642  0  0  0.101207  0.113366  0  1.04069  0
H  H12  1  0.03279354  0.33808960  0.07291358  1  0  0.109902  0  0.942626  0  0  0.12259  0  0.998972  0  0  0.125575  0  0.997317  0  0  0.107316  0.120386  0  1.000331  0
H  H13  1  0.96720563  0.66191184  0.92708683  1  0  0.109897  0  0.942633  0  0  0.122568  0  0.998997  0  0  0.125553  0  0.997344  0  0  0.107296  0.120365  0  1.000357  0
H  H14  1  0.93722429  0.80866275  0.32278490  1  0  0.092279  0  0.936929  0  0  0.10241  0  1.002522  0  0  0.104748  0  0.999885  0  0  0.115876  0.10073  0  1.004451  0
H  H15  1  0.06276820  0.19134089  0.67721863  1  0  0.092346  0  0.936763  0  0  0.102431  0  1.00241  0  0  0.104768  0  0.999769  0  0  0.115871  0.100726  0  1.004359  0
H  H16  1  0.75221417  0.76203644  0.21647172  1  0  0.092678  0  0.960264  0  0  0.101805  0  1.025981  0  0  0.103144  0  1.025408  0  0  0.111723  0.10087  0  1.026332  0
H  H17  1  0.24778847  0.23796749  0.78353014  1  0  0.092673  0  0.960311  0  0  0.101794  0  1.026017  0  0  0.10313  0  1.025443  0  0  0.111716  0.100854  0  1.026365  0
H  H18  1  0.35559850  0.33736826  0.21570027  1  0  0.085179  0  0.948217  0  0  0.09309  0  1.020328  0  0  0.094234  0  1.019676  0  0  0.112287  0.092268  0  1.020688  0
H  H19  1  0.64440917  0.66263242  0.78430443  1  0  0.085182  0  0.948207  0  0  0.093132  0  1.020254  0  0  0.094278  0  1.019599  0  0  0.112326  0.092316  0  1.020616  0
H  H20  1  0.50246680  0.53056783  0.30203278  1  0  0.095862  0  0.963218  0  0  0.10416  0  1.030413  0  0  0.106876  0  1.028881  0  0  0.116014  0.101797  0  1.032666  0
H  H21  1  0.49752888  0.46943110  0.69796462  1  0  0.095947  0  0.963091  0  0  0.104233  0  1.030296  0  0  0.106952  0  1.02876  0  0  0.116047  0.101875  0  1.032548  0
H  H22  1  0.75063129  0.40106942  0.00834373  1  0  0.123538  0  0.952011  0  0  0.131348  0  1.013918  0  0  0.135512  0  1.010772  0  0  0.10996  0.128422  0  1.016145  0
H  H23  1  0.24934940  0.59893945  0.99165301  1  0  0.123589  0  0.951997  0  0  0.131434  0  1.013851  0  0  0.135598  0  1.010712  0  0  0.109963  0.128503  0  1.016078  0
H  H24  1  0.34080747  0.53499005  0.15615978  1  0  0.114543  0  0.960181  0  0  0.125924  0  1.019723  0  0  0.129356  0  1.017782  0  0  0.109437  0.12355  0  1.021043  0
H  H25  1  0.65916719  0.46500330  0.84382908  1  0  0.11458  0  0.960295  0  0  0.126015  0  1.019756  0  0  0.129446  0  1.017818  0  0  0.109503  0.123642  0  1.021073  0
H  H26  1  0.68655325  0.57394861  0.58538174  1  0  0.438921  0  0.863742  0  0  0.40902  0  0.925744  0  0  0.42065  0  0.909045  0  0  0.29645  0.400999  0  0.937321  0
H  H27  1  0.31345425  0.42604844  0.41461760  1  0  0.438945  0  0.863689  0  0  0.409085  0  0.925656  0  0  0.420715  0  0.908957  0  0  0.296459  0.401062  0  0.937236  0
H  H28  1  0.87051373  0.55918802  0.55940255  1  0  0.442652  0  0.847183  0  0  0.41798  0  0.899203  0  0  0.428353  0  0.884282  0  0  0.306492  0.410731  0  0.909781  0
H  H29  1  0.12948847  0.44080181  0.44059437  1  0  0.442696  0  0.847106  0  0  0.418018  0  0.899141  0  0  0.428392  0  0.884216  0  0  0.306526  0.410766  0  0.909723  0
H  H30  1  0.06679807  0.37116250  0.59367152  1  0  0.448987  0  0.794651  0  0  0.430338  0  0.847224  0  0  0.438197  0  0.839526  0  0  0.341928  0.424754  0  0.853278  0
H  H31  1  0.93320074  0.62883795  0.40633571  1  0  0.449051  0  0.794607  0  0  0.430369  0  0.847201  0  0  0.438235  0  0.839496  0  0  0.341935  0.424773  0  0.853279  0
H  H32  1  0.97320634  0.22418623  0.48210092  1  0  0.444957  0  0.839794  0  0  0.41392  0  0.904129  0  0  0.425053  0  0.887921  0  0  0.316428  0.405624  0  0.916402  0
H  H33  1  0.02680050  0.77581225  0.51790957  1  0  0.444988  0  0.839733  0  0  0.413951  0  0.904088  0  0  0.425086  0  0.887877  0  0  0.316426  0.40566  0  0.916354  0
C  C34  1  0.68855903  0.11116625  0.70198816  1  0  0.728584  0  3.814507  0  0  0.681273  0  4.115228  0  0  0.714765  0  4.111307  0  0  0.220177  0.658255  0  4.121935  0
C  C35  1  0.31144588  0.88882729  0.29801350  1  0  0.728529  0  3.814035  0  0  0.681144  0  4.114778  0  0  0.714635  0  4.110864  0  0  0.220079  0.658133  0  4.121477  0
C  C36  1  0.67691996  0.05066308  0.80014648  1  0  -0.061493  0  3.636451  0  0  -0.116352  0  3.893739  0  0  -0.113226  0  3.894253  0  0  -0.057661  -0.11835  0  3.89284  0
C  C37  1  0.32308386  0.94933740  0.19985560  1  0  -0.061546  0  3.636478  0  0  -0.116169  0  3.893454  0  0  -0.113031  0  3.893965  0  0  -0.057596  -0.11817  0  3.892553  0
C  C38  1  0.81431714  0.11495893  0.98765091  1  0  0.241863  0  3.811005  0  0  0.231099  0  4.075187  0  0  0.239694  0  4.093164  0  0  0.071052  0.225037  0  4.062967  0
C  C39  1  0.18568367  0.88504024  0.01234919  1  0  0.241835  0  3.811098  0  0  0.231033  0  4.075394  0  0  0.239628  0  4.093369  0  0  0.070999  0.224966  0  4.06318  0
C  C40  1  0.70665789  0.96814298  0.99456689  1  0  -0.18093  0  3.783117  0  0  -0.200886  0  4.03846  0  0  -0.205322  0  4.060568  0  0  -0.111411  -0.197905  0  4.023675  0
C  C41  1  0.29335319  0.03186006  0.00543455  1  0  -0.181038  0  3.783392  0  0  -0.201056  0  4.03875  0  0  -0.20547  0  4.060872  0  0  -0.111522  -0.198076  0  4.023966  0
C  C42  1  0.74544207  0.92354000  0.08744643  1  0  -0.183622  0  3.787311  0  0  -0.203084  0  4.039702  0  0  -0.207048  0  4.06165  0  0  -0.114722  -0.200385  0  4.025064  0
C  C43  1  0.25456766  0.07645952  0.91255584  1  0  -0.183491  0  3.787221  0  0  -0.202935  0  4.039658  0  0  -0.2069  0  4.061605  0  0  -0.11469  -0.200238  0  4.025015  0
C  C44  1  0.89053563  0.02676516  0.17367227  1  0  0.251046  0  3.796042  0  0  0.239991  0  4.061435  0  0  0.249455  0  4.077122  0  0  0.069588  0.233424  0  4.050694  0
C  C45  1  0.10947591  0.97323906  0.82632941  1  0  0.251092  0  3.796041  0  0  0.23998  0  4.061447  0  0  0.249434  0  4.077142  0  0  0.069582  0.233418  0  4.050703  0
C  C46  1  0.98916916  0.17837655  0.16982616  1  0  -0.155284  0  3.765987  0  0  -0.178364  0  4.023409  0  0  -0.180398  0  4.03973  0  0  -0.104773  -0.176825  0  4.012214  0
C  C47  1  0.01084408  0.82162884  0.83017350  1  0  -0.155365  0  3.765976  0  0  -0.178399  0  4.023386  0  0  -0.180435  0  4.03971  0  0  -0.104722  -0.176854  0  4.012183  0
C  C48  1  0.95288200  0.22184732  0.07747067  1  0  -0.141438  0  3.752517  0  0  -0.16321  0  4.008001  0  0  -0.16543  0  4.026154  0  0  -0.097311  -0.161562  0  3.995704  0
C  C49  1  0.04712400  0.77815556  0.92253120  1  0  -0.141412  0  3.752645  0  0  -0.163153  0  4.008103  0  0  -0.165373  0  4.026259  0  0  -0.097304  -0.161512  0  3.995818  0
C  C50  1  0.84485604  0.85744851  0.28925435  1  0  -0.068771  0  3.626617  0  0  -0.123984  0  3.880085  0  0  -0.120537  0  3.879063  0  0  -0.062622  -0.126112  0  3.879805  0
C  C51  1  0.15514234  0.14255412  0.71074779  1  0  -0.068829  0  3.626314  0  0  -0.124006  0  3.879709  0  0  -0.120554  0  3.878661  0  0  -0.062621  -0.126099  0  3.879428  0
C  C52  1  0.73706025  0.90099395  0.37590727  1  0  0.737479  0  3.797797  0  0  0.692648  0  4.09392  0  0  0.726854  0  4.086838  0  0  0.236156  0.669695  0  4.100182  0
C  C53  1  0.26293960  0.09900279  0.62408998  1  0  0.737473  0  3.798077  0  0  0.692628  0  4.094214  0  0  0.72683  0  4.087137  0  0  0.236188  0.669674  0  4.10047  0
C  C54  1  0.54951056  0.34163692  0.34309620  1  0  0.658448  0  3.895638  0  0  0.609786  0  4.20123  0  0  0.641412  0  4.199864  0  0  0.193825  0.587624  0  4.205987  0
C  C55  1  0.45049168  0.65836923  0.65690214  1  0  0.658109  0  3.895903  0  0  0.609414  0  4.201569  0  0  0.64104  0  4.200203  0  0  0.19362  0.587243  0  4.206342  0
C  C56  1  0.49718281  0.41117258  0.25795143  1  0  -0.083015  0  3.673967  0  0  -0.136701  0  3.931675  0  0  -0.134014  0  3.931942  0  0  -0.07022  -0.138247  0  3.930903  0
C  C57  1  0.50281719  0.58883105  0.74204241  1  0  -0.082982  0  3.673768  0  0  -0.136601  0  3.931475  0  0  -0.133914  0  3.931738  0  0  -0.070244  -0.138166  0  3.930731  0
C  C58  1  0.55328343  0.46237108  0.09311874  1  0  0.2299  0  3.826637  0  0  0.221869  0  4.090073  0  0  0.230498  0  4.106963  0  0  0.066903  0.215819  0  4.078493  0
C  C59  1  0.44668945  0.53763056  0.90687854  1  0  0.230069  0  3.826191  0  0  0.221947  0  4.089809  0  0  0.230576  0  4.106705  0  0  0.066881  0.215905  0  4.078218  0
C  C60  1  0.64236379  0.44622342  0.00508727  1  0  -0.14535  0  3.747219  0  0  -0.168326  0  4.002844  0  0  -0.170062  0  4.01898  0  0  -0.098885  -0.166981  0  3.991756  0
C  C61  1  0.35761623  0.55377392  0.99491434  1  0  -0.145541  0  3.747204  0  0  -0.16846  0  4.002817  0  0  -0.170208  0  4.018963  0  0  -0.098808  -0.16712  0  3.991741  0
C  C62  1  0.41072305  0.51728915  0.08817035  1  0  -0.191807  0  3.779143  0  0  -0.212399  0  4.035515  0  0  -0.215898  0  4.054583  0  0  -0.108638  -0.209856  0  4.022375  0
C  C63  1  0.58925887  0.48270343  0.91182427  1  0  -0.192054  0  3.778942  0  0  -0.212629  0  4.035337  0  0  -0.216127  0  4.0544  0  0  -0.108681  -0.210087  0  4.022201  0
O  O64  1  0.78199863  0.25105856  0.70722500  1  0  -0.662189  0  1.897303  0  0  -0.620835  0  2.127264  0  0  -0.6497  0  2.114777  0  0  -0.355415  -0.605685  0  2.134453  0
O  O65  1  0.21799785  0.74892625  0.29276519  1  0  -0.662114  0  1.897022  0  0  -0.62075  0  2.126973  0  0  -0.649606  0  2.114494  0  0  -0.355291  -0.605609  0  2.134163  0
O  O66  1  0.59022726  0.00918765  0.60910609  1  0  -0.860387  0  2.185668  0  0  -0.802654  0  2.454004  0  0  -0.844256  0  2.442378  0  0  -0.46098  -0.78376  0  2.459886  0
O  O67  1  0.40978099  0.99081775  0.39090028  1  0  -0.860349  0  2.185316  0  0  -0.802627  0  2.453736  0  0  -0.844234  0  2.44211  0  0  -0.460997  -0.783737  0  2.459619  0
O  O68  1  0.79516643  0.16641432  0.89731221  1  0  -0.256125  0  2.328923  0  0  -0.189646  0  2.561984  0  0  -0.205619  0  2.563897  0  0  -0.180606  -0.178245  0  2.560089  0
O  O69  1  0.20482729  0.83358925  0.10268748  1  0  -0.256  0  2.328925  0  0  -0.18962  0  2.561972  0  0  -0.205596  0  2.563887  0  0  -0.180553  -0.17821  0  2.560072  0
O  O70  1  0.95559434  0.99072975  0.26374264  1  0  -0.262067  0  2.322332  0  0  -0.197225  0  2.558183  0  0  -0.212087  0  2.558198  0  0  -0.187563  -0.186448  0  2.557439  0
O  O71  1  0.04439926  0.00926697  0.73626203  1  0  -0.262065  0  2.32222  0  0  -0.197135  0  2.557992  0  0  -0.21198  0  2.557986  0  0  -0.187499  -0.186364  0  2.557237  0
O  O72  1  0.78333921  0.04673772  0.43066387  1  0  -0.741207  0  2.088637  0  0  -0.684015  0  2.334481  0  0  -0.71782  0  2.321074  0  0  -0.379414  -0.665864  0  2.342219  0
O  O73  1  0.21665130  0.95325426  0.56934131  1  0  -0.741212  0  2.088737  0  0  -0.684019  0  2.334573  0  0  -0.717816  0  2.32117  0  0  -0.379438  -0.665872  0  2.342304  0
O  O74  1  0.60900551  0.78766401  0.38838713  1  0  -0.712031  0  1.994366  0  0  -0.660983  0  2.242293  0  0  -0.695321  0  2.230134  0  0  -0.380465  -0.642891  0  2.248546  0
O  O75  1  0.39098589  0.21233359  0.61160976  1  0  -0.712034  0  1.994571  0  0  -0.660982  0  2.242505  0  0  -0.695329  0  2.230346  0  0  -0.380488  -0.642892  0  2.248763  0
O  O76  1  0.44546107  0.32576353  0.41343491  1  0  -0.712944  0  2.009528  0  0  -0.657002  0  2.24411  0  0  -0.688949  0  2.233974  0  0  -0.375316  -0.638878  0  2.250021  0
O  O77  1  0.55455360  0.67423256  0.58656314  1  0  -0.712711  0  2.009307  0  0  -0.656773  0  2.243915  0  0  -0.688713  0  2.233784  0  0  -0.37514  -0.638645  0  2.249819  0
O  O78  1  0.68563740  0.30246670  0.34733418  1  0  -0.649891  0  1.930121  0  0  -0.607615  0  2.164944  0  0  -0.63655  0  2.155166  0  0  -0.369634  -0.59234  0  2.170692  0
O  O79  1  0.31437354  0.69754570  0.65266973  1  0  -0.64975  0  1.930357  0  0  -0.607458  0  2.165179  0  0  -0.636383  0  2.155404  0  0  -0.369561  -0.592178  0  2.170926  0
O  O80  1  0.61187688  0.41927505  0.18058313  1  0  -0.253315  0  2.310705  0  0  -0.187938  0  2.541292  0  0  -0.202929  0  2.542129  0  0  -0.185566  -0.177077  0  2.53996  0
O  O81  1  0.38810458  0.58073258  0.81940953  1  0  -0.253356  0  2.310442  0  0  -0.188096  0  2.54118  0  0  -0.203091  0  2.542023  0  0  -0.185594  -0.177227  0  2.53985  0
O  O82  1  0.76540050  0.51075065  0.59017486  1  0  -0.926161  0  1.844957  0  0  -0.876888  0  2.032777  0  0  -0.905225  0  1.995776  0  0  -0.655535  -0.862778  0  2.054734  0
O  O83  1  0.23460573  0.48924633  0.40982361  1  0  -0.926173  0  1.844816  0  0  -0.876962  0  2.032528  0  0  -0.905293  0  1.995529  0  0  -0.655563  -0.86285  0  2.054493  0
O  O84  1  0.98941669  0.33574024  0.52081957  1  0  -0.852056  0  1.8566  0  0  -0.79663  0  2.035459  0  0  -0.821566  0  2.005323  0  0  -0.569892  -0.783115  0  2.054988  0
O  O85  1  0.01059088  0.66425693  0.47918448  1  0  -0.852145  0  1.856565  0  0  -0.796717  0  2.035426  0  0  -0.821662  0  2.005294  0  0  -0.569918  -0.783192  0  2.054971  0
