# generated using pymatgen
data_Hf3H18(C15O8)2
_symmetry_space_group_name_H-M   'P 1'
_cell_length_a   17.33230966
_cell_length_b   17.34696427
_cell_length_c   18.40770319
_cell_angle_alpha   89.82451554
_cell_angle_beta   89.79151977
_cell_angle_gamma   109.67712254
_symmetry_Int_Tables_number   1
_chemical_formula_structural   Hf3H18(C15O8)2
_chemical_formula_sum   'Hf6 H36 C60 O32'
_cell_volume   5211.23832635
_cell_formula_units_Z   2
loop_
 _symmetry_equiv_pos_site_id
 _symmetry_equiv_pos_as_xyz
  1  'x, y, z'
loop_
 _atom_site_type_symbol
 _atom_site_label
 _atom_site_symmetry_multiplicity
 _atom_site_fract_x
 _atom_site_fract_y
 _atom_site_fract_z
 _atom_site_occupancy
 _atom_site_pbe_bader_charge
 _atom_site_pbe_bader_spin_density
 _atom_site_pbe_cm5_charge
 _atom_site_pbe_ddec_charge
 _atom_site_pbe_ddec_spin_density
 _atom_site_pbe_ddec_sum_bond_order
 _atom_site_pbe_magmom
Hf  Hf0  1  0.88345454  0.89585730  0.09015633  1  2.614565  0  1.456022  2.151145  0  3.319303  0
Hf  Hf1  1  0.89396294  0.90769899  0.89827865  1  2.615235  0  1.455664  2.155601  0  3.317784  0
Hf  Hf2  1  0.05879283  0.07256545  0.10071283  1  2.609738  0  1.452989  2.139934  0  3.33413  0
Hf  Hf3  1  0.07098805  0.08245330  0.90935722  1  2.612429  0  1.452358  2.141758  0  3.333338  0
Hf  Hf4  1  0.06444457  0.90271531  0.99985522  1  2.61937  0  1.488995  2.125573  0  3.347715  0
Hf  Hf5  1  0.88925134  0.07677214  0.99960902  1  2.622849  0  1.49525  2.119792  0  3.355538  0
H  H6  1  0.76713556  0.91521841  0.99440344  1  0.589213  0  0.343212  0.429941  0  0.832498  0
H  H7  1  0.05238550  0.92809648  0.84730227  1  0.60739  0  0.336759  0.41692  0  0.855402  0
H  H8  1  0.05069440  0.19900177  0.00435810  1  0.611667  0  0.342824  0.429824  0  0.832397  0
H  H9  1  0.04169453  0.91753626  0.15220903  1  0.611178  0  0.33698  0.417409  0  0.854441  0
H  H10  1  0.92574936  0.88792903  0.75611098  1  0.592834  0  0.303839  0.390785  0  0.907591  0
H  H11  1  0.99288027  0.00638487  0.78239212  1  0.646807  0  0.285248  0.404552  0  0.937279  0
H  H12  1  0.22211016  0.18895179  0.91570382  1  0.600137  0  0.30544  0.394032  0  0.904768  0
H  H13  1  0.17713359  0.18763342  0.01784599  1  0.6261  0  0.286076  0.403115  0  0.939406  0
H  H14  1  0.02547891  0.08707435  0.23948931  1  0.588849  0  0.305109  0.394873  0  0.904127  0
H  H15  1  0.95873240  0.97191651  0.21694671  1  0.63786  0  0.284203  0.40283  0  0.940733  0
H  H16  1  0.78048372  0.74253870  0.08212357  1  0.589531  0  0.3055  0.393404  0  0.904978  0
H  H17  1  0.78092331  0.78821944  0.98165251  1  0.626411  0  0.285461  0.404148  0  0.939246  0
H  H18  1  0.21780253  0.16990711  0.09421924  1  0.627059  0  0.328768  0.411577  0  0.872771  0
H  H19  1  0.91424813  0.87352907  0.23735165  1  0.600172  0  0.329269  0.405312  0  0.873746  0
H  H20  1  0.79733329  0.74786771  0.90406774  1  0.609209  0  0.328275  0.40919  0  0.874253  0
H  H21  1  0.03193461  0.10586127  0.77038776  1  0.630307  0  0.328137  0.412708  0  0.871712  0
H  H22  1  0.60128195  0.99213936  0.33260096  1  0.097606  0  0.109623  0.115352  0  0.99664  0
H  H23  1  0.35148015  0.98953157  0.33102939  1  0.052029  0  0.10828  0.115053  0  0.996471  0
H  H24  1  0.47858787  0.99027472  0.12908396  1  0.112202  0  0.116475  0.127256  0  0.976056  0
H  H25  1  0.60343597  0.99580625  0.66390077  1  0.107339  0  0.109356  0.115673  0  0.996662  0
H  H26  1  0.35345275  0.99247759  0.66991228  1  0.067472  0  0.108507  0.113927  0  0.996866  0
H  H27  1  0.48458001  0.99788098  0.86955302  1  0.064332  0  0.116363  0.127331  0  0.976709  0
H  H28  1  0.96984782  0.48220251  0.12987398  1  0.056319  0  0.116978  0.12845  0  0.974307  0
H  H29  1  0.96724274  0.61067027  0.32968470  1  0.071963  0  0.107796  0.11169  0  0.999573  0
H  H30  1  0.97174902  0.36368380  0.33572375  1  0.108796  0  0.109948  0.115  0  0.996828  0
H  H31  1  0.97566077  0.48772245  0.86998483  1  0.058485  0  0.116957  0.127835  0  0.975157  0
H  H32  1  0.97024873  0.61327726  0.66845115  1  0.083497  0  0.10821  0.112696  0  0.998767  0
H  H33  1  0.97213302  0.36530425  0.66592767  1  0.073548  0  0.109816  0.11401  0  0.996364  0
H  H34  1  0.88995994  0.36355815  0.56807356  1  0.082114  0  0.104243  0.103908  0  0.998078  0
H  H35  1  0.04876387  0.61541344  0.56556521  1  0.057808  0  0.103861  0.103186  0  0.99895  0
H  H36  1  0.04823092  0.61465335  0.43171688  1  0.053895  0  0.103576  0.103403  0  0.998683  0
H  H37  1  0.88950166  0.36278043  0.43430544  1  0.056118  0  0.104306  0.10425  0  0.997913  0
H  H38  1  0.55260251  0.91623102  0.56651909  1  0.053617  0  0.104387  0.103628  0  0.999038  0
H  H39  1  0.39987629  0.06754165  0.56588658  1  0.060771  0  0.103922  0.103244  0  0.99928  0
H  H40  1  0.39928875  0.06635163  0.43227265  1  0.026503  0  0.10407  0.104227  0  0.99851  0
H  H41  1  0.55203394  0.91505254  0.43299525  1  0.057948  0  0.104332  0.104224  0  0.999162  0
C  C42  1  0.97138907  0.75901965  0.11455322  1  1.657271  0  0.242702  0.70493  0  4.176546  0
C  C43  1  0.76045928  0.99884147  0.87373905  1  1.669269  0  0.246627  0.703154  0  4.167008  0
C  C44  1  0.98001747  0.76598789  0.88016708  1  1.649535  0  0.243162  0.703243  0  4.17578  0
C  C45  1  0.75372371  0.99109654  0.11919004  1  1.68811  0  0.247226  0.703665  0  4.170128  0
C  C46  1  0.96784339  0.20570618  0.12690788  1  1.665511  0  0.24821  0.707941  0  4.168879  0
C  C47  1  0.20865822  0.99587047  0.88699792  1  1.681204  0  0.244916  0.706069  0  4.16851  0
C  C48  1  0.97416090  0.21244497  0.87861652  1  1.655774  0  0.247422  0.707492  0  4.169942  0
C  C49  1  0.20140632  0.98790734  0.11840758  1  1.661654  0  0.245715  0.706468  0  4.168394  0
C  C50  1  0.54770836  0.99078449  0.22706285  1  0.081964  0  0.004889  0.138059  0  4.140631  0
C  C51  1  0.54617325  0.99056899  0.30348960  1  -0.043308  0  -0.0739  -0.165149  0  3.883019  0
C  C52  1  0.47624085  0.99068807  0.34191044  1  -0.036138  0  -0.003603  0.076059  0  4.040784  0
C  C53  1  0.40717075  0.99087456  0.30261197  1  0.030029  0  -0.076078  -0.169358  0  3.886232  0
C  C54  1  0.40747397  0.99046384  0.22613165  1  0.027293  0  0.002788  0.133928  0  4.142685  0
C  C55  1  0.47797471  0.99047754  0.18824428  1  -0.006764  0  -0.067526  -0.160564  0  3.850722  0
C  C56  1  0.55193569  0.99656213  0.77040769  1  0.045536  0  0.004115  0.138243  0  4.140034  0
C  C57  1  0.54888365  0.99471657  0.69405607  1  0.0251  0  -0.073798  -0.165382  0  3.884731  0
C  C58  1  0.47812380  0.99373565  0.65689573  1  -0.049103  0  -0.004184  0.075062  0  4.040385  0
C  C59  1  0.40971545  0.99458203  0.69736593  1  0.024727  0  -0.075189  -0.168437  0  3.883283  0
C  C60  1  0.41151352  0.99582277  0.77383402  1  0.099576  0  0.002921  0.136217  0  4.135578  0
C  C61  1  0.48285424  0.99684399  0.81042471  1  -0.014658  0  -0.067211  -0.162298  0  3.84951  0
C  C62  1  0.96917784  0.41436504  0.22913053  1  0.041033  0  0.004584  0.137431  0  4.137153  0
C  C63  1  0.96972081  0.48360075  0.18901861  1  0.075518  0  -0.065573  -0.159983  0  3.845358  0
C  C64  1  0.97006662  0.55469333  0.22562715  1  0.014354  0  0.002968  0.134108  0  4.136221  0
C  C65  1  0.96921816  0.55586093  0.30210984  1  0.022479  0  -0.074393  -0.165357  0  3.886101  0
C  C66  1  0.96933938  0.48735567  0.34259085  1  -0.011714  0  -0.003565  0.076562  0  4.039215  0
C  C67  1  0.96977148  0.41708195  0.30551310  1  0.01077  0  -0.072475  -0.162941  0  3.882119  0
C  C68  1  0.97230676  0.41803078  0.77177410  1  0.181991  0  0.004629  0.137162  0  4.138775  0
C  C69  1  0.97425425  0.48810511  0.81084508  1  0.000592  0  -0.065241  -0.158632  0  3.845635  0
C  C70  1  0.97450248  0.55874048  0.77317052  1  0.095675  0  0.001871  0.134518  0  4.138121  0
C  C71  1  0.97213218  0.55866437  0.69672278  1  -0.014821  0  -0.074538  -0.167175  0  3.886908  0
C  C72  1  0.97085158  0.48930191  0.65725277  1  -0.052488  0  -0.002786  0.078482  0  4.038851  0
C  C73  1  0.97126383  0.41939400  0.69536869  1  -0.041951  0  -0.073152  -0.162853  0  3.880559  0
C  C74  1  0.92578209  0.41856644  0.53840588  1  -0.035493  0  -0.088667  -0.124048  0  3.993213  0
C  C75  1  0.96952609  0.48950453  0.57698786  1  0.026624  0  -0.007718  0.064481  0  4.006762  0
C  C76  1  0.01251390  0.56014956  0.53700444  1  -0.064281  0  -0.089423  -0.124587  0  3.992695  0
C  C77  1  0.01222453  0.55972166  0.46140775  1  -0.009925  0  -0.089578  -0.126289  0  3.994902  0
C  C78  1  0.96895450  0.48861353  0.42286262  1  0.022203  0  -0.008355  0.06486  0  4.008808  0
C  C79  1  0.92551718  0.41812597  0.46287162  1  -0.064675  0  -0.088557  -0.125061  0  3.993862  0
C  C80  1  0.51969350  0.95029955  0.53735368  1  -0.066618  0  -0.089126  -0.12477  0  3.995346  0
C  C81  1  0.47641174  0.99211330  0.57659470  1  -0.077471  0  -0.008981  0.064847  0  4.007668  0
C  C82  1  0.43235805  0.03280435  0.53704523  1  -0.0445  0  -0.090346  -0.126015  0  3.994068  0
C  C83  1  0.43202790  0.03212527  0.46144230  1  0.010004  0  -0.091041  -0.128591  0  3.994003  0
C  C84  1  0.47570357  0.99072517  0.42222571  1  0.093663  0  -0.00865  0.06522  0  4.007627  0
C  C85  1  0.51935413  0.94961392  0.46180294  1  0.017152  0  -0.089091  -0.125432  0  3.995535  0
C  C86  1  0.34144193  0.99585343  0.81400808  1  -0.510976  0  -0.017349  -0.018186  0  4.071496  0
C  C87  1  0.28140961  0.99607028  0.84849335  1  0.200019  0  -0.044755  -0.203487  0  3.955613  0
C  C88  1  0.62474635  0.99832923  0.80639515  1  0.090052  0  -0.020877  -0.02893  0  4.076272  0
C  C89  1  0.68767347  0.99955310  0.83631159  1  -0.359792  0  -0.038279  -0.188595  0  3.946647  0
C  C90  1  0.33646379  0.98966326  0.18755862  1  -0.477875  0  -0.018862  -0.021251  0  4.076553  0
C  C91  1  0.27520057  0.98894853  0.15496976  1  0.193423  0  -0.045089  -0.202273  0  3.958047  0
C  C92  1  0.68162735  0.99208703  0.15805540  1  0.005574  0  -0.037082  -0.185556  0  3.947754  0
C  C93  1  0.61961745  0.99156131  0.18960948  1  -0.272138  0  -0.021087  -0.030467  0  4.08047  0
C  C94  1  0.97257135  0.28421986  0.83977343  1  -0.174089  0  -0.040737  -0.194347  0  3.950864  0
C  C95  1  0.97246388  0.34628389  0.80879526  1  -0.121692  0  -0.019491  -0.025277  0  4.074767  0
C  C96  1  0.97652289  0.63002801  0.81179138  1  -0.469589  0  -0.018416  -0.020842  0  4.076177  0
C  C97  1  0.97861558  0.69185718  0.84409721  1  0.194024  0  -0.047067  -0.204907  0  3.961023  0
C  C98  1  0.96762319  0.27863869  0.16420092  1  0.173003  0  -0.040122  -0.193278  0  3.951465  0
C  C99  1  0.96857302  0.34181639  0.19343350  1  -0.454104  0  -0.019659  -0.025704  0  4.074838  0
C  C100  1  0.97039053  0.62503214  0.18586600  1  -0.560521  0  -0.017653  -0.016353  0  4.072015  0
C  C101  1  0.97091862  0.68587475  0.15235327  1  0.251226  0  -0.047321  -0.20828  0  3.960111  0
O  O102  1  0.91345884  0.78637684  0.13117164  1  -1.180865  0  -0.339904  -0.620185  0  2.269333  0
O  O103  1  0.02925666  0.79021749  0.06934571  1  -1.157321  0  -0.321902  -0.556239  0  2.24833  0
O  O104  1  0.78951957  0.94330771  0.85588352  1  -1.147301  0  -0.324904  -0.564889  0  2.253132  0
O  O105  1  0.78811442  0.05362895  0.92237586  1  -1.156701  0  -0.33842  -0.576437  0  2.263874  0
O  O106  1  0.92339000  0.79440268  0.86239502  1  -1.173096  0  -0.332753  -0.617239  0  2.270876  0
O  O107  1  0.03754088  0.79693035  0.92529855  1  -1.1574  0  -0.326855  -0.557206  0  2.251652  0
O  O108  1  0.78130861  0.93395973  0.13501974  1  -1.148959  0  -0.324611  -0.564017  0  2.262371  0
O  O109  1  0.78222069  0.04742204  0.07147549  1  -1.16093  0  -0.338025  -0.57508  0  2.263644  0
O  O110  1  0.78220816  0.79383188  0.05966184  1  -1.219532  0  -0.638748  -0.891144  0  1.953983  0
O  O111  1  0.90531788  0.91821631  0.21071550  1  -1.232539  0  -0.591934  -0.786993  0  2.054688  0
O  O112  1  0.78662562  0.79543634  0.92355294  1  -1.230291  0  -0.597687  -0.791022  0  2.046006  0
O  O113  1  0.92115757  0.93144458  0.78690760  1  -1.238878  0  -0.640907  -0.896997  0  1.948029  0
O  O114  1  0.94099249  0.87966641  0.99598860  1  -1.213068  0  -0.758149  -1.078595  0  2.202267  0
O  O115  1  0.82659677  0.93655337  0.99500304  1  -1.217305  0  -0.648397  -0.959747  0  2.305518  0
O  O116  1  0.02194879  0.17485844  0.14643483  1  -1.168781  0  -0.334336  -0.595762  0  2.25832  0
O  O117  1  0.91479376  0.17959178  0.07701568  1  -1.14502  0  -0.327053  -0.562404  0  2.262014  0
O  O118  1  0.18243362  0.05481286  0.87256629  1  -1.167104  0  -0.334526  -0.593921  0  2.260973  0
O  O119  1  0.17658159  0.93659290  0.93090892  1  -1.150165  0  -0.328571  -0.565442  0  2.248008  0
O  O120  1  0.02961122  0.18294794  0.86016985  1  -1.16788  0  -0.328627  -0.600199  0  2.261023  0
O  O121  1  0.92068678  0.18592631  0.92868386  1  -1.146568  0  -0.329266  -0.562785  0  2.261808  0
O  O122  1  0.17420281  0.04581951  0.13382918  1  -1.17179  0  -0.329331  -0.599211  0  2.26128  0
O  O123  1  0.16941172  0.92875534  0.07483883  1  -1.160396  0  -0.331741  -0.565939  0  2.251524  0
O  O124  1  0.17042398  0.18173688  0.07549912  1  -1.244449  0  -0.59685  -0.789397  0  2.042057  0
O  O125  1  0.03253773  0.04225232  0.21181159  1  -1.22931  0  -0.640724  -0.896488  0  1.943655  0
O  O126  1  0.17059449  0.18641671  0.93837233  1  -1.234757  0  -0.642004  -0.896421  0  1.945095  0
O  O127  1  0.04570076  0.05953624  0.78921629  1  -1.268035  0  -0.597846  -0.794398  0  2.034444  0
O  O128  1  0.02954098  0.13957265  0.00425155  1  -1.238883  0  -0.646898  -0.952764  0  2.297235  0
O  O129  1  0.08682656  0.02574455  0.00341060  1  -1.209977  0  -0.763183  -1.07383  0  2.225477  0
O  O130  1  0.93612306  0.02235007  0.07877498  1  -1.210297  0  -0.760986  -1.066589  0  2.20164  0
O  O131  1  0.03216582  0.94597139  0.89104802  1  -1.237149  0  -0.655389  -0.975858  0  2.364273  0
O  O132  1  0.02203506  0.93634553  0.10866958  1  -1.240248  0  -0.655151  -0.971466  0  2.357866  0
O  O133  1  0.94355885  0.02987493  0.92001760  1  -1.213523  0  -0.75986  -1.067649  0  2.193734  0
