# generated using pymatgen
data_CoH8C12(NO2)2
_symmetry_space_group_name_H-M   'P 1'
_cell_length_a   5.38681606
_cell_length_b   8.21457452
_cell_length_c   8.10183889
_cell_angle_alpha   84.49726493
_cell_angle_beta   72.62194229
_cell_angle_gamma   70.55724185
_symmetry_Int_Tables_number   1
_chemical_formula_structural   CoH8C12(NO2)2
_chemical_formula_sum   'Co1 H8 C12 N2 O4'
_cell_volume   322.63189504
_cell_formula_units_Z   1
loop_
 _symmetry_equiv_pos_site_id
 _symmetry_equiv_pos_as_xyz
  1  'x, y, z'
loop_
 _atom_site_type_symbol
 _atom_site_label
 _atom_site_symmetry_multiplicity
 _atom_site_fract_x
 _atom_site_fract_y
 _atom_site_fract_z
 _atom_site_occupancy
 _atom_site_pbe_cm5_charge
 _atom_site_pbe_ddec_charge
 _atom_site_pbe_ddec_spin_density
 _atom_site_pbe_ddec_sum_bond_order
 _atom_site_pbe_magmom
Co  Co0  1  0.46200739  0.50003639  0.50001213  1  0.652682  0.647577  1.04998  2.995134  0.982
H  H1  1  0.28210278  0.49444969  0.87210529  1  0.124221  0.101676  -0.000318  0.987643  0.0
H  H2  1  0.64158641  0.50547159  0.12788217  1  0.124234  0.101776  -0.000317  0.987844  0.0
H  H3  1  0.64250074  0.12850011  0.50594970  1  0.124276  0.102152  -0.000315  0.987664  0.0
H  H4  1  0.28053772  0.87154333  0.49408637  1  0.124248  0.102242  -0.000317  0.987242  0.0
H  H5  1  0.04806956  0.71137393  0.10720245  1  0.106993  0.122436  0.000189  1.055653  0.0
H  H6  1  0.87072435  0.28854738  0.89268789  1  0.106961  0.121931  0.000188  1.055423  0.0
H  H7  1  0.86840325  0.89323908  0.28904974  1  0.106809  0.121746  0.000196  1.055265  0.0
H  H8  1  0.04956727  0.10677332  0.71092916  1  0.107295  0.12261  0.000194  1.055386  0.0
C  C9  1  0.96772661  0.57031474  0.42958096  1  0.207242  0.44674  -0.003401  4.190145  -0.002
C  C10  1  0.95628040  0.42976765  0.57053828  1  0.207484  0.448428  -0.003395  4.187665  -0.002
C  C11  1  0.22660196  0.63210562  0.84379842  1  0.042116  0.079258  -0.008664  3.928488  -0.005
C  C12  1  0.69564795  0.36781997  0.15616871  1  0.041961  0.079531  -0.008677  3.928523  -0.005
C  C13  1  0.69716904  0.15659968  0.36806419  1  0.041296  0.077607  -0.008722  3.931194  -0.005
C  C14  1  0.22458666  0.84343214  0.63193224  1  0.041941  0.078812  -0.008754  3.929829  -0.005
C  C15  1  0.09631694  0.75543422  0.97394702  1  -0.082686  -0.166825  -0.001614  3.924449  0.0
C  C16  1  0.82332038  0.24447011  0.02596112  1  -0.082335  -0.166151  -0.001605  3.923528  0.0
C  C17  1  0.82426176  0.02634480  0.24475051  1  -0.082176  -0.165035  -0.00155  3.923211  0.0
C  C18  1  0.09490472  0.97365300  0.75519728  1  -0.083295  -0.168135  -0.001545  3.926267  0.0
C  C19  1  0.02693976  0.93241876  0.93243429  1  0.008814  0.100507  -0.012119  3.958664  -0.007
C  C20  1  0.89146515  0.06750093  0.06747331  1  0.008074  0.098928  -0.012108  3.958706  -0.007
N  N21  1  0.29087786  0.67402484  0.67416299  1  -0.352339  -0.199855  -0.013959  3.686243  -0.01
N  N22  1  0.63234603  0.32600383  0.32586457  1  -0.351843  -0.200327  -0.013967  3.686296  -0.01
O  O23  1  0.76597210  0.63271651  0.36889914  1  -0.281558  -0.479673  0.026769  2.308468  0.045
O  O24  1  0.73953240  0.38478827  0.61754369  1  -0.289771  -0.464439  -0.001434  2.443892  -0.001
O  O25  1  0.18445714  0.61527516  0.38247090  1  -0.289046  -0.463315  -0.001461  2.443906  -0.001
O  O26  1  0.15789854  0.36738747  0.63129851  1  -0.281597  -0.480201  0.026727  2.305812  0.045
