# generated using pymatgen
data_CuH15C20N7O6
_symmetry_space_group_name_H-M   'P 1'
_cell_length_a   7.54193251
_cell_length_b   11.67099960
_cell_length_c   12.29313028
_cell_angle_alpha   75.33651182
_cell_angle_beta   72.77955957
_cell_angle_gamma   84.36104672
_symmetry_Int_Tables_number   1
_chemical_formula_structural   CuH15C20N7O6
_chemical_formula_sum   'Cu2 H30 C40 N14 O12'
_cell_volume   999.57651405
_cell_formula_units_Z   2
loop_
 _symmetry_equiv_pos_site_id
 _symmetry_equiv_pos_as_xyz
  1  'x, y, z'
loop_
 _atom_site_type_symbol
 _atom_site_label
 _atom_site_symmetry_multiplicity
 _atom_site_fract_x
 _atom_site_fract_y
 _atom_site_fract_z
 _atom_site_occupancy
 _atom_site_hle17_ddec_charge
 _atom_site_hle17_ddec_spin_density
 _atom_site_hle17_ddec_sum_bond_order
 _atom_site_hle17_magmom
 _atom_site_hse06_10hf_ddec_charge
 _atom_site_hse06_10hf_ddec_spin_density
 _atom_site_hse06_10hf_ddec_sum_bond_order
 _atom_site_hse06_10hf_magmom
 _atom_site_hse06_ddec_charge
 _atom_site_hse06_ddec_spin_density
 _atom_site_hse06_ddec_sum_bond_order
 _atom_site_hse06_magmom
 _atom_site_pbe_cm5_charge
 _atom_site_pbe_ddec_charge
 _atom_site_pbe_ddec_spin_density
 _atom_site_pbe_ddec_sum_bond_order
 _atom_site_pbe_magmom
Cu  Cu0  1  0.50000976  0.49999472  0.00000072  1  0.853847  0.721379  1.792556  0.506  0.830661  0.803517  2.179009  0.616  0.923571  0.876155  2.106551  0.698  0.746198  0.769967  0.75181  2.234117  0.564
Cu  Cu1  1  0.49999514  0.99999763  0.50000271  1  0.851635  -0.713828  1.785914  -0.497  0.831452  -0.797336  2.170926  -0.608  0.920657  -0.869324  2.102275  -0.688  0.750213  0.775223  -0.747354  2.220327  -0.558
H  H2  1  0.82042018  0.30412248  0.64717525  1  0.091488  -1e-06  0.959171  0.0  0.098492  -4e-06  1.027308  0.0  0.101754  -4e-06  1.02515  0.0  0.096513  0.096154  -5e-06  1.028938  0.0
H  H3  1  0.17957071  0.69588965  0.35282380  1  0.091422  1e-06  0.959225  0.0  0.098461  -4e-06  1.027311  0.0  0.10172  -4e-06  1.025154  0.0  0.096476  0.096112  -5e-06  1.028937  0.0
H  H4  1  0.75024113  0.50734231  0.67458966  1  0.094413  -2.4e-05  0.946593  0.0  0.104129  -4e-06  1.007454  0.0  0.106379  -7e-06  1.006843  0.0  0.09895  0.102485  -0.0  1.008004  0.0
H  H5  1  0.24975808  0.49267245  0.32540324  1  0.094403  -2.3e-05  0.946689  0.0  0.104079  -4e-06  1.007622  0.0  0.106327  -7e-06  1.007014  0.0  0.098944  0.102439  -0.0  1.00818  0.0
H  H6  1  0.68447882  0.66879751  0.51157678  1  0.080741  6.7e-05  0.963884  0.0  0.091678  1.2e-05  1.024318  0.0  0.093532  1.8e-05  1.024751  0.0  0.09311  0.090378  7e-06  1.024026  0.0
H  H7  1  0.31552341  0.33121372  0.48840911  1  0.08072  6.6e-05  0.963891  0.0  0.09169  1.2e-05  1.02429  0.0  0.093544  1.8e-05  1.024725  0.0  0.093113  0.090389  7e-06  1.024004  0.0
H  H8  1  0.69814538  0.62288791  0.32322177  1  0.098972  1.6e-05  0.963693  0.0  0.108277  3.9e-05  1.029534  0.0  0.111396  2.9e-05  1.027082  0.0  0.102632  0.106065  4.9e-05  1.031235  0.0
H  H9  1  0.30185289  0.37711626  0.67676649  1  0.098906  1.9e-05  0.963777  0.0  0.108214  3.9e-05  1.029632  0.0  0.111347  2.9e-05  1.027147  0.0  0.102646  0.105999  4.9e-05  1.031339  0.0
H  H10  1  0.79741525  0.32863528  0.25202815  1  0.093306  -5e-05  0.929169  0.0  0.110763  -2.5e-05  0.987957  0.0  0.11146  -2.3e-05  0.987264  0.0  0.117343  0.110254  -2.6e-05  0.988405  0.0
H  H11  1  0.20259826  0.67136347  0.74796930  1  0.093252  -4.6e-05  0.9292  0.0  0.110723  -2.5e-05  0.987985  0.0  0.111424  -2.3e-05  0.987285  0.0  0.11734  0.110209  -2.6e-05  0.988445  0.0
H  H12  1  0.66208960  0.46265161  0.22821535  1  0.115742  1.4e-05  0.940603  0.0  0.127651  -4.6e-05  1.009069  0.0  0.129195  -6e-05  1.007336  0.0  0.121891  0.126302  -2.4e-05  1.010614  0.0
H  H13  1  0.33792267  0.53734539  0.77177703  1  0.115701  1.7e-05  0.940612  0.0  0.127577  -4.6e-05  1.009141  0.0  0.129125  -6e-05  1.007403  0.0  0.121834  0.12625  -2.4e-05  1.010659  0.0
H  H14  1  0.77392198  0.16134890  0.54719992  1  0.104404  0.000136  0.934431  0.0  0.116908  6.9e-05  1.003279  0.0  0.118313  8.7e-05  1.00225  0.0  0.119524  0.115784  4.2e-05  1.004215  0.0
H  H15  1  0.22608159  0.83865609  0.45279942  1  0.104309  0.000126  0.934499  0.0  0.116835  6.9e-05  1.00331  0.0  0.118249  8.7e-05  1.00226  0.0  0.119518  0.115713  4.2e-05  1.004241  0.0
H  H16  1  0.78904130  0.19652351  0.39581274  1  0.093257  3.6e-05  0.949466  0.0  0.102086  8.8e-05  1.025314  0.0  0.10354  0.000112  1.022392  0.0  0.112828  0.100763  5.5e-05  1.02779  0.0
H  H17  1  0.21096093  0.80347971  0.60418807  1  0.093245  3.2e-05  0.94944  0.0  0.102087  8.8e-05  1.025287  0.0  0.103545  0.000112  1.022355  0.0  0.112804  0.100759  5.6e-05  1.027761  0.0
H  H18  1  0.17512035  0.70772024  0.01520480  1  0.093637  -0.000216  0.947699  0.0  0.104361  -6.3e-05  1.007632  0.0  0.106494  -5.5e-05  1.004328  0.0  0.133352  0.102677  -6.2e-05  1.010135  0.0
H  H19  1  0.82490010  0.29227670  0.98479512  1  0.093728  -0.000216  0.947529  0.0  0.104418  -6.3e-05  1.00753  0.0  0.106548  -5.5e-05  1.004231  0.0  0.13338  0.102731  -6.2e-05  1.010035  0.0
H  H20  1  0.14775521  0.33894412  0.14838528  1  0.109186  -0.000248  0.976158  0.0  0.112569  -0.000104  1.049585  0.0  0.116137  -7.4e-05  1.044638  0.0  0.139195  0.109927  -0.000125  1.053004  0.0
H  H21  1  0.85225144  0.66105111  0.85161501  1  0.109223  -0.000251  0.976128  0.0  0.112507  -0.000104  1.049652  0.0  0.116079  -7.4e-05  1.044704  0.0  0.139161  0.109867  -0.000125  1.053073  0.0
H  H22  1  0.44662075  0.19323976  0.26491897  1  0.109255  0.000123  0.929727  0.0  0.120584  2.3e-05  0.985248  0.0  0.122741  -4e-06  0.982857  0.0  0.141212  0.118785  5e-05  0.987248  0.0
H  H23  1  0.55338175  0.80675549  0.73508205  1  0.109194  0.000119  0.929768  0.0  0.120542  2.3e-05  0.985275  0.0  0.122697  -4e-06  0.982887  0.0  0.141191  0.118753  5.1e-05  0.987261  0.0
H  H24  1  0.06593689  0.06894585  0.59634191  1  0.121123  5.1e-05  0.96457  0.0  0.123672  -5.7e-05  1.036671  0.0  0.127403  -5.7e-05  1.031975  0.0  0.142376  0.120848  -5.7e-05  1.040067  0.0
H  H25  1  0.93406112  0.93106005  0.40365737  1  0.120986  5.5e-05  0.964768  0.0  0.123654  -5.7e-05  1.036713  0.0  0.12738  -5.8e-05  1.032034  0.0  0.142366  0.120836  -5.7e-05  1.040099  0.0
H  H26  1  0.53479329  0.78559131  0.24812403  1  0.122348  -0.00042  0.932938  0.0  0.129587  -0.000363  0.997693  0.0  0.134001  -0.000248  0.993444  0.0  0.116853  0.126437  -0.00046  1.00066  0.0
H  H27  1  0.46519798  0.21440575  0.75188179  1  0.122291  -0.000421  0.932992  0.0  0.12957  -0.000362  0.997712  0.0  0.133985  -0.000248  0.993463  0.0  0.11686  0.12642  -0.000459  1.000679  0.0
H  H28  1  0.82128710  0.10663572  0.04822944  1  0.119195  1.4e-05  0.952823  0.0  0.123781  2.1e-05  1.022313  0.0  0.128181  1.4e-05  1.017742  0.0  0.113028  0.120591  2.7e-05  1.025617  0.0
H  H29  1  0.17870000  0.89336313  0.95177424  1  0.119155  1.3e-05  0.953  0.0  0.123784  2e-05  1.022417  0.0  0.128182  1.4e-05  1.01785  0.0  0.113037  0.120598  2.8e-05  1.02572  0.0
H  H30  1  0.69735893  0.86219134  0.87146198  1  0.117279  0.000362  0.969581  0.0  0.117964  0.000382  1.045292  0.0  0.122089  0.000257  1.041483  0.0  0.112182  0.114974  0.000492  1.048021  0.0
H  H31  1  0.30263799  0.13780215  0.12854451  1  0.117189  0.000361  0.969746  0.0  0.117994  0.000382  1.04531  0.0  0.122119  0.000257  1.041499  0.0  0.112187  0.115003  0.000492  1.048038  0.0
C  C32  1  0.77078512  0.43888047  0.37657192  1  0.027803  -0.000269  3.703854  0.0  0.043015  -0.000161  3.946527  0.0  0.040769  -0.000146  3.972339  0.0  -0.01112  0.044675  -0.000165  3.928756  0.0
C  C33  1  0.22921169  0.56112191  0.62342434  1  0.027882  -0.000229  3.70383  0.0  0.043132  -0.00016  3.946497  0.0  0.040882  -0.000146  3.972307  0.0  -0.011013  0.044797  -0.000165  3.928712  0.0
C  C34  1  0.80287871  0.34755901  0.46905953  1  0.014884  -0.00037  3.722753  0.0  0.030395  8.5e-05  3.963325  0.0  0.027747  0.000111  3.989999  0.0  -0.01679  0.03228  3.7e-05  3.945086  0.0
C  C35  1  0.19712075  0.65244600  0.53093808  1  0.014818  -0.000401  3.722898  0.0  0.030249  8.4e-05  3.963516  0.0  0.027607  0.00011  3.990188  0.0  -0.016905  0.032137  3.7e-05  3.945256  0.0
C  C36  1  0.79522216  0.37450722  0.57535022  1  -0.102422  -0.000108  3.734711  0.0  -0.120754  -9.2e-05  3.983395  0.0  -0.123642  -0.0001  4.005592  0.0  -0.089748  -0.118715  -8.3e-05  3.96829  0.0
C  C37  1  0.20477432  0.62550490  0.42464541  1  -0.102528  -8.7e-05  3.734769  0.0  -0.120778  -9.3e-05  3.983419  0.0  -0.12367  -9.9e-05  4.005617  0.0  -0.08969  -0.118722  -8.3e-05  3.968332  0.0
C  C38  1  0.75644243  0.48929080  0.59089688  1  -0.040033  0.000963  3.749501  0.001  -0.056801  0.000176  4.003085  0.0  -0.057846  0.000139  4.024848  0.0  -0.086321  -0.056011  0.000232  3.988268  0.0
C  C39  1  0.24355545  0.51072310  0.40909483  1  -0.039862  0.000932  3.749361  0.001  -0.056676  0.000178  4.003048  0.0  -0.05772  0.000139  4.024811  0.0  -0.086306  -0.055891  0.000232  3.988243  0.0
C  C40  1  0.72028737  0.57894800  0.50015748  1  -0.063199  -0.00131  3.775835  -0.001  -0.076838  -0.000172  4.028294  0.0  -0.079457  -0.000119  4.051518  0.0  -0.090201  -0.074964  -0.000248  4.012418  0.0
C  C41  1  0.27971209  0.42106147  0.49983175  1  -0.063199  -0.001276  3.775905  -0.001  -0.076828  -0.000172  4.028377  0.0  -0.079452  -0.000118  4.051606  0.0  -0.090193  -0.074956  -0.000248  4.012504  0.0
C  C42  1  0.72690160  0.55357587  0.39437414  1  -0.097342  0.001054  3.728503  0.001  -0.119737  0.00023  3.97751  0.0  -0.121735  0.000177  3.999094  0.0  -0.087602  -0.118254  0.000298  3.962769  0.0
C  C43  1  0.27309666  0.44642829  0.60561494  1  -0.09731  0.001014  3.728731  0.001  -0.119717  0.000229  3.97772  0.0  -0.121713  0.000176  3.999312  0.0  -0.087648  -0.118233  0.000298  3.962963  0.0
C  C44  1  0.78377834  0.42185942  0.25627886  1  -0.06386  0.000483  3.624416  0.001  -0.146799  0.000383  3.874968  0.0  -0.142391  0.000295  3.884755  0.0  -0.04468  -0.149385  0.000454  3.868228  0.001
C  C45  1  0.21623097  0.57814202  0.74371624  1  -0.063602  0.000463  3.624234  0.001  -0.146551  0.000383  3.874805  0.0  -0.142136  0.000296  3.884581  0.0  -0.044561  -0.149153  0.000454  3.868037  0.001
C  C46  1  0.84051104  0.21949794  0.46209639  1  -0.06428  -0.000419  3.640628  -0.001  -0.148956  -0.000343  3.89876  -0.001  -0.144547  -0.000212  3.908692  0.0  -0.045756  -0.151557  -0.000467  3.891824  -0.001
C  C47  1  0.15949250  0.78050793  0.53790355  1  -0.064281  -0.000391  3.640644  -0.001  -0.148938  -0.000342  3.898716  -0.001  -0.144512  -0.000211  3.908614  0.0  -0.045763  -0.151545  -0.000467  3.891779  -0.001
C  C48  1  0.12223080  0.62057641  0.06130086  1  0.201455  -0.0016  3.704635  -0.001  0.152253  0.000268  3.992925  0.001  0.165864  -0.000212  4.005861  0.0  0.143948  0.143725  0.000609  3.983587  0.001
C  C49  1  0.87778545  0.37942233  0.93869774  1  0.201398  -0.001591  3.704702  -0.001  0.152155  0.000269  3.993087  0.001  0.16577  -0.000212  4.006016  0.0  0.143928  0.143623  0.000609  3.983743  0.001
C  C50  1  0.11324793  0.43231507  0.12579394  1  0.175769  -0.002627  3.640289  -0.002  0.098887  -2.4e-05  3.911441  0.0  0.115949  -0.000684  3.92223  -0.001  0.161705  0.088368  0.000495  3.903609  0.001
C  C51  1  0.88676283  0.56768192  0.87420604  1  0.175655  -0.002612  3.640649  -0.002  0.098854  -2.4e-05  3.911776  0.0  0.115925  -0.000683  3.922558  -0.001  0.161668  0.088327  0.000497  3.903946  0.001
C  C52  1  0.31946950  0.17814847  0.33636461  1  0.199539  0.002248  3.684016  0.002  0.153094  6.4e-05  3.967414  0.0  0.166686  0.000549  3.97915  0.001  0.152387  0.14436  -0.00027  3.959562  -0.001
C  C53  1  0.68053295  0.82184766  0.66363702  1  0.199563  0.002251  3.683951  0.002  0.153093  6.4e-05  3.967396  0.0  0.166685  0.000549  3.979134  0.001  0.15238  0.144348  -0.00027  3.959537  -0.001
C  C54  1  0.12977100  0.11280158  0.50558209  1  0.168619  0.003574  3.60713  0.003  0.095156  0.000604  3.875111  0.001  0.110943  0.001238  3.886292  0.001  0.166006  0.085305  0.000121  3.867379  0.0
C  C55  1  0.87022847  0.88720255  0.49441654  1  0.168607  0.00356  3.607184  0.003  0.095152  0.000604  3.875069  0.001  0.110931  0.001238  3.886252  0.001  0.165952  0.085296  0.000121  3.867345  0.0
C  C56  1  0.61051679  0.81040584  0.06091314  1  -0.047233  0.007976  3.734254  0.008  -0.021959  0.005225  3.970328  0.006  -0.03286  0.003599  3.992656  0.004  -0.010657  -0.01516  0.006473  3.955445  0.007
C  C57  1  0.38947589  0.18959122  0.93909162  1  -0.047419  0.00799  3.734342  0.008  -0.02206  0.00523  3.970268  0.006  -0.032961  0.003596  3.9926  0.004  -0.010707  -0.015258  0.006474  3.955374  0.007
C  C58  1  0.60069201  0.84387208  0.16405637  1  -0.014582  0.00099  3.610436  0.001  -0.062246  0.000455  3.866429  0.001  -0.05528  0.00033  3.879875  0.001  -0.054844  -0.066372  0.000653  3.857133  0.001
C  C59  1  0.39929374  0.15612500  0.83594878  1  -0.014543  0.000978  3.610494  0.001  -0.062232  0.000451  3.866395  0.001  -0.055264  0.000334  3.879833  0.001  -0.054864  -0.066355  0.000653  3.857085  0.001
C  C60  1  0.67443528  0.95091603  0.15984998  1  -0.046208  -0.008985  3.7216  -0.009  -0.019514  -0.00569  3.955403  -0.006  -0.030262  -0.004192  3.977994  -0.005  -0.010912  -0.013183  -0.006755  3.9411  -0.007
C  C61  1  0.32555185  0.04908194  0.84015390  1  -0.046336  -0.008985  3.721788  -0.009  -0.019534  -0.005687  3.955422  -0.006  -0.030279  -0.004197  3.978011  -0.005  -0.010939  -0.013197  -0.006755  3.941109  -0.007
C  C62  1  0.76084888  0.02457443  0.05168477  1  -0.08578  6.6e-05  3.683281  0.0  -0.128216  -0.000243  3.945017  0.0  -0.124587  -7.9e-05  3.963055  0.0  -0.068908  -0.130153  -0.00029  3.93279  -0.001
C  C63  1  0.23912984  0.97542534  0.94832179  1  -0.086154  7.5e-05  3.683138  0.0  -0.128256  -0.000247  3.945155  0.0  -0.12463  -7.6e-05  3.963196  0.0  -0.068866  -0.1302  -0.000291  3.932938  -0.001
C  C64  1  0.76504558  0.99113483  0.94982719  1  0.064229  -0.00084  3.726347  -0.001  0.054268  -0.000421  3.979561  0.0  0.047874  -0.00033  4.004313  0.0  0.074778  0.058104  -0.000486  3.96292  -0.001
C  C65  1  0.23495272  0.00886043  0.05017619  1  0.066131  -0.000851  3.725308  -0.001  0.05428  -0.000418  3.979532  0.0  0.047886  -0.000333  4.004285  0.0  0.074723  0.058116  -0.000486  3.962892  -0.001
C  C66  1  0.69080018  0.88554054  0.95262631  1  -0.079793  0.00057  3.678709  0.0  -0.116395  0.000598  3.931336  0.0  -0.111624  0.000472  3.948067  0.0  -0.067701  -0.119036  0.000683  3.919922  0.0
C  C67  1  0.30919372  0.11446093  0.04737880  1  -0.080081  0.000567  3.678375  0.0  -0.116413  0.000595  3.931271  0.0  -0.111643  0.000475  3.948004  0.0  -0.067672  -0.119055  0.000683  3.919853  0.0
C  C68  1  0.54033824  0.69228651  0.06700773  1  0.614262  -0.004272  3.930608  -0.008  0.568377  -0.000596  4.23649  -0.004  0.604626  -0.000985  4.23232  -0.003  0.19343  0.544037  -0.000114  4.238187  -0.004
C  C69  1  0.45967252  0.30770781  0.93299694  1  0.61431  -0.004279  3.930664  -0.008  0.568515  -0.000597  4.236437  -0.004  0.604762  -0.000986  4.232266  -0.003  0.193416  0.544171  -0.000114  4.238123  -0.004
C  C70  1  0.65792782  0.99012297  0.27018936  1  0.622615  0.004346  3.92638  0.008  0.581771  0.00038  4.227082  0.004  0.618424  0.000835  4.222441  0.003  0.196194  0.55714  -8.2e-05  4.229221  0.004
C  C71  1  0.34206359  0.00987144  0.72981381  1  0.622515  0.004351  3.926261  0.008  0.581683  0.000381  4.226926  0.004  0.618334  0.000835  4.222287  0.003  0.196092  0.557046  -8.2e-05  4.229062  0.004
N  N72  1  0.94677658  0.48095413  0.16807395  1  0.049659  0.002059  3.534215  0.003  0.171457  0.001489  3.719132  0.002  0.160359  0.001152  3.742946  0.001  -0.126946  0.177192  0.001739  3.705472  0.002
N  N73  1  0.05323549  0.51904640  0.83192333  1  0.049418  0.002065  3.534732  0.003  0.171259  0.00149  3.719556  0.002  0.160093  0.001151  3.743492  0.001  -0.127115  0.176995  0.00174  3.705893  0.002
N  N74  1  0.94937148  0.60122653  0.12749538  1  -0.243931  0.007143  2.836673  0.008  -0.241622  0.003625  3.098823  0.004  -0.250439  0.002534  3.113459  0.003  -0.211255  -0.235157  0.004731  3.08863  0.005
N  N75  1  0.05064608  0.39877307  0.87250603  1  -0.24386  0.007129  2.836701  0.008  -0.241572  0.003625  3.098883  0.004  -0.250377  0.002534  3.11352  0.003  -0.211214  -0.235109  0.004732  3.088681  0.005
N  N76  1  0.22855648  0.51884738  0.05730272  1  -0.396234  0.064076  3.316714  0.079  -0.354121  0.046412  3.644523  0.06  -0.38753  0.039108  3.659649  0.053  -0.379086  -0.332972  0.050284  3.635485  0.063
N  N77  1  0.77145847  0.48114692  0.94269960  1  -0.396046  0.064066  3.316852  0.079  -0.353932  0.04641  3.644592  0.06  -0.387343  0.039106  3.659721  0.053  -0.378986  -0.332786  0.050281  3.635555  0.063
N  N78  1  0.03887916  0.18578333  0.43559497  1  0.061213  -0.001719  3.539697  -0.002  0.180554  -0.001264  3.726927  -0.001  0.171015  -0.001017  3.749106  -0.001  -0.123067  0.186135  -0.001429  3.712791  -0.002
N  N79  1  0.96112578  0.81422254  0.56440392  1  0.061235  -0.001725  3.539666  -0.002  0.1806  -0.001264  3.726843  -0.001  0.171083  -0.001017  3.74899  -0.001  -0.122966  0.186181  -0.001429  3.712705  -0.002
N  N80  1  0.15715960  0.22833434  0.32811785  1  -0.25551  -0.007139  2.867374  -0.008  -0.248937  -0.003912  3.130239  -0.005  -0.258281  -0.002827  3.143255  -0.003  -0.207122  -0.242378  -0.004972  3.121302  -0.006
N  N81  1  0.84284687  0.77166709  0.67188100  1  -0.255378  -0.007134  2.867307  -0.008  -0.248835  -0.003912  3.130205  -0.005  -0.258186  -0.002827  3.143221  -0.003  -0.207108  -0.242278  -0.004972  3.121267  -0.006
N  N82  1  0.30850290  0.10551220  0.44444600  1  -0.388328  -0.064741  3.317305  -0.08  -0.344653  -0.048226  3.642678  -0.062  -0.376018  -0.041178  3.656111  -0.056  -0.374625  -0.325303  -0.051813  3.634889  -0.065
N  N83  1  0.69149533  0.89448573  0.55555595  1  -0.388351  -0.064739  3.31731  -0.08  -0.344714  -0.048227  3.642749  -0.062  -0.376078  -0.041179  3.656181  -0.056  -0.374638  -0.325363  -0.051817  3.634963  -0.065
N  N84  1  0.84632001  0.06956611  0.83525766  1  0.474273  -7.7e-05  3.93994  0.0  0.528152  -9.6e-05  4.197194  0.0  0.549274  -6.4e-05  4.206466  0.0  0.057185  0.514008  -0.000112  4.19106  0.0
N  N85  1  0.15366864  0.93042831  0.16474517  1  0.469968  -8.1e-05  3.941331  0.0  0.528106  -9.6e-05  4.19724  0.0  0.549228  -6.4e-05  4.206513  0.0  0.057287  0.513964  -0.000112  4.191108  0.0
O  O86  1  0.53190426  0.67557984  0.96783133  1  -0.603804  0.104934  1.996555  0.136  -0.574307  0.070033  2.269494  0.099  -0.618569  0.054745  2.26322  0.082  -0.333451  -0.544331  0.079433  2.273914  0.108
O  O87  1  0.46810516  0.32441182  0.03217584  1  -0.603674  0.104933  1.996263  0.136  -0.574256  0.070034  2.269267  0.099  -0.618517  0.054744  2.26299  0.082  -0.33342  -0.544283  0.079438  2.273683  0.108
O  O88  1  0.49920760  0.61702699  0.16221200  1  -0.590163  0.000185  1.967919  0.002  -0.563928  0.000118  2.218291  0.001  -0.589268  -0.000834  2.210373  0.0  -0.305805  -0.546192  0.001025  2.223197  0.003
O  O89  1  0.50079351  0.38296560  0.83779396  1  -0.590176  0.00019  1.96814  0.002  -0.563999  0.000117  2.218526  0.001  -0.589341  -0.000833  2.210603  0.0  -0.305783  -0.54627  0.001024  2.223433  0.003
O  O90  1  0.54887723  0.92712083  0.36415031  1  -0.586277  -0.110125  2.034533  -0.143  -0.563235  -0.072348  2.312219  -0.103  -0.607556  -0.056834  2.306673  -0.085  -0.327239  -0.533586  -0.081908  2.315923  -0.112
O  O91  1  0.45111006  0.07287182  0.63585481  1  -0.586168  -0.110105  2.034586  -0.143  -0.563163  -0.072338  2.312312  -0.103  -0.607477  -0.056828  2.306762  -0.085  -0.327186  -0.533515  -0.081899  2.316018  -0.112
O  O92  1  0.74182083  0.07952546  0.26616312  1  -0.621728  0.000472  1.873342  -0.001  -0.592688  0.000514  2.100466  0.0  -0.617262  0.00122  2.090898  0.001  -0.338299  -0.575574  -0.000132  2.106509  -0.001
O  O93  1  0.25816792  0.92046364  0.73384422  1  -0.621678  0.000466  1.873035  -0.001  -0.592652  0.000513  2.100161  0.0  -0.617232  0.00122  2.090605  0.001  -0.338269  -0.575537  -0.000133  2.106201  -0.001
O  O94  1  0.92726544  0.15875969  0.83105403  1  -0.338397  1.6e-05  1.771009  0.0  -0.328324  -3e-06  1.965593  0.0  -0.340156  -2e-05  1.963693  0.0  -0.114348  -0.32049  2.6e-05  1.967081  0.0
O  O95  1  0.07272589  0.84123738  0.16894852  1  -0.33622  4e-06  1.771051  0.0  -0.328336  -6e-06  1.965759  0.0  -0.340168  -2.3e-05  1.963863  0.0  -0.114373  -0.320503  2.6e-05  1.967245  0.0
O  O96  1  0.82838566  0.04281094  0.74716163  1  -0.362797  -0.000194  1.795041  0.0  -0.3509  -0.000131  1.997928  0.0  -0.364944  -7e-05  1.995787  0.0  -0.128308  -0.341548  -0.000167  1.99949  0.0
O  O97  1  0.17159868  0.95718704  0.25284355  1  -0.360604  -0.000171  1.794838  0.0  -0.350835  -0.000129  1.997826  0.0  -0.364874  -6.8e-05  1.995668  0.0  -0.12836  -0.34149  -0.000167  1.999393  0.0
