# generated using pymatgen
data_InH14C24(NO3)2
_symmetry_space_group_name_H-M   'P 1'
_cell_length_a   12.28423593
_cell_length_b   12.28378088
_cell_length_c   17.20004758
_cell_angle_alpha   70.74044693
_cell_angle_beta   70.73865096
_cell_angle_gamma   73.33387678
_symmetry_Int_Tables_number   1
_chemical_formula_structural   InH14C24(NO3)2
_chemical_formula_sum   'In4 H56 C96 N8 O24'
_cell_volume   2266.42700224
_cell_formula_units_Z   4
loop_
 _symmetry_equiv_pos_site_id
 _symmetry_equiv_pos_as_xyz
  1  'x, y, z'
loop_
 _atom_site_type_symbol
 _atom_site_label
 _atom_site_symmetry_multiplicity
 _atom_site_fract_x
 _atom_site_fract_y
 _atom_site_fract_z
 _atom_site_occupancy
 _atom_site_pbe_bader_charge
 _atom_site_pbe_bader_spin_density
 _atom_site_pbe_cm5_charge
 _atom_site_pbe_ddec_charge
 _atom_site_pbe_ddec_spin_density
 _atom_site_pbe_ddec_sum_bond_order
 _atom_site_pbe_magmom
In  In0  1  0.74878441  0.56308192  0.45931435  1  1.831485  0  0.753912  1.269425  0  2.691779  0
In  In1  1  0.43689665  0.25116293  0.04069070  1  1.831283  0  0.753937  1.269421  0  2.69185  0
In  In2  1  0.25118237  0.43690892  0.54068151  1  1.831772  0  0.753971  1.269411  0  2.691692  0
In  In3  1  0.56313058  0.74874634  0.95933341  1  1.832415  0  0.753913  1.269261  0  2.691564  0
H  H4  1  0.97311169  0.90136499  0.21075286  1  0.092804  0  0.105776  0.108444  0  0.994684  0
H  H5  1  0.09863467  0.02688637  0.28922007  1  0.090927  0  0.105775  0.108458  0  0.994749  0
H  H6  1  0.02690095  0.09895655  0.78914751  1  0.090541  0  0.10583  0.108529  0  0.99502  0
H  H7  1  0.90134594  0.97302957  0.71080767  1  0.091411  0  0.105847  0.108545  0  0.994554  0
H  H8  1  0.17005737  0.92462034  0.10615902  1  0.0544  0  0.108735  0.114773  0  0.989728  0
H  H9  1  0.07535262  0.82993812  0.39381367  1  0.054167  0  0.108736  0.114722  0  0.989786  0
H  H10  1  0.83002483  0.07551533  0.89378514  1  0.057864  0  0.108608  0.114701  0  0.989767  0
H  H11  1  0.92466350  0.16995412  0.60619151  1  0.055734  0  0.108663  0.114718  0  0.989765  0
H  H12  1  0.30229811  0.55486868  0.19634804  1  0.079185  0  0.106899  0.108854  0  1.030271  0
H  H13  1  0.44511532  0.69768971  0.30367376  1  0.079304  0  0.106963  0.108899  0  1.03044  0
H  H14  1  0.69752439  0.44523795  0.80370223  1  0.077322  0  0.106889  0.108543  0  1.030768  0
H  H15  1  0.55492273  0.30229094  0.69633497  1  0.079677  0  0.106976  0.108828  0  1.030469  0
H  H16  1  0.10864494  0.53304407  0.30103748  1  0.118404  0  0.102184  0.103705  0  1.045951  0
H  H17  1  0.46695962  0.89134167  0.19898721  1  0.118966  0  0.102225  0.103671  0  1.046101  0
H  H18  1  0.89109544  0.46721699  0.69895673  1  0.117787  0  0.102255  0.103847  0  1.045707  0
H  H19  1  0.53302516  0.10867363  0.80104453  1  0.118541  0  0.102092  0.103612  0  1.046063  0
H  H20  1  0.82056429  0.25249139  0.29539573  1  0.100415  0  0.103788  0.10696  0  0.997405  0
H  H21  1  0.74751845  0.17941993  0.20460945  1  0.100844  0  0.103762  0.106915  0  0.997315  0
H  H22  1  0.17946729  0.74750507  0.70460381  1  0.100867  0  0.103819  0.106918  0  0.997572  0
H  H23  1  0.25252029  0.82052695  0.79540710  1  0.101211  0  0.103806  0.106852  0  0.997383  0
H  H24  1  0.52718461  0.54281308  0.29639751  1  0.07973  0  0.101713  0.105283  0  1.048858  0
H  H25  1  0.45718097  0.47282371  0.20361344  1  0.079563  0  0.101711  0.105284  0  1.048874  0
H  H26  1  0.47283090  0.45715347  0.70359895  1  0.079067  0  0.101717  0.105121  0  1.049132  0
H  H27  1  0.54281308  0.52712084  0.79639796  1  0.079358  0  0.101695  0.105176  0  1.049007  0
H  H28  1  0.48617297  0.67068030  0.43080700  1  0.1727  0  0.125594  0.100133  0  1.030717  0
H  H29  1  0.32925285  0.51382018  0.06922919  1  0.172179  0  0.125487  0.099975  0  1.030754  0
H  H30  1  0.51382802  0.32926732  0.56920204  1  0.17224  0  0.125482  0.09994  0  1.03089  0
H  H31  1  0.67076251  0.48611370  0.93080818  1  0.144511  0  0.125511  0.099956  0  1.030937  0
H  H32  1  0.30943141  0.82279230  0.47395636  1  0.105159  0  0.11184  0.11958  0  1.001428  0
H  H33  1  0.17713149  0.69054924  0.02608012  1  0.10664  0  0.111792  0.119497  0  1.002034  0
H  H34  1  0.69056562  0.17713622  0.52607208  1  0.106125  0  0.111785  0.119511  0  1.001772  0
H  H35  1  0.82292518  0.30942116  0.97392837  1  0.106404  0  0.111739  0.119417  0  1.001864  0
H  H36  1  0.31594665  0.93879612  0.56790975  1  0.094344  0  0.117734  0.118756  0  0.963339  0
H  H37  1  0.06112404  0.68402369  0.93213778  1  0.093757  0  0.117886  0.119029  0  0.963366  0
H  H38  1  0.68403015  0.06113693  0.43213229  1  0.093612  0  0.117845  0.118994  0  0.963618  0
H  H39  1  0.93890554  0.31598434  0.06785659  1  0.09343  0  0.117888  0.118941  0  0.96388  0
H  H40  1  0.42903623  0.97508358  0.65281144  1  0.089465  0  0.114202  0.125595  0  0.969009  0
H  H41  1  0.02486327  0.57093590  0.84721713  1  0.088608  0  0.114229  0.125633  0  0.968803  0
H  H42  1  0.57099384  0.02481484  0.34721573  1  0.088152  0  0.114165  0.125593  0  0.96914  0
H  H43  1  0.97519059  0.42904187  0.15277400  1  0.088056  0  0.114159  0.125481  0  0.969125  0
H  H44  1  0.61179678  0.93060798  0.69754793  1  0.090427  0  0.107018  0.111632  0  1.027075  0
H  H45  1  0.06939402  0.38814685  0.80247552  1  0.090955  0  0.106936  0.111429  0  1.027305  0
H  H46  1  0.38824050  0.06932186  0.30244567  1  0.090022  0  0.106793  0.111397  0  1.027235  0
H  H47  1  0.93063404  0.61180888  0.19754903  1  0.090589  0  0.106974  0.111626  0  1.027068  0
H  H48  1  0.82205207  0.81530608  0.69092976  1  0.1249  0  0.109355  0.117327  0  1.027122  0
H  H49  1  0.18476254  0.17795879  0.80904136  1  0.123397  0  0.109337  0.117288  0  1.026824  0
H  H50  1  0.17798574  0.18468140  0.30902334  1  0.124614  0  0.109444  0.11742  0  1.026893  0
H  H51  1  0.81527356  0.82203259  0.19097808  1  0.124812  0  0.109404  0.117293  0  1.02655  0
H  H52  1  0.99180172  0.67052429  0.62677897  1  0.170906  0  0.117457  0.141332  0  1.001477  0
H  H53  1  0.32957038  0.00820861  0.87315748  1  0.170381  0  0.117441  0.141309  0  1.001395  0
H  H54  1  0.00827954  0.32952346  0.37313215  1  0.170443  0  0.117388  0.141288  0  1.001435  0
H  H55  1  0.67041903  0.99175063  0.12687364  1  0.170107  0  0.117405  0.141288  0  1.001354  0
H  H56  1  0.95974872  0.56978401  0.53491482  1  0.159885  0  0.129042  0.104152  0  1.01839  0
H  H57  1  0.43027540  0.04026174  0.96504168  1  0.159336  0  0.129145  0.104246  0  1.018204  0
H  H58  1  0.04032804  0.43022837  0.46502550  1  0.159943  0  0.129094  0.104253  0  1.018464  0
H  H59  1  0.56973002  0.95968510  0.03497753  1  0.159754  0  0.129156  0.104217  0  1.01841  0
C  C60  1  0.02963761  0.71581613  0.26224844  1  -0.069868  0  -0.014341  -0.031388  0  3.968243  0
C  C61  1  0.28419736  0.97035832  0.23774723  1  -0.069999  0  -0.014232  -0.031034  0  3.967624  0
C  C62  1  0.97024772  0.28447315  0.73770131  1  -0.071973  0  -0.013887  -0.030062  0  3.967321  0
C  C63  1  0.71578537  0.02962624  0.76226726  1  -0.070045  0  -0.014321  -0.031516  0  3.968037  0
C  C64  1  0.04609101  0.82611504  0.20676774  1  -0.031973  0  -0.082857  -0.101777  0  3.983184  0
C  C65  1  0.17388197  0.95390609  0.29321322  1  -0.029998  0  -0.082796  -0.101869  0  3.983141  0
C  C66  1  0.95386239  0.17414469  0.79315371  1  -0.026062  0  -0.082923  -0.102352  0  3.984466  0
C  C67  1  0.82611095  0.04605251  0.70681779  1  -0.031876  0  -0.082908  -0.101862  0  3.983232  0
C  C68  1  0.15501120  0.83925915  0.14897554  1  0.008033  0  -0.077523  -0.089153  0  3.958558  0
C  C69  1  0.16071889  0.84498433  0.35100533  1  0.008239  0  -0.077635  -0.089161  0  3.958759  0
C  C70  1  0.84498178  0.16090897  0.85097566  1  0.005974  0  -0.077408  -0.089266  0  3.959097  0
C  C71  1  0.83927425  0.15496124  0.64900255  1  0.008084  0  -0.077595  -0.089357  0  3.958828  0
C  C72  1  0.24797527  0.74152430  0.14563421  1  -0.043655  0  -0.010493  -0.024676  0  3.979457  0
C  C73  1  0.25845473  0.75202390  0.35436824  1  -0.04197  0  -0.010343  -0.02444  0  3.979226  0
C  C74  1  0.75196285  0.25858385  0.85434939  1  -0.043351  0  -0.010499  -0.024078  0  3.978145  0
C  C75  1  0.74155045  0.24793330  0.64563637  1  -0.042493  0  -0.010188  -0.024224  0  3.978796  0
C  C76  1  0.23054015  0.63083863  0.20010671  1  0.003645  0  -0.082617  -0.099256  0  3.968461  0
C  C77  1  0.36914572  0.76943863  0.29989963  1  0.001277  0  -0.082694  -0.099319  0  3.968794  0
C  C78  1  0.76930249  0.36930827  0.79988915  1  0.00102  0  -0.082755  -0.098948  0  3.967976  0
C  C79  1  0.63086450  0.23053063  0.70011373  1  0.002797  0  -0.082765  -0.099269  0  3.968915  0
C  C80  1  0.12272234  0.61824423  0.25810164  1  -0.067136  0  -0.083196  -0.085908  0  3.967288  0
C  C81  1  0.38175412  0.87726096  0.24191049  1  -0.067314  0  -0.083335  -0.086094  0  3.967451  0
C  C82  1  0.87709594  0.38198038  0.74188625  1  -0.06542  0  -0.083418  -0.086804  0  3.966756  0
C  C83  1  0.61823450  0.12273813  0.75812708  1  -0.067337  0  -0.083053  -0.085761  0  3.967305  0
C  C84  1  0.91402264  0.69942339  0.32625682  1  1.561606  0  0.209037  0.555177  0  4.233818  0
C  C85  1  0.30061055  0.08597091  0.17373828  1  1.562161  0  0.209018  0.554891  0  4.233922  0
C  C86  1  0.08582782  0.30089626  0.67366434  1  1.559674  0  0.208653  0.554535  0  4.233859  0
C  C87  1  0.69936419  0.91401853  0.82627521  1  1.561315  0  0.209177  0.555508  0  4.233346  0
C  C88  1  0.36392325  0.75231194  0.08294839  1  1.526693  0  0.213242  0.551105  0  4.201646  0
C  C89  1  0.24767471  0.63606924  0.41705108  1  1.526094  0  0.21298  0.550761  0  4.20226  0
C  C90  1  0.63605198  0.24769728  0.91706787  1  1.52637  0  0.213247  0.551156  0  4.201553  0
C  C91  1  0.75238361  0.36386025  0.58293182  1  1.524618  0  0.21295  0.550683  0  4.201514  0
C  C92  1  0.67886789  0.40313442  0.30016615  1  -0.054722  0  -0.015113  -0.027275  0  3.972602  0
C  C93  1  0.59686959  0.32114217  0.19984283  1  -0.05338  0  -0.015032  -0.027395  0  3.972751  0
C  C94  1  0.32116324  0.59684055  0.69983218  1  -0.054248  0  -0.015065  -0.02696  0  3.972322  0
C  C95  1  0.40314748  0.67879310  0.80018683  1  -0.053904  0  -0.014935  -0.027161  0  3.972373  0
C  C96  1  0.74072017  0.29969272  0.27499238  1  -0.077742  0  -0.08795  -0.107602  0  3.999435  0
C  C97  1  0.70030539  0.25927244  0.22501029  1  -0.018102  0  -0.087981  -0.107477  0  3.999237  0
C  C98  1  0.25930928  0.70027823  0.72500381  1  -0.065571  0  -0.087958  -0.107638  0  3.999182  0
C  C99  1  0.29973563  0.74069039  0.77498799  1  -0.029332  0  -0.087959  -0.107439  0  3.998704  0
C  C100  1  0.57596738  0.46454014  0.27490681  1  0.02421  0  -0.084479  -0.088027  0  3.952474  0
C  C101  1  0.53545810  0.42403801  0.22510656  1  -0.0419  0  -0.084451  -0.087891  0  3.952674  0
C  C102  1  0.42405443  0.53541838  0.72509530  1  0.023853  0  -0.084429  -0.087789  0  3.952276  0
C  C103  1  0.46455681  0.57591573  0.77490122  1  -0.042085  0  -0.084636  -0.08803  0  3.952414  0
C  C104  1  0.72097981  0.44585539  0.35501518  1  1.53984  0  0.208468  0.556055  0  4.222803  0
C  C105  1  0.55412768  0.27900906  0.14501250  1  1.538498  0  0.20835  0.555928  0  4.222874  0
C  C106  1  0.27904971  0.55415434  0.64496310  1  1.539306  0  0.20816  0.555348  0  4.223044  0
C  C107  1  0.44588219  0.72093615  0.85502117  1  1.540453  0  0.207943  0.555377  0  4.223444  0
C  C108  1  0.48645518  0.72449643  0.46994947  1  0.456925  0  0.074538  0.125728  0  3.883145  0
C  C109  1  0.27541906  0.51352560  0.03010452  1  0.456786  0  0.074748  0.126122  0  3.882466  0
C  C110  1  0.51356852  0.27545572  0.53005137  1  0.457248  0  0.074649  0.12574  0  3.883163  0
C  C111  1  0.72457737  0.48639188  0.96995400  1  0.485391  0  0.074529  0.125437  0  3.883191  0
C  C112  1  0.38761029  0.80932921  0.49516540  1  0.019849  0  -0.073805  -0.114806  0  3.95775  0
C  C113  1  0.19058598  0.61237053  0.00488621  1  0.01887  0  -0.07379  -0.114572  0  3.958558  0
C  C114  1  0.61239147  0.19058206  0.50486367  1  0.019885  0  -0.073648  -0.114423  0  3.957934  0
C  C115  1  0.80945519  0.38758717  0.99514116  1  0.021257  0  -0.073572  -0.114125  0  3.958376  0
C  C116  1  0.39137936  0.87246086  0.54716968  1  -0.041909  0  -0.052778  -0.06248  0  3.928588  0
C  C117  1  0.12748496  0.60861989  0.95286916  1  -0.041866  0  -0.052883  -0.062953  0  3.929149  0
C  C118  1  0.60860585  0.12744566  0.45287548  1  -0.042765  0  -0.052924  -0.062975  0  3.929128  0
C  C119  1  0.87258523  0.39137479  0.04712050  1  -0.044749  0  -0.052851  -0.062784  0  3.929369  0
C  C120  1  0.49376637  0.85056238  0.57477178  1  0.039725  0  0.00312  0.044185  0  4.017618  0
C  C121  1  0.14941067  0.50620567  0.92527447  1  0.039898  0  0.002857  0.043994  0  4.016945  0
C  C122  1  0.50624285  0.14936997  0.42524647  1  0.039833  0  0.002683  0.043835  0  4.017328  0
C  C123  1  0.85062766  0.49376200  0.07474192  1  0.039773  0  0.002756  0.043735  0  4.017436  0
C  C124  1  0.59000320  0.76449426  0.54543029  1  0.447952  0  0.128593  0.127163  0  3.972126  0
C  C125  1  0.23550481  0.40995214  0.95459934  1  0.447518  0  0.128626  0.127001  0  3.972004  0
C  C126  1  0.41000307  0.23545240  0.45457597  1  0.448624  0  0.128627  0.1272  0  3.971496  0
C  C127  1  0.76453307  0.58999404  0.04541642  1  0.44828  0  0.128591  0.127141  0  3.972  0
C  C128  1  0.50414181  0.90968696  0.63033833  1  -0.01705  0  -0.078597  -0.121562  0  3.985992  0
C  C129  1  0.09027006  0.49582390  0.86970232  1  -0.014657  0  -0.078312  -0.121322  0  3.985044  0
C  C130  1  0.49586926  0.09023987  0.36967207  1  -0.015503  0  -0.078383  -0.121333  0  3.986168  0
C  C131  1  0.90975334  0.50414474  0.13031853  1  -0.014588  0  -0.078314  -0.121131  0  3.985479  0
C  C132  1  0.60541705  0.88512284  0.65503471  1  -0.007237  0  -0.078192  -0.106962  0  3.959011  0
C  C133  1  0.11488388  0.39455882  0.84497475  1  -0.008405  0  -0.078164  -0.106839  0  3.959232  0
C  C134  1  0.39461230  0.11480930  0.34496662  1  -0.008106  0  -0.077924  -0.106695  0  3.959178  0
C  C135  1  0.88517705  0.60541683  0.15502568  1  -0.008946  0  -0.078157  -0.106825  0  3.959038  0
C  C136  1  0.70507378  0.80029077  0.62544223  1  0.002794  0  0.004261  0.05216  0  3.993979  0
C  C137  1  0.19971121  0.29491507  0.87455898  1  0.00311  0  0.004074  0.052167  0  3.994755  0
C  C138  1  0.29494797  0.19967034  0.37455289  1  0.002863  0  0.003998  0.051461  0  3.993444  0
C  C139  1  0.80030472  0.70503159  0.12544965  1  0.002217  0  0.004173  0.051684  0  3.994386  0
C  C140  1  0.81330476  0.77328093  0.64703836  1  -0.086472  0  -0.054334  -0.061966  0  3.882365  0
C  C141  1  0.22674800  0.18669321  0.85295922  1  -0.084667  0  -0.054169  -0.061943  0  3.88193  0
C  C142  1  0.18673630  0.22671977  0.35291433  1  -0.085304  0  -0.054276  -0.061578  0  3.881463  0
C  C143  1  0.77324258  0.81325203  0.14708248  1  -0.085514  0  -0.054329  -0.061714  0  3.880706  0
C  C144  1  0.90610427  0.69249905  0.61338799  1  -0.011005  0  -0.071589  -0.115802  0  3.915249  0
C  C145  1  0.30757952  0.09389983  0.88657224  1  -0.010916  0  -0.071576  -0.11566  0  3.914747  0
C  C146  1  0.09396078  0.30752836  0.38654515  1  -0.011944  0  -0.071865  -0.11642  0  3.915398  0
C  C147  1  0.69241542  0.90604546  0.11345505  1  -0.011074  0  -0.071565  -0.115999  0  3.914671  0
C  C148  1  0.88927398  0.63536405  0.56080353  1  0.482028  0  0.07587  0.131034  0  3.901705  0
C  C149  1  0.36469964  0.11072627  0.93915819  1  0.482459  0  0.075696  0.130618  0  3.902374  0
C  C150  1  0.11077118  0.36464970  0.43914045  1  0.482578  0  0.07604  0.131309  0  3.901998  0
C  C151  1  0.63530289  0.88923317  0.06085989  1  0.482451  0  0.075796  0.131119  0  3.902106  0
C  C152  1  0.69693299  0.73954847  0.57091166  1  0.47724  0  0.126233  0.12339  0  3.985503  0
C  C153  1  0.26045850  0.30304348  0.92908467  1  0.476264  0  0.126325  0.123333  0  3.985564  0
C  C154  1  0.30307548  0.26041936  0.42908791  1  0.476828  0  0.126698  0.124203  0  3.984881  0
C  C155  1  0.73955443  0.69692096  0.07091872  1  0.477519  0  0.126398  0.123679  0  3.985795  0
N  N156  1  0.58483624  0.70432831  0.49366151  1  -1.244541  0  -0.296046  -0.277643  0  3.516242  0
N  N157  1  0.29564063  0.41513077  0.00638186  1  -1.243528  0  -0.296064  -0.277787  0  3.515766  0
N  N158  1  0.41517514  0.29562607  0.50634753  1  -1.24414  0  -0.29594  -0.277543  0  3.515079  0
N  N159  1  0.70436143  0.58480979  0.99365010  1  -1.24388  0  -0.29585  -0.277241  0  3.515584  0
N  N160  1  0.78753122  0.65746835  0.54130204  1  -1.247327  0  -0.300407  -0.291868  0  3.534271  0
N  N161  1  0.34253858  0.21244449  0.95869301  1  -1.247301  0  -0.300378  -0.291447  0  3.534504  0
N  N162  1  0.21249427  0.34252311  0.45866815  1  -1.246448  0  -0.300629  -0.292228  0  3.534147  0
N  N163  1  0.65746153  0.78750505  0.04133379  1  -1.246868  0  -0.300507  -0.291883  0  3.534338  0
O  O164  1  0.91295395  0.59041141  0.37091284  1  -1.147601  0  -0.298443  -0.558212  0  2.312618  0
O  O165  1  0.40962339  0.08702242  0.12906646  1  -1.147869  0  -0.29848  -0.558012  0  2.3131  0
O  O166  1  0.08684697  0.40988166  0.62896587  1  -1.14727  0  -0.298548  -0.557848  0  2.313223  0
O  O167  1  0.59036797  0.91297010  0.87095400  1  -1.148327  0  -0.298588  -0.558194  0  2.312654  0
O  O168  1  0.82799119  0.78281854  0.33375393  1  -1.175893  0  -0.327191  -0.563036  0  2.077675  0
O  O169  1  0.21722618  0.17200216  0.16625114  1  -1.175889  0  -0.32704  -0.562864  0  2.077891  0
O  O170  1  0.17191482  0.21753348  0.66619818  1  -1.173661  0  -0.32679  -0.562992  0  2.077521  0
O  O171  1  0.78273076  0.82795773  0.83378052  1  -1.175309  0  -0.32738  -0.563403  0  2.077203  0
O  O172  1  0.39239085  0.85144983  0.04396680  1  -1.161999  0  -0.285957  -0.532995  0  2.206849  0
O  O173  1  0.14852626  0.60761144  0.45601416  1  -1.161703  0  -0.285872  -0.532992  0  2.207229  0
O  O174  1  0.60764810  0.14852714  0.95601236  1  -1.161393  0  -0.285895  -0.533071  0  2.206768  0
O  O175  1  0.85151931  0.39234105  0.54396690  1  -1.161566  0  -0.285926  -0.532995  0  2.206609  0
O  O176  1  0.43425773  0.65646351  0.06761896  1  -1.147977  0  -0.29454  -0.54817  0  2.215514  0
O  O177  1  0.34350270  0.56572685  0.43238060  1  -1.147714  0  -0.294374  -0.547921  0  2.215767  0
O  O178  1  0.56567278  0.34350286  0.93241684  1  -1.148121  0  -0.294504  -0.548241  0  2.216103  0
O  O179  1  0.65653453  0.43420648  0.56762266  1  -1.146919  0  -0.294332  -0.547792  0  2.215276  0
O  O180  1  0.66698909  0.54899947  0.36798655  1  -1.147565  0  -0.304688  -0.561736  0  2.210101  0
O  O181  1  0.45099287  0.33299172  0.13207405  1  -1.147616  0  -0.304625  -0.561589  0  2.209719  0
O  O182  1  0.33294647  0.45097809  0.63205414  1  -1.148239  0  -0.304526  -0.561338  0  2.209848  0
O  O183  1  0.54903704  0.66695850  0.86795078  1  -1.148426  0  -0.304634  -0.561574  0  2.209684  0
O  O184  1  0.80332892  0.38338741  0.38781791  1  -1.170267  0  -0.303601  -0.549809  0  2.154269  0
O  O185  1  0.61660316  0.19665886  0.11218918  1  -1.170309  0  -0.303689  -0.549882  0  2.153974  0
O  O186  1  0.19674209  0.61669331  0.61212097  1  -1.17025  0  -0.303521  -0.549586  0  2.154107  0
O  O187  1  0.38343757  0.80331782  0.88780299  1  -1.170785  0  -0.303298  -0.549344  0  2.154539  0
