# generated using pymatgen
data_ZnH10C18(NO)4
_symmetry_space_group_name_H-M   'P 1'
_cell_length_a   7.60055378
_cell_length_b   10.15805812
_cell_length_c   24.12206727
_cell_angle_alpha   89.99992398
_cell_angle_beta   95.62714806
_cell_angle_gamma   89.99972690
_symmetry_Int_Tables_number   1
_chemical_formula_structural   ZnH10C18(NO)4
_chemical_formula_sum   'Zn4 H40 C72 N16 O16'
_cell_volume   1853.41448335
_cell_formula_units_Z   4
loop_
 _symmetry_equiv_pos_site_id
 _symmetry_equiv_pos_as_xyz
  1  'x, y, z'
loop_
 _atom_site_type_symbol
 _atom_site_label
 _atom_site_symmetry_multiplicity
 _atom_site_fract_x
 _atom_site_fract_y
 _atom_site_fract_z
 _atom_site_occupancy
 _atom_site_pbe_bader_charge
 _atom_site_pbe_bader_spin_density
 _atom_site_pbe_cm5_charge
 _atom_site_pbe_ddec_charge
 _atom_site_pbe_ddec_spin_density
 _atom_site_pbe_ddec_sum_bond_order
 _atom_site_pbe_magmom
Zn  Zn0  1  0.70933634  0.90668865  0.84839453  1  1.269047  0  0.678318  0.663687  0  2.495016  0
Zn  Zn1  1  0.79067213  0.40668663  0.65160539  1  1.269058  0  0.678283  0.663561  0  2.495205  0
Zn  Zn2  1  0.29065946  0.09331235  0.15160858  1  1.269188  0  0.678325  0.663673  0  2.495118  0
Zn  Zn3  1  0.20933948  0.59331240  0.34839728  1  1.268956  0  0.678342  0.663683  0  2.495084  0
H  H4  1  0.44208145  0.53911910  0.70238272  1  0.178061  0  0.129943  0.118186  0  0.99491  0
H  H5  1  0.05792979  0.03911673  0.79761362  1  0.178399  0  0.129967  0.118216  0  0.994946  0
H  H6  1  0.55792892  0.46087698  0.29762117  1  0.177819  0  0.130009  0.118214  0  0.994916  0
H  H7  1  0.94206596  0.96088230  0.20238866  1  0.177871  0  0.129943  0.118221  0  0.99501  0
H  H8  1  0.41194956  0.73094315  0.76863255  1  0.191581  0  0.132091  0.132381  0  0.994866  0
H  H9  1  0.08805945  0.23094376  0.73136690  1  0.192228  0  0.132048  0.132263  0  0.994944  0
H  H10  1  0.58805794  0.26906179  0.23136753  1  0.191461  0  0.132086  0.132296  0  0.994864  0
H  H11  1  0.91193902  0.76906216  0.26863669  1  0.192158  0  0.132069  0.132215  0  0.995041  0
H  H12  1  0.46339330  0.66367712  0.87478320  1  0.112026  0  0.124552  0.099971  0  0.990254  0
H  H13  1  0.03662826  0.16368113  0.62522117  1  0.111811  0  0.12457  0.100008  0  0.990135  0
H  H14  1  0.53660913  0.33632289  0.12522048  1  0.111938  0  0.124594  0.100047  0  0.990113  0
H  H15  1  0.96337425  0.83632480  0.37478376  1  0.111979  0  0.124553  0.099964  0  0.990199  0
H  H16  1  0.36955363  0.55798379  0.96010403  1  0.123709  0  0.111143  0.116827  0  0.999102  0
H  H17  1  0.13047260  0.05798464  0.53990220  1  0.123613  0  0.111279  0.116995  0  0.999259  0
H  H18  1  0.63045149  0.44201228  0.03990055  1  0.123697  0  0.111165  0.11685  0  0.999157  0
H  H19  1  0.86952741  0.94201045  0.46010516  1  0.12345  0  0.111212  0.116909  0  0.999172  0
H  H20  1  0.47146165  0.65436814  0.05394858  1  0.074258  0  0.112717  0.113164  0  0.979833  0
H  H21  1  0.02857647  0.15435967  0.44605614  1  0.07431  0  0.112704  0.113185  0  0.979702  0
H  H22  1  0.52853948  0.34563089  0.94605549  1  0.074392  0  0.112691  0.113163  0  0.979767  0
H  H23  1  0.97142344  0.84561967  0.55394955  1  0.07443  0  0.11272  0.113182  0  0.979758  0
H  H24  1  0.62792432  0.84145962  0.10909521  1  0.14727  0  0.108642  0.121906  0  1.004223  0
H  H25  1  0.87208914  0.34143215  0.39090481  1  0.121811  0  0.108674  0.121937  0  1.004193  0
H  H26  1  0.37205439  0.15857091  0.89090913  1  0.121903  0  0.108651  0.121876  0  1.004274  0
H  H27  1  0.12793028  0.65856688  0.60909598  1  0.121805  0  0.108686  0.121923  0  1.004341  0
H  H28  1  0.78967369  0.05195899  0.10868005  1  0.163279  0  0.112686  0.134436  0  1.013232  0
H  H29  1  0.71032674  0.55193137  0.39131738  1  0.163291  0  0.112747  0.134492  0  1.013261  0
H  H30  1  0.21031927  0.94805776  0.89131967  1  0.163428  0  0.112719  0.134486  0  1.013113  0
H  H31  1  0.28968742  0.44806175  0.60868370  1  0.163372  0  0.112714  0.134431  0  1.013213  0
H  H32  1  0.92723096  0.22892172  0.05619185  1  0.129725  0  0.113306  0.127498  0  1.016538  0
H  H33  1  0.57276295  0.72889062  0.44380154  1  0.130151  0  0.113348  0.127517  0  1.016563  0
H  H34  1  0.07277216  0.77109700  0.94380107  1  0.130051  0  0.113368  0.127555  0  1.016537  0
H  H35  1  0.42723691  0.27110743  0.55620332  1  0.130181  0  0.113388  0.127617  0  1.016462  0
H  H36  1  0.99332806  0.32123254  0.96269054  1  0.092805  0  0.111321  0.12012  0  0.977463  0
H  H37  1  0.50662756  0.82119766  0.53730023  1  0.091117  0  0.111356  0.120184  0  0.977271  0
H  H38  1  0.00665242  0.67877830  0.03729891  1  0.092926  0  0.111332  0.120123  0  0.977338  0
H  H39  1  0.49334601  0.17877971  0.46270646  1  0.092341  0  0.111365  0.120116  0  0.977258  0
H  H40  1  0.89885140  0.19326644  0.87656227  1  0.061698  0  0.118525  0.083815  0  0.994983  0
H  H41  1  0.60113416  0.69325363  0.62343143  1  0.061185  0  0.118508  0.083936  0  0.995042  0
H  H42  1  0.10112935  0.80672373  0.12343175  1  0.060923  0  0.118531  0.083928  0  0.994906  0
H  H43  1  0.39887493  0.30672768  0.37657325  1  0.061141  0  0.118513  0.083887  0  0.994981  0
C  C44  1  0.98797654  0.71638204  0.83379599  1  1.645532  0  0.196522  0.545188  0  4.271215  0
C  C45  1  0.51205510  0.21637424  0.66619802  1  1.644727  0  0.196552  0.544906  0  4.271726  0
C  C46  1  0.01204132  0.28363668  0.16620062  1  1.644224  0  0.196429  0.544664  0  4.271795  0
C  C47  1  0.48796259  0.78362480  0.33379568  1  1.645227  0  0.196583  0.544939  0  4.27133  0
C  C48  1  0.84434092  0.68184231  0.78757840  1  0.52557  0  0.130918  0.07427  0  3.8738  0
C  C49  1  0.65567400  0.18183186  0.71241978  1  0.524488  0  0.131049  0.07448  0  3.87379  0
C  C50  1  0.15566518  0.31817444  0.21242040  1  0.52603  0  0.131023  0.074424  0  3.873747  0
C  C51  1  0.34432680  0.81815241  0.28757847  1  0.524689  0  0.130953  0.074398  0  3.873724  0
C  C52  1  0.86362987  0.59883729  0.74182280  1  0.511652  0  0.126995  0.064002  0  3.881193  0
C  C53  1  0.63639192  0.09882681  0.75817188  1  0.512745  0  0.126903  0.063874  0  3.881834  0
C  C54  1  0.13637746  0.40117947  0.25817438  1  0.51172  0  0.1269  0.063985  0  3.881154  0
C  C55  1  0.36360849  0.90115352  0.24181973  1  0.51243  0  0.126952  0.063794  0  3.881528  0
C  C56  1  0.03595862  0.57620377  0.71579139  1  1.66187  0  0.197442  0.538273  0  4.284407  0
C  C57  1  0.46405868  0.07618304  0.78419927  1  1.661151  0  0.197375  0.538104  0  4.284358  0
C  C58  1  0.96404725  0.42381495  0.28420326  1  1.661186  0  0.19739  0.538199  0  4.284672  0
C  C59  1  0.53594572  0.92378153  0.21579286  1  1.66189  0  0.197259  0.538068  0  4.284793  0
C  C60  1  0.55680802  0.58593783  0.72483441  1  0.488617  0  0.060584  0.057936  0  3.886412  0
C  C61  1  0.94320620  0.08593000  0.77516507  1  0.488548  0  0.06057  0.057808  0  3.886311  0
C  C62  1  0.44319963  0.41406416  0.27516816  1  0.488692  0  0.060511  0.057731  0  3.886308  0
C  C63  1  0.05678277  0.91405623  0.22483414  1  0.489307  0  0.060633  0.057764  0  3.886613  0
C  C64  1  0.53982812  0.68673760  0.76319258  1  0.470283  0  0.063026  0.056821  0  3.876746  0
C  C65  1  0.96018293  0.18673372  0.73680757  1  0.469661  0  0.063055  0.05698  0  3.876541  0
C  C66  1  0.46017549  0.31326439  0.23680865  1  0.471072  0  0.063102  0.057106  0  3.87651  0
C  C67  1  0.03980616  0.81326531  0.26319370  1  0.469875  0  0.062982  0.056977  0  3.876739  0
C  C68  1  0.50659559  0.70364034  0.91580052  1  0.530459  0  0.065463  0.116379  0  3.90666  0
C  C69  1  0.99343002  0.20363961  0.58420206  1  0.530425  0  0.065393  0.116228  0  3.906961  0
C  C70  1  0.49340021  0.29636263  0.08420258  1  0.53037  0  0.065389  0.116284  0  3.906656  0
C  C71  1  0.00657375  0.79635942  0.41580208  1  0.530395  0  0.065403  0.116336  0  3.906975  0
C  C72  1  0.45469214  0.64423731  0.96420730  1  -0.057793  0  -0.081634  -0.12869  0  3.999073  0
C  C73  1  0.04533746  0.14423162  0.53579730  1  -0.05708  0  -0.081721  -0.12891  0  3.999434  0
C  C74  1  0.54530643  0.35576566  0.03579795  1  -0.057537  0  -0.081647  -0.12876  0  3.999135  0
C  C75  1  0.95466898  0.85576347  0.46420732  1  -0.057402  0  -0.081665  -0.128797  0  3.999208  0
C  C76  1  0.50964718  0.69821901  0.01562345  1  -0.048185  0  -0.064876  -0.085345  0  3.953493  0
C  C77  1  0.99038850  0.19820857  0.48438139  1  -0.048888  0  -0.064888  -0.085355  0  3.953191  0
C  C78  1  0.49035007  0.30178987  0.98438177  1  -0.048472  0  -0.064823  -0.08525  0  3.953191  0
C  C79  1  0.00961930  0.80177767  0.51562368  1  -0.048551  0  -0.064928  -0.085365  0  3.953195  0
C  C80  1  0.61020389  0.81535044  0.01874658  1  0.017262  0  -0.002369  0.040351  0  4.024125  0
C  C81  1  0.88982178  0.31533845  0.48125667  1  0.017905  0  -0.002414  0.040333  0  4.023936  0
C  C82  1  0.38978407  0.18466041  0.98125798  1  0.017974  0  -0.002435  0.04023  0  4.024306  0
C  C83  1  0.11018846  0.68465271  0.51874514  1  0.017454  0  -0.002354  0.040346  0  4.024107  0
C  C84  1  0.66259773  0.88272634  0.06982647  1  -0.040963  0  -0.084164  -0.124719  0  3.961904  0
C  C85  1  0.83741679  0.38270877  0.43017313  1  -0.015252  0  -0.084246  -0.124708  0  3.961901  0
C  C86  1  0.33738745  0.11729041  0.93017554  1  -0.016256  0  -0.084207  -0.124765  0  3.962226  0
C  C87  1  0.16259475  0.61728830  0.56982829  1  -0.015415  0  -0.084284  -0.12481  0  3.962224  0
C  C88  1  0.75205226  0.99949060  0.06994535  1  -0.061775  0  -0.077053  -0.101831  0  3.931741  0
C  C89  1  0.74795484  0.49946552  0.43005149  1  -0.062061  0  -0.077001  -0.10191  0  3.931854  0
C  C90  1  0.24794472  0.00052615  0.93005530  1  -0.0619  0  -0.076925  -0.101673  0  3.931749  0
C  C91  1  0.25205266  0.50052761  0.56994859  1  -0.061806  0  -0.076952  -0.101639  0  3.931643  0
C  C92  1  0.79738474  0.05699743  0.01900428  1  0.047192  0  0.00063  0.042942  0  3.981092  0
C  C93  1  0.70262220  0.55698147  0.48099206  1  0.047052  0  0.000645  0.04306  0  3.980762  0
C  C94  1  0.20260426  0.94301440  0.98099533  1  0.047016  0  0.0006  0.043015  0  3.981091  0
C  C95  1  0.29738398  0.44301362  0.51900799  1  0.046733  0  0.000658  0.042931  0  3.98092  0
C  C96  1  0.88784969  0.17837872  0.01701901  1  -0.015888  0  -0.058508  -0.061845  0  3.898542  0
C  C97  1  0.61213677  0.67835623  0.48297755  1  -0.015884  0  -0.058671  -0.062081  0  3.898852  0
C  C98  1  0.11214437  0.82163114  0.98297700  1  -0.015883  0  -0.058653  -0.062153  0  3.898909  0
C  C99  1  0.38785776  0.32163591  0.51702635  1  -0.015964  0  -0.05879  -0.062296  0  3.89864  0
C  C100  1  0.92379255  0.22815682  0.96598108  1  -0.115732  0  -0.085847  -0.141143  0  4.001671  0
C  C101  1  0.57618620  0.72813052  0.53401242  1  -0.114487  0  -0.085829  -0.141069  0  4.001729  0
C  C102  1  0.07619339  0.77185107  0.03401141  1  -0.115846  0  -0.085813  -0.140979  0  4.001394  0
C  C103  1  0.42380301  0.27185374  0.46599093  1  -0.115303  0  -0.085856  -0.14101  0  4.00121  0
C  C104  1  0.87016470  0.15686974  0.91726675  1  0.595986  0  0.058605  0.108014  0  3.954832  0
C  C105  1  0.62981852  0.65685591  0.58272858  1  0.596718  0  0.058604  0.107846  0  3.955153  0
C  C106  1  0.12981744  0.84313127  0.08272855  1  0.596488  0  0.058609  0.107908  0  3.95467  0
C  C107  1  0.37017993  0.34313131  0.41727459  1  0.596308  0  0.058646  0.108006  0  3.954622  0
C  C108  1  0.74879987  0.99228452  0.96764205  1  0.477219  0  0.116471  0.113538  0  3.982917  0
C  C109  1  0.75121076  0.49227111  0.53235786  1  0.476596  0  0.116475  0.113645  0  3.98314  0
C  C110  1  0.25119192  0.00772435  0.03236013  1  0.475146  0  0.116435  0.113416  0  3.983114  0
C  C111  1  0.24879682  0.50772004  0.46764347  1  0.477395  0  0.116467  0.113541  0  3.983325  0
C  C112  1  0.65417161  0.86935374  0.96750473  1  0.435517  0  0.119008  0.118818  0  3.970197  0
C  C113  1  0.84584507  0.36934388  0.53249666  1  0.434638  0  0.119022  0.118636  0  3.970436  0
C  C114  1  0.34581099  0.13065612  0.03249845  1  0.435807  0  0.119017  0.118879  0  3.970395  0
C  C115  1  0.15416245  0.63064924  0.46750384  1  0.434959  0  0.119038  0.118806  0  3.970277  0
N  N116  1  0.68347953  0.73050154  0.79459464  1  -1.235062  0  -0.298665  -0.213658  0  3.512211  0
N  N117  1  0.81653915  0.23050423  0.70540483  1  -1.234689  0  -0.298741  -0.213749  0  3.5121  0
N  N118  1  0.31652540  0.26950340  0.20540662  1  -1.235879  0  -0.298692  -0.213686  0  3.512208  0
N  N119  1  0.18345908  0.76949185  0.29459460  1  -1.235119  0  -0.298704  -0.213633  0  3.511875  0
N  N120  1  0.71856094  0.54780128  0.71352842  1  -1.238372  0  -0.300063  -0.208826  0  3.537398  0
N  N121  1  0.78146249  0.04779409  0.78646676  1  -1.23899  0  -0.299967  -0.208558  0  3.537426  0
N  N122  1  0.28144926  0.45220956  0.28647256  1  -1.238459  0  -0.300032  -0.208758  0  3.537095  0
N  N123  1  0.21853018  0.95219313  0.21352798  1  -1.239258  0  -0.299911  -0.208458  0  3.537184  0
N  N124  1  0.60639362  0.81141861  0.91771172  1  -1.230165  0  -0.311516  -0.234088  0  3.522003  0
N  N125  1  0.89362741  0.31141140  0.58229066  1  -1.229801  0  -0.311484  -0.233758  0  3.522031  0
N  N126  1  0.39359696  0.18858633  0.08229250  1  -1.229649  0  -0.31155  -0.234125  0  3.521977  0
N  N127  1  0.10638019  0.68858567  0.41771108  1  -1.229741  0  -0.311509  -0.233997  0  3.522033  0
N  N128  1  0.78492900  0.04260693  0.91789860  1  -1.247903  0  -0.311521  -0.246909  0  3.50019  0
N  N129  1  0.71507866  0.54259670  0.58209743  1  -1.247167  0  -0.311511  -0.246957  0  3.500585  0
N  N130  1  0.21505595  0.95739309  0.08209967  1  -1.246567  0  -0.311544  -0.246951  0  3.500363  0
N  N131  1  0.28493552  0.45739446  0.41790406  1  -1.247737  0  -0.311486  -0.246917  0  3.500417  0
O  O132  1  0.96712115  0.82927568  0.85679432  1  -1.183811  0  -0.32738  -0.554157  0  2.32439  0
O  O133  1  0.53288524  0.32927670  0.64320768  1  -1.183751  0  -0.32741  -0.553991  0  2.324435  0
O  O134  1  0.03287592  0.17073615  0.14320799  1  -1.183577  0  -0.327409  -0.553971  0  2.324467  0
O  O135  1  0.46711845  0.67073217  0.35679480  1  -1.183667  0  -0.327464  -0.554095  0  2.324393  0
O  O136  1  0.10188439  0.63198778  0.84836147  1  -1.142929  0  -0.336828  -0.536121  0  2.047229  0
O  O137  1  0.39816654  0.13196367  0.65162294  1  -1.142267  0  -0.336869  -0.53604  0  2.04741  0
O  O138  1  0.89814378  0.36804177  0.15163084  1  -1.141998  0  -0.33677  -0.535867  0  2.047311  0
O  O139  1  0.60185433  0.86803438  0.34835757  1  -1.142584  0  -0.336806  -0.535911  0  2.047101  0
O  O140  1  0.15289169  0.66175334  0.72412152  1  -1.160231  0  -0.318389  -0.529848  0  2.118407  0
O  O141  1  0.34709665  0.16173901  0.77585631  1  -1.1598  0  -0.318496  -0.52994  0  2.117624  0
O  O142  1  0.84710448  0.33826636  0.27586542  1  -1.16008  0  -0.318341  -0.529797  0  2.118239  0
O  O143  1  0.65287309  0.83822655  0.22412997  1  -1.160374  0  -0.318414  -0.529806  0  2.118206  0
O  O144  1  0.03785781  0.47563439  0.68342929  1  -1.171795  0  -0.33  -0.541298  0  2.288837  0
O  O145  1  0.46215110  0.97564430  0.81656955  1  -1.171542  0  -0.329954  -0.541203  0  2.289241  0
O  O146  1  0.96214714  0.52436465  0.31657239  1  -1.171207  0  -0.330086  -0.541418  0  2.289003  0
O  O147  1  0.53784167  0.02434489  0.18342684  1  -1.171555  0  -0.329924  -0.541237  0  2.289141  0
