# generated using pymatgen
data_ZnH26C28(NO3)2
_symmetry_space_group_name_H-M   'P 1'
_cell_length_a   8.92361737
_cell_length_b   17.52442710
_cell_length_c   18.14277089
_cell_angle_alpha   90.00009130
_cell_angle_beta   98.07760921
_cell_angle_gamma   89.99998807
_symmetry_Int_Tables_number   1
_chemical_formula_structural   ZnH26C28(NO3)2
_chemical_formula_sum   'Zn4 H104 C112 N8 O24'
_cell_volume   2809.04100514
_cell_formula_units_Z   4
loop_
 _symmetry_equiv_pos_site_id
 _symmetry_equiv_pos_as_xyz
  1  'x, y, z'
loop_
 _atom_site_type_symbol
 _atom_site_label
 _atom_site_symmetry_multiplicity
 _atom_site_fract_x
 _atom_site_fract_y
 _atom_site_fract_z
 _atom_site_occupancy
 _atom_site_pbe_bader_charge
 _atom_site_pbe_bader_spin_density
 _atom_site_pbe_cm5_charge
 _atom_site_pbe_ddec_charge
 _atom_site_pbe_ddec_spin_density
 _atom_site_pbe_ddec_sum_bond_order
 _atom_site_pbe_magmom
Zn  Zn0  1  0.50071053  0.79793999  0.12022041  1  1.248909  0  0.689439  0.745452  0  2.391649  0
Zn  Zn1  1  0.99928967  0.29794038  0.37977979  1  1.248901  0  0.689446  0.745467  0  2.391642  0
Zn  Zn2  1  0.49929201  0.20205923  0.87978024  1  1.248907  0  0.689433  0.745451  0  2.391644  0
Zn  Zn3  1  0.00071061  0.70205941  0.62022015  1  1.248899  0  0.689407  0.745381  0  2.39171  0
H  H4  1  0.57689897  0.70754970  0.26080706  1  0.18657  0  0.121084  0.100298  0  1.050505  0
H  H5  1  0.92310122  0.20755044  0.23919300  1  0.186456  0  0.121074  0.100263  0  1.050512  0
H  H6  1  0.42310243  0.29244952  0.73919351  1  0.18653  0  0.121087  0.100249  0  1.050531  0
H  H7  1  0.07690019  0.79245106  0.76080702  1  0.186456  0  0.121089  0.100276  0  1.050498  0
H  H8  1  0.47026641  0.59601630  0.32016099  1  0.131019  0  0.113089  0.116971  0  0.999026  0
H  H9  1  0.02973206  0.09601755  0.17983680  1  0.131011  0  0.113088  0.116948  0  0.998973  0
H  H10  1  0.52973501  0.40398178  0.67983793  1  0.131058  0  0.1131  0.116971  0  0.999001  0
H  H11  1  0.97026822  0.90398338  0.82016314  1  0.130978  0  0.113081  0.116938  0  0.999015  0
H  H12  1  0.13429789  0.45893324  0.15966519  1  0.096674  0  0.110256  0.115826  0  1.030979  0
H  H13  1  0.36570059  0.95893318  0.34033426  1  0.096671  0  0.110266  0.115839  0  1.030963  0
H  H14  1  0.86569786  0.54106769  0.84033442  1  0.09665  0  0.110268  0.115842  0  1.031011  0
H  H15  1  0.63429970  0.04106719  0.65966513  1  0.096661  0  0.110258  0.115841  0  1.03095  0
H  H16  1  0.24146248  0.69710758  0.07786840  1  0.098787  0  0.119877  0.088333  0  1.022972  0
H  H17  1  0.25853712  0.19710806  0.42213074  1  0.098821  0  0.11987  0.088324  0  1.022932  0
H  H18  1  0.75853893  0.30289165  0.92213217  1  0.098779  0  0.119847  0.088295  0  1.022898  0
H  H19  1  0.74146429  0.80289230  0.57786984  1  0.098826  0  0.119869  0.088322  0  1.022954  0
H  H20  1  0.11641156  0.58715824  0.13028050  1  0.10211  0  0.112641  0.120411  0  1.007187  0
H  H21  1  0.38358690  0.08715805  0.36971839  1  0.102139  0  0.112647  0.120422  0  1.007174  0
H  H22  1  0.88358872  0.41284212  0.86971999  1  0.102107  0  0.112651  0.120418  0  1.007135  0
H  H23  1  0.61641452  0.91284174  0.63028108  1  0.102148  0  0.112666  0.12043  0  1.007177  0
H  H24  1  0.37301526  0.70515699  0.86932709  1  0.106668  0  0.10795  0.068688  0  1.013086  0
H  H25  1  0.12698284  0.20515701  0.63067243  1  0.106667  0  0.107956  0.068695  0  1.013083  0
H  H26  1  0.62698616  0.29484338  0.13067238  1  0.106667  0  0.107947  0.068688  0  1.01307  0
H  H27  1  0.87301405  0.79484279  0.36932727  1  0.10667  0  0.107959  0.068704  0  1.013059  0
H  H28  1  0.27329545  0.55427405  0.37890503  1  0.079004  0  0.1143  0.12011  0  0.993619  0
H  H29  1  0.22670187  0.05427347  0.12109427  1  0.078995  0  0.114319  0.120106  0  0.993602  0
H  H30  1  0.72670822  0.44572403  0.62109515  1  0.079031  0  0.114283  0.120097  0  0.993611  0
H  H31  1  0.77329729  0.94572689  0.87890503  1  0.079006  0  0.114305  0.120112  0  0.993674  0
H  H32  1  0.26642189  0.62601608  0.92550568  1  0.078223  0  0.103333  0.118132  0  1.042432  0
H  H33  1  0.23357282  0.12601599  0.57449183  1  0.078198  0  0.103366  0.118136  0  1.042449  0
H  H34  1  0.73357841  0.37398314  0.07449206  1  0.078176  0  0.103352  0.118136  0  1.042431  0
H  H35  1  0.76642180  0.87398209  0.42550771  1  0.078205  0  0.103341  0.118096  0  1.042506  0
H  H36  1  0.92769368  0.80292681  0.91858816  1  0.037426  0  0.097462  0.106025  0  1.018676  0
H  H37  1  0.57230726  0.30292447  0.58141534  1  0.037473  0  0.097391  0.105968  0  1.018622  0
H  H38  1  0.07230772  0.19707355  0.08141351  1  0.037428  0  0.097468  0.106034  0  1.018729  0
H  H39  1  0.42769076  0.69707304  0.41858444  1  0.037477  0  0.097473  0.10603  0  1.018677  0
H  H40  1  0.16197636  0.82028088  0.18363582  1  0.03685  0  0.086559  0.12304  0  1.045003  0
H  H41  1  0.33802321  0.32028061  0.31636625  1  0.036848  0  0.086554  0.123018  0  1.04501  0
H  H42  1  0.83802505  0.17971948  0.81636364  1  0.03687  0  0.08656  0.12301  0  1.045019  0
H  H43  1  0.66197592  0.67972032  0.68363526  1  0.036843  0  0.086562  0.123014  0  1.045015  0
H  H44  1  0.01218642  0.78364854  0.11746939  1  0.033823  0  0.096386  0.14139  0  0.996715  0
H  H45  1  0.48781090  0.28364893  0.38253192  1  0.034029  0  0.096394  0.141377  0  0.996719  0
H  H46  1  0.98781273  0.21635182  0.88253047  1  0.033828  0  0.096376  0.141366  0  0.99671  0
H  H47  1  0.51218598  0.71635143  0.61746833  1  0.033807  0  0.096385  0.141384  0  0.996674  0
H  H48  1  0.03824893  0.74926004  0.21109487  1  0.03749  0  0.090634  0.129548  0  1.005399  0
H  H49  1  0.46174837  0.24925972  0.28890804  1  0.037521  0  0.090593  0.129462  0  1.005528  0
H  H50  1  0.96175134  0.25074089  0.78890562  1  0.037499  0  0.09062  0.129519  0  1.005408  0
H  H51  1  0.53824850  0.75074122  0.71109331  1  0.037456  0  0.090612  0.12952  0  1.005422  0
H  H52  1  0.64535252  0.07764609  0.26977640  1  0.041836  0  0.092535  0.086632  0  1.029775  0
H  H53  1  0.85464429  0.57764641  0.23022211  1  0.041875  0  0.092543  0.086659  0  1.029802  0
H  H54  1  0.35464776  0.92235370  0.73022354  1  0.041836  0  0.092547  0.086659  0  1.029758  0
H  H55  1  0.14535939  0.42235281  0.76977752  1  0.041935  0  0.092533  0.086599  0  1.029728  0
H  H56  1  0.94279943  0.91194658  0.16057827  1  0.047407  0  0.103538  0.054085  0  0.969496  0
H  H57  1  0.55720078  0.41194581  0.33942210  1  0.047416  0  0.10353  0.054092  0  0.969542  0
H  H58  1  0.05720085  0.08805435  0.83942112  1  0.047435  0  0.103523  0.054076  0  0.969522  0
H  H59  1  0.44280062  0.58805455  0.66057957  1  0.04747  0  0.10352  0.054073  0  0.969532  0
H  H60  1  0.75261712  0.71097065  0.96891068  1  0.142456  0  0.098915  0.114979  0  1.0383  0
H  H61  1  0.74738270  0.21096821  0.53109205  1  0.142578  0  0.098942  0.114996  0  1.038263  0
H  H62  1  0.24738428  0.28902858  0.03109100  1  0.142445  0  0.098912  0.114994  0  1.038336  0
H  H63  1  0.25261533  0.78902930  0.46890718  1  0.142482  0  0.098954  0.115067  0  1.038331  0
H  H64  1  0.74423820  0.96680092  0.20952231  1  0.049977  0  0.099817  0.109904  0  1.035471  0
H  H65  1  0.75576202  0.46680119  0.29047760  1  0.049973  0  0.099802  0.109882  0  1.035455  0
H  H66  1  0.25576209  0.03319944  0.79047708  1  0.049977  0  0.099809  0.10989  0  1.035514  0
H  H67  1  0.24424165  0.53319860  0.70952368  1  0.049959  0  0.099805  0.109894  0  1.035542  0
H  H68  1  0.83529801  0.57792152  0.99700126  1  0.056086  0  0.092366  0.087601  0  1.050602  0
H  H69  1  0.66469729  0.07791962  0.50299874  1  0.056023  0  0.092334  0.087555  0  1.050602  0
H  H70  1  0.16470114  0.42207827  0.00299860  1  0.05609  0  0.092352  0.087585  0  1.050619  0
H  H71  1  0.33529847  0.92207847  0.49700088  1  0.0561  0  0.092362  0.087593  0  1.050615  0
H  H72  1  0.08830676  0.93659642  0.39980261  1  0.08058  0  0.103743  0.118702  0  1.010568  0
H  H73  1  0.41169284  0.43659350  0.10019800  1  0.080714  0  0.103739  0.118688  0  1.010544  0
H  H74  1  0.91169466  0.06340451  0.60019686  1  0.080576  0  0.103731  0.11867  0  1.01052  0
H  H75  1  0.58830969  0.56340743  0.89980376  1  0.080666  0  0.103727  0.118666  0  1.010499  0
H  H76  1  0.09415147  0.53629679  0.97402283  1  0.068133  0  0.093669  0.086591  0  1.039512  0
H  H77  1  0.40584210  0.03629603  0.52597501  1  0.068091  0  0.093702  0.086664  0  1.03954  0
H  H78  1  0.90584657  0.46370415  0.02597475  1  0.068059  0  0.093706  0.086656  0  1.039536  0
H  H79  1  0.59415478  0.96370376  0.47402468  1  0.068087  0  0.093693  0.086611  0  1.03949  0
H  H80  1  0.37962750  0.82199099  0.79731614  1  0.037911  0  0.091608  0.12975  0  1.027939  0
H  H81  1  0.12037287  0.32199113  0.70268372  1  0.037913  0  0.091618  0.129773  0  1.027917  0
H  H82  1  0.62037391  0.17800938  0.20268388  1  0.037911  0  0.091611  0.129757  0  1.027928  0
H  H83  1  0.87962628  0.67800867  0.29731614  1  0.037897  0  0.09161  0.129748  0  1.027941  0
H  H84  1  0.54847083  0.81510978  0.86259520  1  0.026556  0  0.094009  0.133478  0  0.991139  0
H  H85  1  0.95152901  0.31511035  0.63740493  1  0.026553  0  0.094021  0.13351  0  0.991148  0
H  H86  1  0.45152945  0.18489001  0.13740474  1  0.026558  0  0.094011  0.133486  0  0.991138  0
H  H87  1  0.04847014  0.68489002  0.36259438  1  0.02656  0  0.094015  0.133492  0  0.991138  0
H  H88  1  0.40145257  0.87906739  0.88036659  1  0.046046  0  0.089931  0.129064  0  0.998265  0
H  H89  1  0.09854781  0.37906682  0.61963281  1  0.046037  0  0.089922  0.129057  0  0.998273  0
H  H90  1  0.59854885  0.12093355  0.11963288  1  0.046048  0  0.089922  0.129072  0  0.998251  0
H  H91  1  0.90145248  0.62093297  0.38036657  1  0.046051  0  0.089925  0.129056  0  0.998261  0
H  H92  1  0.99303862  0.05367226  0.45812023  1  0.101589  0  0.099464  0.101266  0  1.016618  0
H  H93  1  0.50695477  0.55367060  0.04188021  1  0.101559  0  0.09946  0.101243  0  1.016663  0
H  H94  1  0.00696166  0.94632810  0.54187971  1  0.101537  0  0.099463  0.101269  0  1.016657  0
H  H95  1  0.49304777  0.44632976  0.95812044  1  0.101485  0  0.099471  0.101257  0  1.016645  0
H  H96  1  0.77214031  0.12423715  0.39340862  1  0.065273  0  0.100042  0.108015  0  1.010287  0
H  H97  1  0.72785309  0.62423615  0.10659027  1  0.065267  0  0.100022  0.107985  0  1.010269  0
H  H98  1  0.22785997  0.87576321  0.60659076  1  0.065265  0  0.100041  0.108011  0  1.010288  0
H  H99  1  0.27215058  0.37576365  0.89340991  1  0.065314  0  0.100021  0.107999  0  1.010246  0
H  H100  1  0.01958669  0.35146959  0.22091633  1  0.14904  0  0.122214  0.096559  0  1.012447  0
H  H101  1  0.48041178  0.85146941  0.27908296  1  0.149065  0  0.122213  0.09657  0  1.012486  0
H  H102  1  0.98040793  0.64853078  0.77908321  1  0.149159  0  0.122186  0.096505  0  1.012564  0
H  H103  1  0.51958737  0.14853039  0.72091745  1  0.149084  0  0.122215  0.096562  0  1.012496  0
H  H104  1  0.16295163  0.43835248  0.43138717  1  0.148189  0  0.126807  0.106305  0  0.977288  0
H  H105  1  0.33704345  0.93835083  0.06861201  1  0.148179  0  0.126791  0.106282  0  0.97722  0
H  H106  1  0.83704752  0.56164731  0.56861324  1  0.148203  0  0.126814  0.106332  0  0.977273  0
H  H107  1  0.66295230  0.06164782  0.93138816  1  0.148168  0  0.126807  0.106318  0  0.977231  0
C  C108  1  0.21417729  0.51643763  0.26427240  1  -0.059026  0  0.018585  0.107666  0  3.968817  0
C  C109  1  0.28582228  0.01643895  0.23572811  1  -0.059057  0  0.018535  0.107581  0  3.968928  0
C  C110  1  0.78582298  0.48356102  0.73572810  1  -0.058864  0  0.01856  0.107621  0  3.968938  0
C  C111  1  0.71417687  0.98356199  0.76427175  1  -0.05907  0  0.018539  0.107554  0  3.968923  0
C  C112  1  0.28216639  0.58213047  0.23070001  1  -0.029867  0  0.017435  0.102686  0  3.981836  0
C  C113  1  0.21783320  0.08213128  0.26929949  1  -0.029922  0  0.017451  0.102697  0  3.981773  0
C  C114  1  0.71783502  0.41786875  0.76930056  1  -0.029896  0  0.017473  0.102667  0  3.981849  0
C  C115  1  0.78216935  0.91787022  0.73070006  1  -0.029849  0  0.017446  0.102793  0  3.98175  0
C  C116  1  0.42496379  0.75680669  0.97846117  1  1.565961  0  0.191377  0.536388  0  4.197793  0
C  C117  1  0.07503657  0.25680768  0.52153915  1  1.565988  0  0.191431  0.536512  0  4.197619  0
C  C118  1  0.57503989  0.24319253  0.02153901  1  1.565912  0  0.191449  0.536533  0  4.197624  0
C  C119  1  0.92496258  0.74319268  0.47846071  1  1.565916  0  0.19138  0.536438  0  4.197723  0
C  C120  1  0.47516282  0.67882293  0.23425782  1  0.422811  0  0.055639  0.100773  0  3.91521  0
C  C121  1  0.02483904  0.17882147  0.26574089  1  0.422852  0  0.055604  0.100719  0  3.915387  0
C  C122  1  0.52484199  0.32117858  0.76574244  1  0.422821  0  0.055603  0.100813  0  3.915388  0
C  C123  1  0.97516464  0.82117832  0.73425819  1  0.422851  0  0.055621  0.100756  0  3.915322  0
C  C124  1  0.41301929  0.61719584  0.26717167  1  -0.05977  0  -0.073182  -0.159563  0  3.933229  0
C  C125  1  0.08698029  0.11719888  0.23282844  1  -0.059719  0  -0.073169  -0.159478  0  3.933334  0
C  C126  1  0.58698099  0.38280110  0.73282882  1  -0.05967  0  -0.07317  -0.159523  0  3.933368  0
C  C127  1  0.91302225  0.88280319  0.76717166  1  -0.059762  0  -0.073192  -0.159564  0  3.933273  0
C  C128  1  0.10723668  0.72097839  0.91820753  1  0.437165  0  0.080077  0.25585  0  4.061035  0
C  C129  1  0.39276139  0.22097715  0.58179422  1  0.437568  0  0.080064  0.255708  0  4.061121  0
C  C130  1  0.89276473  0.27902198  0.08179249  1  0.436776  0  0.080055  0.255847  0  4.060993  0
C  C131  1  0.60723435  0.77902207  0.41820650  1  0.436726  0  0.080047  0.255847  0  4.061059  0
C  C132  1  0.14121773  0.45821144  0.22002395  1  0.005114  0  -0.068312  -0.147032  0  3.902109  0
C  C133  1  0.35878300  0.95821299  0.27997677  1  0.005108  0  -0.068284  -0.146968  0  3.901997  0
C  C134  1  0.85878480  0.54178664  0.77997781  1  0.005133  0  -0.068331  -0.147048  0  3.902071  0
C  C135  1  0.64121728  0.04178680  0.72002317  1  0.005111  0  -0.06829  -0.146984  0  3.901997  0
C  C136  1  0.28745182  0.67297901  0.13166211  1  0.503747  0  0.057973  0.111886  0  3.92115  0
C  C137  1  0.21254778  0.17297884  0.36833588  1  0.503725  0  0.057975  0.111914  0  3.921231  0
C  C138  1  0.71254960  0.32702135  0.86833736  1  0.503722  0  0.058005  0.111993  0  3.921036  0
C  C139  1  0.78745590  0.82702095  0.63166320  1  0.503783  0  0.057973  0.11188  0  3.921268  0
C  C140  1  0.21898325  0.61129485  0.16121425  1  0.048465  0  -0.074051  -0.163706  0  3.917489  0
C  C141  1  0.28101520  0.11129691  0.33878577  1  0.04845  0  -0.074081  -0.163763  0  3.917531  0
C  C142  1  0.78101702  0.38870323  0.83878734  1  0.04841  0  -0.074074  -0.163719  0  3.917558  0
C  C143  1  0.71898621  0.88870516  0.66121425  1  0.048467  0  -0.074086  -0.163765  0  3.917553  0
C  C144  1  0.77704192  0.83035593  0.18578471  1  1.550344  0  0.191307  0.52928  0  4.217225  0
C  C145  1  0.72295833  0.33035167  0.31421058  1  1.550718  0  0.191364  0.529348  0  4.217267  0
C  C146  1  0.22295836  0.16964558  0.81421523  1  1.550351  0  0.191316  0.529264  0  4.217158  0
C  C147  1  0.27703968  0.66964641  0.68579085  1  1.550705  0  0.191353  0.529286  0  4.21728  0
C  C148  1  0.35447173  0.75958903  0.89645251  1  0.41114  0  -0.000214  0.089661  0  3.859874  0
C  C149  1  0.14552637  0.25958900  0.60354710  1  0.411068  0  -0.000205  0.089676  0  3.859857  0
C  C150  1  0.64552742  0.24041190  0.10354735  1  0.411125  0  -0.000192  0.089706  0  3.859812  0
C  C151  1  0.85447165  0.74041079  0.39645268  1  0.411134  0  -0.00021  0.0897  0  3.859922  0
C  C152  1  0.22104812  0.50989026  0.34180654  1  0.036583  0  -0.075478  -0.168723  0  3.941266  0
C  C153  1  0.27894805  0.00989031  0.15819427  1  0.036511  0  -0.075483  -0.16871  0  3.941175  0
C  C154  1  0.77895215  0.49010839  0.65819450  1  0.036376  0  -0.07544  -0.168663  0  3.941237  0
C  C155  1  0.72105110  0.99010948  0.84180559  1  0.036511  0  -0.075419  -0.168664  0  3.941312  0
C  C156  1  0.15463599  0.64562586  0.93435544  1  -0.027837  0  -0.112694  -0.224544  0  3.980415  0
C  C157  1  0.34535871  0.14562518  0.56564375  1  -0.027891  0  -0.112713  -0.224436  0  3.98044  0
C  C158  1  0.84536317  0.35437336  0.06564332  1  -0.02776  0  -0.112717  -0.224543  0  3.980424  0
C  C159  1  0.65463931  0.85437347  0.43435603  1  -0.02782  0  -0.112707  -0.224528  0  3.980466  0
C  C160  1  0.96187310  0.74396512  0.93042169  1  -0.05373  0  -0.110233  -0.209758  0  4.001404  0
C  C161  1  0.53812783  0.24396277  0.56958227  1  -0.053761  0  -0.110168  -0.209593  0  4.001159  0
C  C162  1  0.03812603  0.25603410  0.06957982  1  -0.053383  0  -0.110228  -0.209725  0  4.001309  0
C  C163  1  0.46187358  0.75603417  0.43041775  1  -0.053376  0  -0.110221  -0.209668  0  4.001259  0
C  C164  1  0.04499434  0.79980033  0.17594355  1  -0.034197  0  -0.247071  -0.412285  0  3.918413  0
C  C165  1  0.45500525  0.29980006  0.32405685  1  -0.034411  0  -0.247042  -0.41214  0  3.91841  0
C  C166  1  0.95500595  0.20020061  0.82405584  1  -0.034229  0  -0.247038  -0.412165  0  3.918358  0
C  C167  1  0.54499389  0.70020088  0.67594356  1  -0.034121  0  -0.247058  -0.412221  0  3.918389  0
C  C168  1  0.92486575  0.94492353  0.30098635  1  0.424671  0  0.078194  0.253862  0  4.069428  0
C  C169  1  0.57513333  0.44492252  0.19901345  1  0.42479  0  0.07819  0.253904  0  4.069413  0
C  C170  1  0.07513454  0.05507798  0.69901249  1  0.424799  0  0.078157  0.253821  0  4.069482  0
C  C171  1  0.42487260  0.55507670  0.80098800  1  0.424855  0  0.078169  0.253822  0  4.069373  0
C  C172  1  0.74339805  0.04762744  0.29869320  1  -0.04477  0  -0.100766  -0.066167  0  4.057342  0
C  C173  1  0.75659988  0.54762773  0.20130591  1  -0.044804  0  -0.100802  -0.066208  0  4.057445  0
C  C174  1  0.25660224  0.95237292  0.70130619  1  -0.044781  0  -0.100796  -0.066245  0  4.057437  0
C  C175  1  0.24340605  0.45237207  0.79869554  1  -0.044893  0  -0.100722  -0.066024  0  4.057229  0
C  C176  1  0.93909919  0.86164368  0.19686691  1  0.459935  0  0.002936  0.101937  0  3.888379  0
C  C177  1  0.56090102  0.36164400  0.30313284  1  0.459735  0  0.00294  0.101841  0  3.88842  0
C  C178  1  0.06090223  0.13835668  0.80313256  1  0.459935  0  0.002958  0.1019  0  3.888389  0
C  C179  1  0.43909812  0.63835694  0.69686757  1  0.459716  0  0.002945  0.101853  0  3.888452  0
C  C180  1  0.86471394  0.69275606  0.95843826  1  -0.035731  0  -0.094751  -0.058814  0  4.012523  0
C  C181  1  0.63528586  0.19275307  0.54156555  1  -0.036045  0  -0.094742  -0.05883  0  4.012426  0
C  C182  1  0.13528633  0.30724488  0.04156278  1  -0.035705  0  -0.094723  -0.058843  0  4.012469  0
C  C183  1  0.36471215  0.80724444  0.45843534  1  -0.036032  0  -0.094753  -0.058952  0  4.01247  0
C  C184  1  0.79944663  0.98443007  0.26422327  1  0.048237  0  -0.118686  -0.234347  0  4.018975  0
C  C185  1  0.70055359  0.48443026  0.23577612  1  0.048189  0  -0.118652  -0.234349  0  4.018903  0
C  C186  1  0.20055478  0.01557029  0.73577675  1  0.04814  0  -0.118669  -0.234317  0  4.018954  0
C  C187  1  0.29945009  0.51557011  0.76422406  1  0.04827  0  -0.118718  -0.234431  0  4.018898  0
C  C188  1  0.91153842  0.61754904  0.97452715  1  -0.142076  0  -0.117418  -0.144608  0  4.066643  0
C  C189  1  0.58845913  0.11754775  0.52547472  1  -0.141676  0  -0.117459  -0.144609  0  4.066636  0
C  C190  1  0.08846186  0.38245018  0.02547279  1  -0.142073  0  -0.117431  -0.144576  0  4.0666  0
C  C191  1  0.41153774  0.88245033  0.47452608  1  -0.141786  0  -0.11743  -0.144572  0  4.066654  0
C  C192  1  0.99232670  0.96897915  0.37182765  1  -0.031522  0  -0.107761  -0.210295  0  3.988128  0
C  C193  1  0.50767011  0.46897746  0.12817258  1  -0.031748  0  -0.107806  -0.210327  0  3.988241  0
C  C194  1  0.00767471  0.03102179  0.62817182  1  -0.031545  0  -0.107759  -0.210239  0  3.988129  0
C  C195  1  0.49233129  0.53102347  0.87182854  1  -0.031743  0  -0.107792  -0.210258  0  3.988139  0
C  C196  1  0.05577619  0.59467758  0.96218618  1  -0.031459  0  -0.100174  -0.071817  0  4.061615  0
C  C197  1  0.44421849  0.09467570  0.53781403  1  -0.031521  0  -0.100142  -0.071923  0  4.061665  0
C  C198  1  0.94422296  0.40532393  0.03781313  1  -0.031453  0  -0.100171  -0.0719  0  4.0616  0
C  C199  1  0.55577500  0.90532296  0.46218543  1  -0.031439  0  -0.100185  -0.071826  0  4.061555  0
C  C200  1  0.42531986  0.82348666  0.85662216  1  -0.045455  0  -0.243994  -0.410202  0  3.933822  0
C  C201  1  0.07467938  0.32348728  0.64337708  1  -0.045444  0  -0.244004  -0.410255  0  3.933839  0
C  C202  1  0.57468042  0.17651313  0.14337778  1  -0.045447  0  -0.244005  -0.410249  0  3.933771  0
C  C203  1  0.92531977  0.67651366  0.35662223  1  -0.045464  0  -0.244025  -0.410244  0  3.933869  0
C  C204  1  0.93732867  0.03328297  0.40438019  1  -0.034822  0  -0.094395  -0.06176  0  4.020602  0
C  C205  1  0.56266585  0.53328139  0.09561919  1  -0.034741  0  -0.094387  -0.061748  0  4.020502  0
C  C206  1  0.06267048  0.96671797  0.59561911  1  -0.034808  0  -0.094348  -0.061753  0  4.0205  0
C  C207  1  0.43733782  0.46671954  0.90438154  1  -0.034803  0  -0.094391  -0.061745  0  4.020408  0
C  C208  1  0.81227540  0.07316670  0.36803224  1  -0.16294  0  -0.111431  -0.125638  0  4.033316  0
C  C209  1  0.68771913  0.57316688  0.13196776  1  -0.162936  0  -0.111382  -0.125586  0  4.033097  0
C  C210  1  0.18772601  0.92683309  0.63196833  1  -0.16292  0  -0.111439  -0.125617  0  4.033246  0
C  C211  1  0.31228342  0.42683348  0.86803234  1  -0.162889  0  -0.111366  -0.125628  0  4.033023  0
C  C212  1  0.07909576  0.39705798  0.25377547  1  0.47395  0  0.059102  0.107501  0  3.911933  0
C  C213  1  0.42090045  0.89705775  0.24622373  1  0.474016  0  0.05906  0.10742  0  3.912009  0
C  C214  1  0.92090452  0.60294353  0.74622446  1  0.47387  0  0.059131  0.107521  0  3.911983  0
C  C215  1  0.57909757  0.10294261  0.75377605  1  0.473969  0  0.059105  0.107451  0  3.911938  0
C  C216  1  0.15793510  0.44655755  0.37149928  1  0.427347  0  0.053318  0.096682  0  3.932382  0
C  C217  1  0.34206110  0.94655714  0.12850055  1  0.427442  0  0.053366  0.096786  0  3.932145  0
C  C218  1  0.84206404  0.55344281  0.62850113  1  0.427371  0  0.053305  0.096631  0  3.932343  0
C  C219  1  0.65793917  0.05344323  0.87149994  1  0.427447  0  0.05332  0.096662  0  3.932216  0
N  N220  1  0.41296783  0.70640609  0.16764503  1  -1.278124  0  -0.327877  -0.228851  0  3.587036  0
N  N221  1  0.08703063  0.20640759  0.33235404  1  -1.278112  0  -0.327821  -0.228794  0  3.586992  0
N  N222  1  0.58703132  0.29359256  0.83235428  1  -1.278124  0  -0.327865  -0.228914  0  3.586906  0
N  N223  1  0.91297191  0.79359392  0.66764606  1  -1.27815  0  -0.327849  -0.228791  0  3.587153  0
N  N224  1  0.08805585  0.39097738  0.32824292  1  -1.247489  0  -0.325353  -0.231643  0  3.559142  0
N  N225  1  0.41194036  0.89097703  0.17175682  1  -1.247513  0  -0.325309  -0.231657  0  3.559191  0
N  N226  1  0.91193990  0.60902298  0.67175779  1  -1.247506  0  -0.325324  -0.231584  0  3.559144  0
N  N227  1  0.58805653  0.10902276  0.82824288  1  -1.247496  0  -0.325374  -0.231622  0  3.55913  0
O  O228  1  0.37768671  0.80874370  0.02065972  1  -1.179261  0  -0.346716  -0.559833  0  2.294135  0
O  O229  1  0.12231401  0.30874429  0.47934077  1  -1.179282  0  -0.346749  -0.559897  0  2.294049  0
O  O230  1  0.62231470  0.19125553  0.97934085  1  -1.179308  0  -0.346734  -0.559909  0  2.29409  0
O  O231  1  0.87768514  0.69125607  0.52065909  1  -1.179276  0  -0.346703  -0.559861  0  2.29411  0
O  O232  1  0.71984427  0.80315680  0.23902821  1  -1.17277  0  -0.308508  -0.531006  0  2.207152  0
O  O233  1  0.78015479  0.30315587  0.26097302  1  -1.172973  0  -0.308575  -0.530999  0  2.207405  0
O  O234  1  0.28015601  0.19684528  0.76097173  1  -1.172854  0  -0.308501  -0.530943  0  2.2071  0
O  O235  1  0.21984210  0.69684221  0.73902613  1  -1.172989  0  -0.308546  -0.530904  0  2.20747  0
O  O236  1  0.71048262  0.83338936  0.11772924  1  -1.16035  0  -0.345226  -0.547824  0  2.267755  0
O  O237  1  0.78951420  0.33338635  0.38226968  1  -1.160343  0  -0.345219  -0.547866  0  2.267666  0
O  O238  1  0.28951880  0.16661101  0.88227023  1  -1.160332  0  -0.345233  -0.547834  0  2.26776  0
O  O239  1  0.21048269  0.66661230  0.61772947  1  -1.160345  0  -0.345218  -0.54783  0  2.267548  0
O  O240  1  0.99086049  0.88286783  0.27247488  1  -1.070748  0  -0.179082  -0.223374  0  2.532578  0
O  O241  1  0.50914197  0.38286688  0.22752671  1  -1.070774  0  -0.179052  -0.223335  0  2.532736  0
O  O242  1  0.00914092  0.11713367  0.72752458  1  -1.070765  0  -0.179094  -0.223368  0  2.532663  0
O  O243  1  0.49085944  0.61713519  0.77247386  1  -1.070813  0  -0.179056  -0.223308  0  2.532659  0
O  O244  1  0.19419883  0.77529568  0.89033981  1  -1.066689  0  -0.17743  -0.217659  0  2.517587  0
O  O245  1  0.30580039  0.27529508  0.60966100  1  -1.067048  0  -0.177483  -0.217696  0  2.517641  0
O  O246  1  0.80580031  0.22470411  0.10966060  1  -1.066673  0  -0.177468  -0.217724  0  2.517526  0
O  O247  1  0.69419989  0.72470415  0.39033894  1  -1.066692  0  -0.177459  -0.21774  0  2.517617  0
O  O248  1  0.52380360  0.70816406  0.00020890  1  -1.181413  0  -0.316821  -0.541878  0  2.148096  0
O  O249  1  0.97619547  0.20816408  0.49978998  1  -1.181377  0  -0.316834  -0.541929  0  2.147994  0
O  O250  1  0.47619782  0.29183687  0.99979002  1  -1.181345  0  -0.316865  -0.541948  0  2.148002  0
O  O251  1  0.02380368  0.79183628  0.50020933  1  -1.181365  0  -0.316821  -0.541897  0  2.14805  0
