# generated using pymatgen
data_Li2H12C8N2O13
_symmetry_space_group_name_H-M   'P 1'
_cell_length_a   6.88801762
_cell_length_b   8.61785208
_cell_length_c   11.73882489
_cell_angle_alpha   89.99956123
_cell_angle_beta   90.00022527
_cell_angle_gamma   102.59829770
_symmetry_Int_Tables_number   1
_chemical_formula_structural   Li2H12C8N2O13
_chemical_formula_sum   'Li4 H24 C16 N4 O26'
_cell_volume   680.03860860
_cell_formula_units_Z   2
loop_
 _symmetry_equiv_pos_site_id
 _symmetry_equiv_pos_as_xyz
  1  'x, y, z'
loop_
 _atom_site_type_symbol
 _atom_site_label
 _atom_site_symmetry_multiplicity
 _atom_site_fract_x
 _atom_site_fract_y
 _atom_site_fract_z
 _atom_site_occupancy
 _atom_site_hle17_bader_spin_density
 _atom_site_hle17_ddec_charge
 _atom_site_hle17_ddec_spin_density
 _atom_site_hle17_ddec_sum_bond_order
 _atom_site_hle17_magmom
 _atom_site_hse06_10hf_bader_spin_density
 _atom_site_hse06_10hf_ddec_charge
 _atom_site_hse06_10hf_ddec_spin_density
 _atom_site_hse06_10hf_ddec_sum_bond_order
 _atom_site_hse06_10hf_magmom
 _atom_site_hse06_bader_spin_density
 _atom_site_hse06_ddec_charge
 _atom_site_hse06_ddec_spin_density
 _atom_site_hse06_ddec_sum_bond_order
 _atom_site_hse06_magmom
 _atom_site_pbe_bader_spin_density
 _atom_site_pbe_cm5_charge
 _atom_site_pbe_ddec_charge
 _atom_site_pbe_ddec_spin_density
 _atom_site_pbe_ddec_sum_bond_order
 _atom_site_pbe_magmom
Li  Li0  1  0.88255531  0.06737220  0.24999615  1  0  0.86848  0  0.354609  0  0  0.838281  0  0.443308  0  0  0.84561  0  0.429425  0  0  0.459602  0.832767  0  0.453564  0
Li  Li1  1  0.11744180  0.93262919  0.75000026  1  0  0.86848  0  0.35461  0  0  0.838273  0  0.443326  0  0  0.845602  0  0.429444  0  0  0.459602  0.832757  0  0.453581  0
Li  Li2  1  0.33267271  0.04905467  0.24999976  1  0  0.848385  0  0.385465  0  0  0.796439  0  0.504792  0  0  0.8071  0  0.48686  0  0  0.485152  0.788946  0  0.517369  0
Li  Li3  1  0.66732330  0.95094792  0.74999921  1  0  0.848383  0  0.385484  0  0  0.796427  0  0.504824  0  0  0.80709  0  0.486888  0  0  0.485136  0.788931  0  0.5174  0
H  H4  1  0.92554199  0.15783847  0.03822093  1  0  0.421076  0  0.883113  0  0  0.39214  0  0.943082  0  0  0.402804  0  0.927469  0  0  0.296881  0.384555  0  0.954158  0
H  H5  1  0.07445819  0.84215787  0.53822628  1  0  0.421051  0  0.883142  0  0  0.39212  0  0.943112  0  0  0.402782  0  0.927501  0  0  0.296876  0.384532  0  0.954195  0
H  H6  1  0.07445989  0.84215929  0.96177634  1  0  0.421068  0  0.883119  0  0  0.392132  0  0.943095  0  0  0.402794  0  0.927485  0  0  0.29687  0.384546  0  0.954176  0
H  H7  1  0.92553935  0.15783993  0.46177610  1  0  0.421074  0  0.883113  0  0  0.392132  0  0.943096  0  0  0.402803  0  0.927473  0  0  0.296874  0.384547  0  0.954176  0
H  H8  1  0.75233420  0.00692301  0.03645689  1  0  0.424955  0  0.873578  0  0  0.398037  0  0.930163  0  0  0.408257  0  0.915234  0  0  0.300832  0.390858  0  0.94062  0
H  H9  1  0.24766291  0.99308292  0.53646015  1  0  0.42492  0  0.87363  0  0  0.398006  0  0.930205  0  0  0.408222  0  0.915283  0  0  0.300824  0.390831  0  0.940656  0
H  H10  1  0.24766394  0.99308194  0.96354293  1  0  0.424966  0  0.873589  0  0  0.398068  0  0.93013  0  0  0.408284  0  0.915207  0  0  0.300856  0.390894  0  0.940579  0
H  H11  1  0.75233352  0.00691609  0.46353882  1  0  0.424897  0  0.873659  0  0  0.397964  0  0.930265  0  0  0.408184  0  0.915336  0  0  0.300805  0.390789  0  0.940715  0
H  H12  1  0.01926114  0.83652610  0.18408175  1  0  0.435129  0  0.867027  0  0  0.400978  0  0.936331  0  0  0.411767  0  0.920139  0  0  0.303418  0.393402  0  0.947698  0
H  H13  1  0.98073211  0.16347838  0.68408376  1  0  0.435176  0  0.866957  0  0  0.401043  0  0.93622  0  0  0.411843  0  0.92001  0  0  0.303452  0.393469  0  0.947584  0
H  H14  1  0.98073137  0.16346937  0.81591552  1  0  0.435151  0  0.867002  0  0  0.401015  0  0.936268  0  0  0.411806  0  0.920071  0  0  0.30345  0.393442  0  0.947629  0
H  H15  1  0.01926135  0.83652543  0.31591266  1  0  0.435148  0  0.866983  0  0  0.401034  0  0.936218  0  0  0.411824  0  0.920022  0  0  0.303428  0.393462  0  0.947579  0
H  H16  1  0.51544042  0.83958019  0.18296897  1  0  0.424004  0  0.870048  0  0  0.396067  0  0.927548  0  0  0.406013  0  0.912831  0  0  0.305787  0.389072  0  0.937852  0
H  H17  1  0.48455103  0.16042312  0.68297059  1  0  0.423974  0  0.870084  0  0  0.39606  0  0.927555  0  0  0.406007  0  0.912839  0  0  0.305766  0.389063  0  0.937864  0
H  H18  1  0.48455022  0.16041887  0.81702915  1  0  0.42406  0  0.869972  0  0  0.396083  0  0.927535  0  0  0.40603  0  0.912818  0  0  0.305768  0.389086  0  0.937843  0
H  H19  1  0.51544106  0.83957593  0.31702924  1  0  0.423943  0  0.870134  0  0  0.396065  0  0.927547  0  0  0.406012  0  0.912829  0  0  0.305783  0.389068  0  0.937856  0
H  H20  1  0.12854991  0.34524468  0.18267423  1  0  0.419305  0  0.87832  0  0  0.390084  0  0.938795  0  0  0.400028  0  0.9242  0  0  0.295447  0.382996  0  0.949213  0
H  H21  1  0.87144921  0.65475498  0.68268179  1  0  0.419273  0  0.878393  0  0  0.390062  0  0.938839  0  0  0.400006  0  0.924247  0  0  0.295467  0.382976  0  0.949256  0
H  H22  1  0.87145164  0.65475189  0.81732559  1  0  0.419288  0  0.878328  0  0  0.390067  0  0.938801  0  0  0.400011  0  0.924208  0  0  0.295444  0.38298  0  0.949219  0
H  H23  1  0.12855012  0.34524400  0.31731888  1  0  0.41923  0  0.878457  0  0  0.39003  0  0.938887  0  0  0.399973  0  0.924295  0  0  0.295451  0.382944  0  0.949304  0
H  H24  1  0.66518669  0.39746763  0.94483283  1  0  0.392828  0  0.927908  0  0  0.355536  0  1.008277  0  0  0.368535  0  0.990785  0  0  0.296913  0.346475  0  1.020416  0
H  H25  1  0.33481650  0.60253053  0.44483632  1  0  0.392699  0  0.928018  0  0  0.355509  0  1.008287  0  0  0.368509  0  0.990793  0  0  0.296896  0.346449  0  1.020426  0
H  H26  1  0.33481766  0.60253368  0.05516699  1  0  0.392787  0  0.92793  0  0  0.355542  0  1.008247  0  0  0.368541  0  0.990755  0  0  0.296934  0.346483  0  1.020384  0
H  H27  1  0.66518504  0.39746604  0.55516691  1  0  0.392822  0  0.927889  0  0  0.355551  0  1.008241  0  0  0.36855  0  0.990748  0  0  0.29694  0.346492  0  1.020376  0
C  C28  1  0.50317932  0.23827054  0.05190382  1  0  0.658502  0  3.815457  0  0  0.59427  0  4.132127  0  0  0.627785  0  4.121981  0  0  0.251521  0.571203  0  4.139003  0
C  C29  1  0.49683077  0.76171960  0.55189280  1  0  0.659069  0  3.814888  0  0  0.594669  0  4.131816  0  0  0.628201  0  4.121643  0  0  0.251513  0.571602  0  4.138694  0
C  C30  1  0.49682785  0.76173552  0.94810282  1  0  0.658604  0  3.815661  0  0  0.594333  0  4.132406  0  0  0.62785  0  4.122254  0  0  0.251524  0.571268  0  4.139278  0
C  C31  1  0.50317332  0.23827575  0.44810106  1  0  0.658671  0  3.815201  0  0  0.594423  0  4.131917  0  0  0.627945  0  4.121759  0  0  0.251558  0.571358  0  4.138794  0
C  C32  1  0.73974425  0.49086892  0.15066034  1  0  0.062939  0  3.642166  0  0  0.05871  0  3.90384  0  0  0.058991  0  3.917718  0  0  0.140484  0.05804  0  3.894793  0
C  C33  1  0.26027606  0.50913444  0.65065861  1  0  0.062943  0  3.641899  0  0  0.058752  0  3.903517  0  0  0.059035  0  3.917388  0  0  0.140472  0.058077  0  3.894472  0
C  C34  1  0.26026598  0.50912757  0.84933949  1  0  0.06287  0  3.642401  0  0  0.058701  0  3.903998  0  0  0.058978  0  3.917879  0  0  0.1405  0.058046  0  3.894932  0
C  C35  1  0.73973196  0.49086446  0.34934036  1  0  0.062966  0  3.641844  0  0  0.058777  0  3.903444  0  0  0.059057  0  3.917328  0  0  0.140506  0.058109  0  3.894402  0
C  C36  1  0.60307103  0.34136499  0.15058475  1  0  0.075069  0  3.659566  0  0  0.070839  0  3.916176  0  0  0.071861  0  3.92984  0  0  0.152929  0.069766  0  3.907359  0
C  C37  1  0.39692851  0.65864691  0.65059534  1  0  0.074696  0  3.660256  0  0  0.070579  0  3.916752  0  0  0.071593  0  3.930421  0  0  0.152845  0.069526  0  3.907891  0
C  C38  1  0.39693120  0.65863396  0.84941422  1  0  0.075051  0  3.659486  0  0  0.070826  0  3.916096  0  0  0.07185  0  3.929759  0  0  0.152875  0.069744  0  3.907282  0
C  C39  1  0.60306998  0.34135923  0.34940789  1  0  0.074956  0  3.65994  0  0  0.070755  0  3.916487  0  0  0.071771  0  3.930158  0  0  0.152887  0.06968  0  3.90767  0
C  C40  1  0.82893113  0.59038772  0.04789435  1  0  0.64011  0  3.856143  0  0  0.570683  0  4.181241  0  0  0.603766  0  4.173884  0  0  0.23037  0.548408  0  4.18563  0
C  C41  1  0.17107555  0.40961084  0.54789465  1  0  0.640151  0  3.855945  0  0  0.570676  0  4.181143  0  0  0.603791  0  4.173769  0  0  0.230353  0.548399  0  4.185536  0
C  C42  1  0.17108081  0.40961471  0.95210462  1  0  0.640039  0  3.856258  0  0  0.570586  0  4.181401  0  0  0.603675  0  4.174042  0  0  0.230286  0.548306  0  4.185795  0
C  C43  1  0.82892820  0.59038332  0.45210688  1  0  0.639936  0  3.856284  0  0  0.570499  0  4.181414  0  0  0.603586  0  4.17406  0  0  0.230246  0.548218  0  4.18581  0
N  N44  1  0.53953463  0.27476919  0.25000196  1  0  -0.310443  0  3.257911  0  0  -0.284286  0  3.521365  0  0  -0.289162  0  3.534044  0  0  -0.322087  -0.280559  0  3.512744  0
N  N45  1  0.46046990  0.72524285  0.74999786  1  0  -0.310339  0  3.258092  0  0  -0.284217  0  3.521556  0  0  -0.289091  0  3.534233  0  0  -0.322002  -0.280494  0  3.512927  0
N  N46  1  0.80106575  0.55964314  0.24999385  1  0  -0.216446  0  3.091171  0  0  -0.196897  0  3.354009  0  0  -0.200225  0  3.365917  0  0  -0.263194  -0.194474  0  3.345919  0
N  N47  1  0.19893128  0.44036301  0.75000512  1  0  -0.216356  0  3.091284  0  0  -0.196851  0  3.354148  0  0  -0.200172  0  3.366048  0  0  -0.263165  -0.194438  0  3.346057  0
O  O48  1  0.37438730  0.11803226  0.07500596  1  0  -0.567851  0  2.006581  0  0  -0.518202  0  2.232267  0  0  -0.53868  0  2.222406  0  0  -0.277737  -0.504339  0  2.239407  0
O  O49  1  0.62560149  0.88195905  0.57500313  1  0  -0.568235  0  2.006376  0  0  -0.518439  0  2.232084  0  0  -0.538936  0  2.222218  0  0  -0.277771  -0.504572  0  2.239231  0
O  O50  1  0.62561118  0.88197388  0.92499898  1  0  -0.567896  0  2.006778  0  0  -0.518223  0  2.232505  0  0  -0.538702  0  2.222641  0  0  -0.277713  -0.504354  0  2.239643  0
O  O51  1  0.37439034  0.11803404  0.42499499  1  0  -0.567936  0  2.006609  0  0  -0.518262  0  2.232304  0  0  -0.53874  0  2.222435  0  0  -0.277736  -0.504394  0  2.239447  0
O  O52  1  0.94029376  0.72265513  0.06551430  1  0  -0.557237  0  2.062563  0  0  -0.49692  0  2.287099  0  0  -0.520443  0  2.277877  0  0  -0.258781  -0.480993  0  2.292977  0
O  O53  1  0.05970548  0.27733736  0.56550566  1  0  -0.557324  0  2.062622  0  0  -0.496957  0  2.287124  0  0  -0.52055  0  2.277934  0  0  -0.258806  -0.481023  0  2.292988  0
O  O54  1  0.05972005  0.27734370  0.93449064  1  0  -0.557268  0  2.062687  0  0  -0.496921  0  2.287225  0  0  -0.520454  0  2.278009  0  0  -0.258771  -0.480979  0  2.293064  0
O  O55  1  0.94029172  0.72265925  0.43449246  1  0  -0.557183  0  2.062602  0  0  -0.496899  0  2.287125  0  0  -0.520425  0  2.277901  0  0  -0.258766  -0.480968  0  2.293004  0
O  O56  1  0.78572916  0.53430183  0.94666244  1  0  -0.600201  0  2.081119  0  0  -0.536177  0  2.305328  0  0  -0.562611  0  2.294553  0  0  -0.302733  -0.51743  0  2.312143  0
O  O57  1  0.21428349  0.46569384  0.44665529  1  0  -0.60011  0  2.080911  0  0  -0.536185  0  2.305172  0  0  -0.562608  0  2.294359  0  0  -0.302726  -0.517436  0  2.311988  0
O  O58  1  0.21427962  0.46569468  0.05334335  1  0  -0.600127  0  2.080975  0  0  -0.536175  0  2.305246  0  0  -0.562603  0  2.294453  0  0  -0.302716  -0.517427  0  2.31206  0
O  O59  1  0.78572079  0.53431224  0.55334028  1  0  -0.600156  0  2.081129  0  0  -0.536141  0  2.305342  0  0  -0.562564  0  2.294543  0  0  -0.302696  -0.517392  0  2.312158  0
O  O60  1  0.55069407  0.28264071  0.94732729  1  0  -0.563078  0  2.137533  0  0  -0.498224  0  2.353662  0  0  -0.522577  0  2.337888  0  0  -0.301004  -0.481032  0  2.364141  0
O  O61  1  0.44930615  0.71736222  0.44732192  1  0  -0.562998  0  2.137551  0  0  -0.498255  0  2.353832  0  0  -0.522618  0  2.338054  0  0  -0.300935  -0.48106  0  2.364314  0
O  O62  1  0.44929946  0.71735832  0.05266913  1  0  -0.563016  0  2.137686  0  0  -0.498219  0  2.353886  0  0  -0.522572  0  2.338108  0  0  -0.301023  -0.48103  0  2.364367  0
O  O63  1  0.55069344  0.28264271  0.55267791  1  0  -0.56306  0  2.137491  0  0  -0.498275  0  2.353702  0  0  -0.522634  0  2.337925  0  0  -0.30104  -0.481077  0  2.36418  0
O  O64  1  0.82591691  0.08984732  0.08788950  1  0  -0.893609  0  1.804655  0  0  -0.849184  0  1.977697  0  0  -0.868477  0  1.948013  0  0  -0.648297  -0.83529  0  1.998012  0
O  O65  1  0.17408045  0.91015332  0.58789218  1  0  -0.893596  0  1.804723  0  0  -0.849161  0  1.977751  0  0  -0.868449  0  1.94807  0  0  -0.648299  -0.835267  0  1.998065  0
O  O66  1  0.17408447  0.91015879  0.91211032  1  0  -0.893674  0  1.804724  0  0  -0.849244  0  1.977758  0  0  -0.868532  0  1.948081  0  0  -0.648315  -0.835355  0  1.99807  0
O  O67  1  0.82591778  0.08984686  0.41210850  1  0  -0.893565  0  1.804698  0  0  -0.849131  0  1.977759  0  0  -0.868418  0  1.948061  0  0  -0.648267  -0.835237  0  1.998069  0
O  O68  1  0.06233139  0.90781420  0.24999706  1  0  -0.968478  0  1.816038  0  0  -0.927388  0  2.003117  0  0  -0.941271  0  1.966651  0  0  -0.684289  -0.91777  0  2.028693  0
O  O69  1  0.93766214  0.09218483  0.75000191  1  0  -0.968484  0  1.816039  0  0  -0.927405  0  2.003177  0  0  -0.941286  0  1.966693  0  0  -0.684339  -0.917796  0  2.02875  0
O  O70  1  0.53652293  0.90958398  0.24999766  1  0  -0.886411  0  1.814751  0  0  -0.844992  0  1.989529  0  0  -0.860886  0  1.958032  0  0  -0.622078  -0.834061  0  2.011276  0
O  O71  1  0.46346771  0.09041508  0.75000131  1  0  -0.886444  0  1.814634  0  0  -0.844978  0  1.989483  0  0  -0.860874  0  1.957988  0  0  -0.622041  -0.83405  0  2.011233  0
O  O72  1  0.08244306  0.27963297  0.24999881  1  0  -0.878803  0  1.80248  0  0  -0.838309  0  1.977771  0  0  -0.855084  0  1.948886  0  0  -0.6251  -0.826135  0  1.998133  0
O  O73  1  0.91755405  0.72036841  0.75000272  1  0  -0.878796  0  1.802439  0  0  -0.838306  0  1.97775  0  0  -0.855079  0  1.948867  0  0  -0.625102  -0.826132  0  1.99811  0
