# generated using pymatgen
data_Sm3PH19C13NO24
_symmetry_space_group_name_H-M   'P 1'
_cell_length_a   10.82546356
_cell_length_b   10.70320419
_cell_length_c   11.64800000
_cell_angle_alpha   90.00000000
_cell_angle_beta   90.00000000
_cell_angle_gamma   106.43833383
_symmetry_Int_Tables_number   1
_chemical_formula_structural   Sm3PH19C13NO24
_chemical_formula_sum   'Sm6 P2 H38 C26 N2 O48'
_cell_volume   1294.45459795
_cell_formula_units_Z   2
loop_
 _symmetry_equiv_pos_site_id
 _symmetry_equiv_pos_as_xyz
  1  'x, y, z'
loop_
 _atom_site_type_symbol
 _atom_site_label
 _atom_site_symmetry_multiplicity
 _atom_site_fract_x
 _atom_site_fract_y
 _atom_site_fract_z
 _atom_site_occupancy
 _atom_site_hle17_bader_spin_density
 _atom_site_hle17_ddec_charge
 _atom_site_hle17_ddec_spin_density
 _atom_site_hle17_ddec_sum_bond_order
 _atom_site_hle17_magmom
 _atom_site_hse06_10hf_bader_spin_density
 _atom_site_hse06_10hf_ddec_charge
 _atom_site_hse06_10hf_ddec_spin_density
 _atom_site_hse06_10hf_ddec_sum_bond_order
 _atom_site_hse06_10hf_magmom
 _atom_site_hse06_bader_spin_density
 _atom_site_hse06_ddec_charge
 _atom_site_hse06_ddec_spin_density
 _atom_site_hse06_ddec_sum_bond_order
 _atom_site_hse06_magmom
 _atom_site_pbe_bader_charge
 _atom_site_pbe_bader_spin_density
 _atom_site_pbe_cm5_charge
 _atom_site_pbe_ddec_charge
 _atom_site_pbe_ddec_spin_density
 _atom_site_pbe_ddec_sum_bond_order
 _atom_site_pbe_magmom
Sm  Sm0  1  0.03073624  0.69459692  0.10408225  1  0  2.218631  0  1.64461  0  0  2.047584  0  2.132119  0  0  2.171149  0  1.943443  0  2.202365  0  1.488263  2.015249  0  2.160687  0
Sm  Sm1  1  0.96927157  0.30540998  0.60408139  1  0  2.218574  0  1.644613  0  0  2.047584  0  2.132051  0  0  2.171098  0  1.943457  0  2.202348  0  1.488237  2.015212  0  2.160671  0
Sm  Sm2  1  0.81086086  0.69273831  0.60560955  1  0  2.266272  0  1.633106  0  0  2.095758  0  2.111359  0  0  2.213755  0  1.933757  0  2.210961  0  1.510258  2.061637  0  2.141622  0
Sm  Sm3  1  0.18914152  0.30726567  0.10561212  1  0  2.266305  0  1.633014  0  0  2.09583  0  2.1112  0  0  2.213786  0  1.933667  0  2.211089  0  1.510231  2.06165  0  2.141549  0
Sm  Sm4  1  0.57545698  0.61055597  0.25676168  1  0  2.344525  0  1.532817  0  0  2.255541  0  1.864144  0  0  2.296999  0  1.825141  0  2.239605  0  1.481707  2.159254  0  2.016872  0
Sm  Sm5  1  0.42454164  0.38944119  0.75676511  1  0  2.344542  0  1.532754  0  0  2.255566  0  1.864079  0  0  2.297024  0  1.825075  0  2.239676  0  1.48169  2.159261  0  2.016829  0
P  P6  1  0.47976426  0.66933515  0.55831817  1  0  1.583744  0  4.859963  0  0  1.433625  0  5.372523  0  0  1.485599  0  5.33085  0  3.43118  0  0.350984  1.396335  0  5.399534  0
P  P7  1  0.52023572  0.33066688  0.05831817  1  0  1.583784  0  4.860042  0  0  1.433687  0  5.372598  0  0  1.485656  0  5.330916  0  3.431198  0  0.350953  1.396397  0  5.399606  0
H  H8  1  0.92523433  0.41598295  0.03168441  1  0  0.421908  0  0.884062  0  0  0.396413  0  0.939649  0  0  0.40605  0  0.92582  0  0.628032  0  0.304472  0.389624  0  0.949643  0
H  H9  1  0.07476576  0.58401615  0.53168183  1  0  0.421948  0  0.884021  0  0  0.39646  0  0.939599  0  0  0.406095  0  0.92577  0  0.628203  0  0.3045  0.38967  0  0.949598  0
H  H10  1  0.91057427  0.42376420  0.15978537  1  0  0.430979  0  0.857817  0  0  0.405005  0  0.918116  0  0  0.416003  0  0.902278  0  0.646179  0  0.307781  0.397029  0  0.929917  0
H  H11  1  0.08942202  0.57623783  0.65978451  1  0  0.430972  0  0.85782  0  0  0.405015  0  0.918098  0  0  0.416013  0  0.90226  0  0.646186  0  0.307827  0.397041  0  0.929897  0
H  H12  1  0.39526654  0.36751966  0.34486092  1  0  0.426862  0  0.878733  0  0  0.396977  0  0.941543  0  0  0.40797  0  0.925445  0  0.63693  0  0.307131  0.389706  0  0.951865  0
H  H13  1  0.60472996  0.63247652  0.84486435  1  0  0.426888  0  0.878687  0  0  0.396986  0  0.941509  0  0  0.407974  0  0.925421  0  0.637002  0  0.307137  0.389718  0  0.951824  0
H  H14  1  0.51411962  0.31405331  0.33757813  1  0  0.430401  0  0.856449  0  0  0.401766  0  0.919625  0  0  0.411917  0  0.904659  0  0.639966  0  0.314253  0.394457  0  0.930131  0
H  H15  1  0.48587688  0.68594287  0.83758070  1  0  0.430341  0  0.856553  0  0  0.401731  0  0.919664  0  0  0.41188  0  0.904702  0  0.640033  0  0.31423  0.394418  0  0.930178  0
H  H16  1  0.56275094  0.66982026  0.00725361  1  0  0.432895  0  0.86102  0  0  0.406358  0  0.918176  0  0  0.41695  0  0.902537  0  0.632064  0  0.303306  0.398613  0  0.929348  0
H  H17  1  0.43724490  0.33017690  0.50725189  1  0  0.432951  0  0.860988  0  0  0.406362  0  0.918173  0  0  0.416953  0  0.902536  0  0.632027  0  0.303307  0.398619  0  0.929341  0
H  H18  1  0.70761214  0.71597002  0.04096497  1  0  0.432529  0  0.868862  0  0  0.403256  0  0.929452  0  0  0.415066  0  0.912125  0  0.635097  0  0.301313  0.395266  0  0.940892  0
H  H19  1  0.29238534  0.28403298  0.54096411  1  0  0.43255  0  0.868834  0  0  0.403308  0  0.929394  0  0  0.415124  0  0.912057  0  0.635058  0  0.301313  0.395317  0  0.940838  0
H  H20  1  0.79198195  0.86374744  0.23048163  1  0  0.437766  0  0.829305  0  0  0.416667  0  0.886257  0  0  0.42575  0  0.872892  0  0.626044  0  0.316464  0.410152  0  0.895626  0
H  H21  1  0.20801287  0.13625264  0.73048678  1  0  0.437883  0  0.82907  0  0  0.416699  0  0.886202  0  0  0.425782  0  0.872839  0  0.626011  0  0.316494  0.410185  0  0.89557  0
H  H22  1  0.76174398  0.86547747  0.35975962  1  0  0.435646  0  0.865756  0  0  0.405078  0  0.928764  0  0  0.416723  0  0.911728  0  0.647929  0  0.299907  0.396798  0  0.940663  0
H  H23  1  0.23826154  0.13452456  0.85976219  1  0  0.435713  0  0.865704  0  0  0.405166  0  0.928663  0  0  0.416808  0  0.911633  0  0.647991  0  0.299945  0.396887  0  0.940562  0
H  H24  1  0.42809719  0.82932117  0.38770347  1  0  0.278828  0  0.872574  0  0  0.266645  0  0.926434  0  0  0.273406  0  0.922243  0  0.514391  0  0.32444  0.261773  0  0.929356  0
H  H25  1  0.57190474  0.17067793  0.88770347  1  0  0.278811  0  0.872566  0  0  0.266636  0  0.926415  0  0  0.273395  0  0.922227  0  0.514411  0  0.32445  0.261765  0  0.929338  0
H  H26  1  0.28319131  0.73244428  0.54785800  1  0  0.146443  0  0.927555  0  0  0.159218  0  0.983034  0  0  0.162546  0  0.980452  0  0.119886  0  0.127448  0.156708  0  0.985181  0
H  H27  1  0.71680889  0.26755190  0.04785972  1  0  0.146411  0  0.927592  0  0  0.1592  0  0.983079  0  0  0.162523  0  0.980497  0  0.120057  0  0.127444  0.156686  0  0.985229  0
H  H28  1  0.39472056  0.84320526  0.63989269  1  0  0.130572  0  0.934555  0  0  0.143536  0  0.99206  0  0  0.145781  0  0.991271  0  0.064113  0  0.121458  0.141857  0  0.992811  0
H  H29  1  0.60527768  0.15679384  0.13989183  1  0  0.130568  0  0.934547  0  0  0.143549  0  0.99205  0  0  0.14579  0  0.991262  0  0.064181  0  0.121456  0.141869  0  0.992804  0
H  H30  1  0.31626832  0.00952881  0.51821858  1  0  0.098962  0  0.903673  0  0  0.115763  0  0.959502  0  0  0.117336  0  0.958452  0  0.090713  0  0.121841  0.114369  0  0.960731  0
H  H31  1  0.68372911  0.99046737  0.01821600  1  0  0.098936  0  0.903632  0  0  0.11574  0  0.95945  0  0  0.117312  0  0.958406  0  0.090751  0  0.121803  0.114348  0  0.960679  0
H  H32  1  0.23140310  0.88479323  0.42007297  1  0  0.111576  0  0.904333  0  0  0.126413  0  0.961463  0  0  0.12801  0  0.960722  0  0.11225  0  0.126027  0.125197  0  0.96211  0
H  H33  1  0.76859856  0.11520490  0.92007212  1  0  0.111587  0  0.904241  0  0  0.126389  0  0.96141  0  0  0.127987  0  0.960671  0  0.112269  0  0.125996  0.125174  0  0.962059  0
H  H34  1  0.36502116  0.99416804  0.25846240  1  0  0.072215  0  0.950829  0  0  0.079997  0  1.022094  0  0  0.08198  0  1.01996  0  0.098197  0  0.104244  0.078546  0  1.02353  0
H  H35  1  0.63497681  0.00583009  0.75846068  1  0  0.072109  0  0.95096  0  0  0.079938  0  1.022159  0  0  0.081921  0  1.020024  0  0.098195  0  0.10422  0.078489  0  1.023594  0
H  H36  1  0.30087376  0.10967873  0.32921961  1  0  0.091832  0  0.921017  0  0  0.10467  0  0.980242  0  0  0.105158  0  0.980637  0  0.080486  0  0.120647  0.1041  0  0.980452  0
H  H37  1  0.69912366  0.89031745  0.82921789  1  0  0.091845  0  0.920971  0  0  0.104624  0  0.980269  0  0  0.105111  0  0.980665  0  0.080487  0  0.120647  0.104053  0  0.98048  0
H  H38  1  0.54308593  0.03533609  0.55728108  1  0  0.098232  0  0.918186  0  0  0.111309  0  0.980241  0  0  0.112589  0  0.979701  0  0.094842  0  0.119218  0.110329  0  0.980711  0
H  H39  1  0.45691498  0.96466594  0.05728022  1  0  0.098218  0  0.918217  0  0  0.111288  0  0.980292  0  0  0.112567  0  0.979752  0  0.094905  0  0.11922  0.110309  0  0.980763  0
H  H40  1  0.62071408  0.92473007  0.49586796  1  0  0.114773  0  0.939326  0  0  0.128509  0  0.996641  0  0  0.130122  0  0.9964  0  0.135924  0  0.129096  0.127376  0  0.996798  0
H  H41  1  0.37928618  0.07527293  0.99586968  1  0  0.114784  0  0.939312  0  0  0.128494  0  0.996664  0  0  0.1301  0  0.996435  0  0.135883  0  0.129079  0.127364  0  0.996813  0
H  H42  1  0.67988102  0.13987830  0.39152387  1  0  0.098646  0  0.905242  0  0  0.113019  0  0.961455  0  0  0.113965  0  0.960601  0  0.109005  0  0.122915  0.112319  0  0.96205  0
H  H43  1  0.32011646  0.86012469  0.89152387  1  0  0.098625  0  0.905297  0  0  0.112993  0  0.961499  0  0  0.113937  0  0.960643  0  0.10898  0  0.122919  0.11229  0  0.962101  0
H  H44  1  0.59588328  0.00926190  0.29994420  1  0  0.068008  0  0.942123  0  0  0.077484  0  1.013741  0  0  0.079278  0  1.011202  0  0.07804  0  0.103461  0.075927  0  1.015995  0
H  H45  1  0.40411725  0.99074207  0.79994420  1  0  0.06802  0  0.942097  0  0  0.077462  0  1.013743  0  0  0.079257  0  1.0112  0  0.078055  0  0.103441  0.075906  0  1.015997  0
C  C46  1  0.38444085  0.78813357  0.55935611  1  0  -0.32978  0  3.467231  0  0  -0.370683  0  3.715432  0  0  -0.374655  0  3.718822  0  -0.245952  0  -0.067387  -0.367957  0  3.713991  0
C  C47  1  0.61555886  0.21186749  0.05935697  1  0  -0.329743  0  3.467199  0  0  -0.370722  0  3.715489  0  0  -0.374648  0  3.71881  0  -0.246182  0  -0.067371  -0.367992  0  3.71405  0
C  C48  1  0.32398188  0.95648043  0.43902644  1  0  -0.038075  0  3.503163  0  0  -0.102225  0  3.764631  0  0  -0.099405  0  3.773507  0  0.187717  0  -0.05663  -0.104112  0  3.758872  0
C  C49  1  0.67601647  0.04351575  0.93902301  1  0  -0.038084  0  3.502996  0  0  -0.102193  0  3.764445  0  0  -0.09938  0  3.773328  0  0.187711  0  -0.056578  -0.104081  0  3.758688  0
C  C50  1  0.36715933  0.04952410  0.33838084  1  0  0.058027  0  3.602862  0  0  0.002785  0  3.872554  0  0  0.00899  0  3.877601  0  0.417971  0  -0.06744  -0.001341  0  3.869178  0
C  C51  1  0.63283772  0.95047403  0.83837998  1  0  0.058028  0  3.603007  0  0  0.002794  0  3.872707  0  0  0.009002  0  3.877747  0  0.417717  0  -0.067453  -0.001335  0  3.869334  0
C  C52  1  0.55113098  0.97966247  0.47991672  1  0  -0.044896  0  3.50978  0  0  -0.103552  0  3.762571  0  0  -0.101017  0  3.771725  0  0.157544  0  -0.060619  -0.105097  0  3.756152  0
C  C53  1  0.44886726  0.02033664  0.97991501  1  0  -0.044897  0  3.509727  0  0  -0.103556  0  3.76254  0  0  -0.101021  0  3.771684  0  0.15738  0  -0.060614  -0.1051  0  3.756122  0
C  C54  1  0.58694481  0.06763001  0.37593149  1  0  0.056556  0  3.62009  0  0  -0.002811  0  3.892903  0  0  0.003614  0  3.897636  0  0.408069  0  -0.067714  -0.00706  0  3.889741  0
C  C55  1  0.41305528  0.93236909  0.87593063  1  0  0.056524  0  3.620176  0  0  -0.002776  0  3.892937  0  0  0.003658  0  3.897647  0  0.408242  0  -0.067691  -0.007027  0  3.889773  0
C  C56  1  0.98196450  0.66683264  0.37821257  1  0  0.593424  0  3.914807  0  0  0.549164  0  4.212084  0  0  0.579298  0  4.207368  0  1.628453  0  0.229037  0.527889  0  4.220885  0
C  C57  1  0.01802798  0.33315574  0.87821858  1  0  0.59342  0  3.915305  0  0  0.549141  0  4.212573  0  0  0.579281  0  4.207851  0  1.628494  0  0.229017  0.527866  0  4.221369  0
C  C58  1  0.84332432  0.63450852  0.33393372  1  0  0.552191  0  3.937665  0  0  0.507296  0  4.234614  0  0  0.53806  0  4.228983  0  1.563634  0  0.216927  0.487124  0  4.23546  0
C  C59  1  0.15667033  0.36548766  0.83394231  1  0  0.552145  0  3.937704  0  0  0.507286  0  4.234569  0  0  0.538053  0  4.228933  0  1.563473  0  0.21692  0.487113  0  4.235409  0
C  C60  1  0.11189851  0.99998547  0.02810268  1  0  0.569389  0  3.909089  0  0  0.526418  0  4.202413  0  0  0.556543  0  4.199252  0  1.579444  0  0.223582  0.505744  0  4.208914  0
C  C61  1  0.88811930  0.00001753  0.52809152  1  0  0.569655  0  3.908694  0  0  0.5266  0  4.202188  0  0  0.556726  0  4.199025  0  1.579756  0  0.223646  0.505926  0  4.208689  0
C  C62  1  0.05279771  0.99856131  0.14956044  1  0  0.568874  0  3.935904  0  0  0.530092  0  4.227831  0  0  0.559626  0  4.22541  0  1.606863  0  0.22046  0.509717  0  4.234271  0
C  C63  1  0.94721363  0.00144169  0.64954842  1  0  0.568985  0  3.935723  0  0  0.530211  0  4.227701  0  0  0.559745  0  4.225278  0  1.60665  0  0.220389  0.509837  0  4.234141  0
C  C64  1  0.28878849  0.59466228  0.14287861  1  0  0.569472  0  3.904833  0  0  0.529571  0  4.190596  0  0  0.55934  0  4.189397  0  1.551854  0  0.222356  0.508985  0  4.195037  0
C  C65  1  0.71122008  0.40534072  0.64287689  1  0  0.569601  0  3.904632  0  0  0.529657  0  4.190455  0  0  0.559424  0  4.189259  0  1.551189  0  0.222422  0.50907  0  4.194898  0
C  C66  1  0.33315569  0.73819157  0.17961624  1  0  0.572806  0  3.930736  0  0  0.531585  0  4.226991  0  0  0.561864  0  4.218701  0  1.636033  0  0.22255  0.511396  0  4.231104  0
C  C67  1  0.66684837  0.26180851  0.67961195  1  0  0.572671  0  3.93076  0  0  0.531473  0  4.227036  0  0  0.561753  0  4.218745  0  1.636036  0  0.2225  0.511285  0  4.231144  0
C  C68  1  0.85315822  0.68466872  0.88235577  1  0  0.594156  0  3.854214  0  0  0.546477  0  4.145691  0  0  0.576924  0  4.142158  0  1.594734  0  0.241086  0.52531  0  4.153117  0
C  C69  1  0.14684127  0.31533817  0.38235749  1  0  0.594289  0  3.854084  0  0  0.54659  0  4.145599  0  0  0.577037  0  4.142062  0  1.594705  0  0.241047  0.525422  0  4.153025  0
C  C70  1  0.97621867  0.65593033  0.83583190  1  0  0.582258  0  3.915988  0  0  0.537779  0  4.212066  0  0  0.567965  0  4.208535  0  1.599921  0  0.228663  0.516997  0  4.218523  0
C  C71  1  0.02377810  0.34406683  0.33582761  1  0  0.58219  0  3.916027  0  0  0.537697  0  4.212127  0  0  0.567881  0  4.208595  0  1.599869  0  0.228566  0.516918  0  4.218578  0
N  N72  1  0.42143083  0.88299988  0.46165007  1  0  -0.051938  0  3.373682  0  0  0.029568  0  3.583068  0  0  0.017839  0  3.602552  0  -1.020769  0  -0.340088  0.037534  0  3.570082  0
N  N73  1  0.57857046  0.11700020  0.96165093  1  0  -0.051879  0  3.373533  0  0  0.02964  0  3.582952  0  0  0.017902  0  3.60244  0  -1.020731  0  -0.340094  0.037604  0  3.569968  0
O  O74  1  0.40612687  0.55800529  0.63486521  1  0  -0.952364  0  1.95802  0  0  -0.888588  0  2.224745  0  0  -0.913381  0  2.202709  0  -1.465501  0  -0.468435  -0.860882  0  2.242124  0
O  O75  1  0.59387349  0.44199479  0.13486264  1  0  -0.95236  0  1.958085  0  0  -0.888592  0  2.224815  0  0  -0.913388  0  2.202777  0  -1.465497  0  -0.468425  -0.860891  0  2.242195  0
O  O76  1  0.61550162  0.73859291  0.60410972  1  0  -0.978215  0  1.948161  0  0  -0.907965  0  2.230503  0  0  -0.944195  0  2.20724  0  -1.471616  0  -0.494129  -0.890111  0  2.244625  0
O  O77  1  0.38450179  0.26140814  0.10411229  1  0  -0.978211  0  1.948114  0  0  -0.907977  0  2.23047  0  0  -0.9442  0  2.207205  0  -1.471677  0  -0.494141  -0.890114  0  2.244596  0
O  O78  1  0.48166742  0.63858813  0.42970295  1  0  -0.982217  0  1.956216  0  0  -0.916627  0  2.229433  0  0  -0.942226  0  2.208539  0  -1.463075  0  -0.489337  -0.888174  0  2.246836  0
O  O79  1  0.51832734  0.36140513  0.92970209  1  0  -0.982263  0  1.956257  0  0  -0.916681  0  2.229501  0  0  -0.942281  0  2.208605  0  -1.463082  0  -0.48932  -0.888221  0  2.246905  0
O  O80  1  0.49344515  0.13727839  0.35596583  1  0  -0.31733  0  2.246712  0  0  -0.246399  0  2.490884  0  0  -0.262018  0  2.490172  0  -1.055816  0  -0.226097  -0.235669  0  2.491423  0
O  O81  1  0.50655254  0.86271877  0.85596497  1  0  -0.317204  0  2.246784  0  0  -0.246298  0  2.490929  0  0  -0.261915  0  2.49021  0  -1.055638  0  -0.226049  -0.235562  0  2.491465  0
O  O82  1  0.99848162  0.69694844  0.48368819  1  0  -0.667507  0  2.067583  0  0  -0.616577  0  2.307193  0  0  -0.647123  0  2.293783  0  -1.191488  0  -0.356748  -0.601087  0  2.315264  0
O  O83  1  0.00150709  0.30303313  0.98369334  1  0  -0.667532  0  2.067981  0  0  -0.616578  0  2.307545  0  0  -0.64714  0  2.294166  0  -1.191588  0  -0.35668  -0.601077  0  2.315612  0
O  O84  1  0.06828537  0.66131232  0.30760903  1  0  -0.645711  0  2.011416  0  0  -0.602936  0  2.253949  0  0  -0.634536  0  2.242536  0  -1.179622  0  -0.364954  -0.587403  0  2.259252  0
O  O85  1  0.93170830  0.33867704  0.80761504  1  0  -0.645659  0  2.011477  0  0  -0.602881  0  2.254011  0  0  -0.634474  0  2.242602  0  -1.179627  0  -0.364946  -0.587345  0  2.259316  0
O  O86  1  0.75134457  0.61179894  0.40669128  1  0  -0.728247  0  2.105097  0  0  -0.680991  0  2.355486  0  0  -0.712222  0  2.343284  0  -1.189622  0  -0.390324  -0.658007  0  2.36077  0
O  O87  1  0.24864785  0.38819919  0.90669299  1  0  -0.728143  0  2.105255  0  0  -0.680914  0  2.355652  0  0  -0.712133  0  2.343446  0  -1.18967  0  -0.390267  -0.657926  0  2.360943  0
O  O88  1  0.82548932  0.63570961  0.22694025  1  0  -0.664649  0  2.133807  0  0  -0.613979  0  2.380148  0  0  -0.6445  0  2.37138  0  -1.153725  0  -0.346994  -0.59225  0  2.38369  0
O  O89  1  0.17450447  0.36429339  0.72694111  1  0  -0.664737  0  2.133537  0  0  -0.614125  0  2.379952  0  0  -0.644648  0  2.371184  0  -1.153565  0  -0.347085  -0.592386  0  2.38349  0
O  O90  1  0.11172637  0.89294951  0.98419900  1  0  -0.627966  0  2.049065  0  0  -0.584067  0  2.289962  0  0  -0.614844  0  2.279385  0  -1.164664  0  -0.348999  -0.568712  0  2.295231  0
O  O91  1  0.88828752  0.10705933  0.48417926  1  0  -0.628203  0  2.048413  0  0  -0.58429  0  2.289361  0  0  -0.615064  0  2.278785  0  -1.164786  0  -0.349119  -0.568927  0  2.294629  0
O  O92  1  0.15898557  0.11269460  0.98385731  1  0  -0.681951  0  2.119227  0  0  -0.623074  0  2.356695  0  0  -0.65668  0  2.345792  0  -1.185337  0  -0.358928  -0.605503  0  2.363007  0
O  O93  1  0.84102779  0.88731230  0.48386161  1  0  -0.681988  0  2.119389  0  0  -0.623063  0  2.356911  0  0  -0.656675  0  2.346005  0  -1.185645  0  -0.358908  -0.605501  0  2.363224  0
O  O94  1  0.99185183  0.88807503  0.19004464  1  0  -0.676773  0  2.038002  0  0  -0.626307  0  2.274019  0  0  -0.658446  0  2.260903  0  -1.18986  0  -0.374214  -0.610394  0  2.280633  0
O  O95  1  0.00815277  0.11192700  0.69003091  1  0  -0.676868  0  2.037945  0  0  -0.626373  0  2.273942  0  0  -0.658501  0  2.260825  0  -1.189652  0  -0.37421  -0.610457  0  2.280557  0
O  O96  1  0.07108207  0.10697751  0.19908482  1  0  -0.64447  0  2.039106  0  0  -0.600135  0  2.278181  0  0  -0.631025  0  2.266164  0  -1.174987  0  -0.370733  -0.584481  0  2.284192  0
O  O97  1  0.92892318  0.89302354  0.69907881  1  0  -0.644475  0  2.038977  0  0  -0.600131  0  2.278063  0  0  -0.631031  0  2.266043  0  -1.17483  0  -0.370644  -0.584485  0  2.284072  0
O  O98  1  0.36389259  0.52409920  0.15928142  1  0  -0.725587  0  2.147708  0  0  -0.676912  0  2.394628  0  0  -0.706313  0  2.385742  0  -1.191461  0  -0.378202  -0.653077  0  2.401464  0
O  O99  1  0.63611126  0.47590672  0.65927970  1  0  -0.725651  0  2.147431  0  0  -0.676963  0  2.394387  0  0  -0.70637  0  2.385503  0  -1.191234  0  -0.378205  -0.653129  0  2.401223  0
O  O100  1  0.17723213  0.54984316  0.10034512  1  0  -0.705849  0  2.145772  0  0  -0.651071  0  2.394177  0  0  -0.690527  0  2.387034  0  -1.186864  0  -0.371187  -0.635274  0  2.399442  0
O  O101  1  0.82276987  0.45016276  0.60034427  1  0  -0.705897  0  2.14592  0  0  -0.651116  0  2.394387  0  0  -0.690569  0  2.38725  0  -1.18645  0  -0.371256  -0.635324  0  2.39966  0
O  O102  1  0.43888337  0.77348285  0.23349416  1  0  -0.63951  0  2.045414  0  0  -0.602362  0  2.288055  0  0  -0.624002  0  2.278063  0  -1.182321  0  -0.333763  -0.580079  0  2.294338  0
O  O103  1  0.56112335  0.22652015  0.73348815  1  0  -0.639346  0  2.045418  0  0  -0.602194  0  2.288044  0  0  -0.623833  0  2.278052  0  -1.182117  0  -0.333664  -0.579909  0  2.294325  0
O  O104  1  0.25901999  0.80632909  0.15380666  1  0  -0.652392  0  2.033397  0  0  -0.607516  0  2.276781  0  0  -0.640432  0  2.267645  0  -1.168244  0  -0.356249  -0.591504  0  2.281031  0
O  O105  1  0.74098444  0.19366904  0.65379550  1  0  -0.652416  0  2.033352  0  0  -0.607579  0  2.276768  0  0  -0.640491  0  2.267635  0  -1.168435  0  -0.35629  -0.591561  0  2.281017  0
O  O106  1  0.76208203  0.67584615  0.81156508  1  0  -0.6645  0  2.128907  0  0  -0.60719  0  2.370633  0  0  -0.639313  0  2.358944  0  -1.187853  0  -0.351507  -0.590539  0  2.377001  0
O  O107  1  0.23791590  0.32416172  0.31156250  1  0  -0.664575  0  2.128782  0  0  -0.607295  0  2.370569  0  0  -0.639418  0  2.358877  0  -1.18778  0  -0.351532  -0.590634  0  2.376942  0
O  O108  1  0.85044918  0.71250898  0.98760731  1  0  -0.638865  0  2.108606  0  0  -0.577977  0  2.340235  0  0  -0.611416  0  2.328568  0  -1.173548  0  -0.345553  -0.561234  0  2.346463  0
O  O109  1  0.14955326  0.28750181  0.48760560  1  0  -0.63886  0  2.108581  0  0  -0.577985  0  2.34024  0  0  -0.61142  0  2.328575  0  -1.173453  0  -0.34551  -0.561238  0  2.346471  0
O  O110  1  0.98637816  0.65431622  0.72787174  1  0  -0.656379  0  2.12218  0  0  -0.602114  0  2.358945  0  0  -0.63369  0  2.348182  0  -1.143839  0  -0.34101  -0.585281  0  2.365224  0
O  O111  1  0.01361677  0.34568094  0.22786916  1  0  -0.656423  0  2.122217  0  0  -0.602138  0  2.358982  0  0  -0.633705  0  2.348215  0  -1.143965  0  -0.340995  -0.5853  0  2.365259  0
O  O112  1  0.05401484  0.63297624  0.90793613  1  0  -0.638704  0  2.015096  0  0  -0.593859  0  2.255503  0  0  -0.625493  0  2.24313  0  -1.17643  0  -0.373656  -0.577859  0  2.261117  0
O  O113  1  0.94598586  0.36703163  0.40793183  1  0  -0.63864  0  2.015015  0  0  -0.593787  0  2.25542  0  0  -0.625415  0  2.243055  0  -1.176291  0  -0.373542  -0.57778  0  2.261026  0
O  O114  1  0.89474816  0.46856870  0.08889766  1  0  -0.866353  0  1.882545  0  0  -0.822609  0  2.069479  0  0  -0.85046  0  2.035446  0  -1.2563  0  -0.638142  -0.809584  0  2.089808  0
O  O115  1  0.10525394  0.53143430  0.58889852  1  0  -0.866394  0  1.882506  0  0  -0.822674  0  2.069447  0  0  -0.850517  0  2.035415  0  -1.256461  0  -0.638215  -0.809648  0  2.089771  0
O  O116  1  0.48947654  0.39171283  0.36289320  1  0  -0.877406  0  1.88863  0  0  -0.834295  0  2.068617  0  0  -0.852608  0  2.036413  0  -1.258566  0  -0.600486  -0.8133  0  2.092862  0
O  O117  1  0.51052023  0.60828433  0.86289749  1  0  -0.877331  0  1.888664  0  0  -0.834245  0  2.06873  0  0  -0.852558  0  2.036535  0  -1.25876  0  -0.600449  -0.81325  0  2.092976  0
O  O118  1  0.62051501  0.71667430  0.06911144  1  0  -0.906316  0  1.841945  0  0  -0.87083  0  2.027309  0  0  -0.888776  0  1.994255  0  -1.265741  0  -0.651664  -0.849798  0  2.054325  0
O  O119  1  0.37948100  0.28332675  0.56910800  1  0  -0.906375  0  1.841867  0  0  -0.870872  0  2.027189  0  0  -0.888824  0  1.994135  0  -1.265692  0  -0.651666  -0.849842  0  2.054216  0
O  O120  1  0.71856145  0.84179474  0.28328726  1  0  -0.885479  0  1.821697  0  0  -0.847677  0  2.007367  0  0  -0.86484  0  1.97538  0  -1.263313  0  -0.62007  -0.827529  0  2.033291  0
O  O121  1  0.28143439  0.15820242  0.78328812  1  0  -0.885683  0  1.821477  0  0  -0.847797  0  2.007336  0  0  -0.864958  0  1.975349  0  -1.263331  0  -0.620163  -0.827649  0  2.033259  0
