# generated using pymatgen
data_SnH6Au2(C3N2)2
_symmetry_space_group_name_H-M   'P 1'
_cell_length_a   6.45175031
_cell_length_b   10.72250694
_cell_length_c   10.72236702
_cell_angle_alpha   59.39689880
_cell_angle_beta   71.75160314
_cell_angle_gamma   71.75149976
_symmetry_Int_Tables_number   1
_chemical_formula_structural   SnH6Au2(C3N2)2
_chemical_formula_sum   'Sn2 H12 Au4 C12 N8'
_cell_volume   595.51807923
_cell_formula_units_Z   2
loop_
 _symmetry_equiv_pos_site_id
 _symmetry_equiv_pos_as_xyz
  1  'x, y, z'
loop_
 _atom_site_type_symbol
 _atom_site_label
 _atom_site_symmetry_multiplicity
 _atom_site_fract_x
 _atom_site_fract_y
 _atom_site_fract_z
 _atom_site_occupancy
 _atom_site_pbe_bader_charge
 _atom_site_pbe_bader_spin_density
 _atom_site_pbe_cm5_charge
 _atom_site_pbe_ddec_charge
 _atom_site_pbe_ddec_spin_density
 _atom_site_pbe_ddec_sum_bond_order
 _atom_site_pbe_magmom
Sn  Sn0  1  0.50002194  0.99999520  0.49999104  1  1.889825  0  0.688539  1.311227  0  3.425613  0
Sn  Sn1  1  0.99999593  0.49999051  0.00002900  1  1.889746  0  0.688574  1.311373  0  3.425449  0
H  H2  1  0.46852171  0.28183249  0.43150647  1  0.059549  0  0.090525  0.179124  0  1.029299  0
H  H3  1  0.03146021  0.56847764  0.71816990  1  0.059711  0  0.090509  0.179138  0  1.02936  0
H  H4  1  0.53143279  0.71814671  0.56845701  1  0.059747  0  0.090522  0.179046  0  1.029059  0
H  H5  1  0.96857595  0.43151954  0.28185708  1  0.059685  0  0.090575  0.17912  0  1.029136  0
H  H6  1  0.64140845  0.24594432  0.28072311  1  0.089162  0  0.092228  0.184898  0  1.046285  0
H  H7  1  0.85856873  0.71928951  0.75403355  1  0.089203  0  0.092217  0.184966  0  1.046102  0
H  H8  1  0.35852455  0.75402499  0.71927628  1  0.089429  0  0.092156  0.184743  0  1.045918  0
H  H9  1  0.14147735  0.28074069  0.24594853  1  0.089614  0  0.092121  0.184745  0  1.046069  0
H  H10  1  0.75169804  0.18551166  0.44133883  1  0.074224  0  0.090333  0.181929  0  1.043754  0
H  H11  1  0.74824123  0.55865523  0.81449763  1  0.073971  0  0.090295  0.181795  0  1.043512  0
H  H12  1  0.24825465  0.81450223  0.55862501  1  0.073366  0  0.090332  0.181913  0  1.044225  0
H  H13  1  0.25171774  0.44137704  0.18549720  1  0.073441  0  0.090355  0.181927  0  1.044317  0
Au  Au14  1  0.50003981  0.99996809  0.99995758  1  0.284271  0  0.28511  0.028  0  3.279461  0
Au  Au15  1  0.00004392  0.99998357  0.99999960  1  0.284092  0  0.285154  0.028058  0  3.279436  0
Au  Au16  1  0.75005478  0.27008527  0.72987665  1  0.279303  0  0.278018  0.03191  0  2.945124  0
Au  Au17  1  0.25004517  0.72985993  0.27011109  1  0.279929  0  0.278228  0.03221  0  2.945108  0
C  C18  1  0.54400014  0.96866339  0.82653377  1  0.864311  0  0.023928  0.102845  0  3.907173  0
C  C19  1  0.95604621  0.17348727  0.03132651  1  0.863461  0  0.024205  0.102815  0  3.905498  0
C  C20  1  0.45604734  0.03129391  0.17345529  1  0.863885  0  0.024327  0.103092  0  3.906368  0
C  C21  1  0.04398226  0.82657074  0.96869866  1  0.864027  0  0.024109  0.10311  0  3.907976  0
C  C22  1  0.99290880  0.17216867  0.62514655  1  0.84541  0  0.025225  0.097237  0  3.918023  0
C  C23  1  0.50706612  0.37486698  0.82785059  1  0.842416  0  0.025459  0.097242  0  3.915932  0
C  C24  1  0.00702873  0.82783050  0.37486648  1  0.845212  0  0.025307  0.097142  0  3.916081  0
C  C25  1  0.49294217  0.62513672  0.17220932  1  0.844845  0  0.025266  0.097177  0  3.918149  0
C  C26  1  0.60345968  0.20498602  0.40033631  1  -0.43596  0  -0.318891  -0.724664  0  3.70214  0
C  C27  1  0.89654429  0.59966864  0.79500707  1  -0.435889  0  -0.318854  -0.7247  0  3.701507  0
C  C28  1  0.39646799  0.79501269  0.59963029  1  -0.435573  0  -0.318917  -0.724483  0  3.701718  0
C  C29  1  0.10352298  0.40036756  0.20498674  1  -0.435661  0  -0.318886  -0.724521  0  3.702361  0
N  N30  1  0.56734955  0.95346378  0.72207615  1  -1.365159  0  -0.315477  -0.354833  0  3.226384  0
N  N31  1  0.93266004  0.27795196  0.04651871  1  -1.36483  0  -0.315571  -0.354846  0  3.226839  0
N  N32  1  0.43269050  0.04649073  0.27790073  1  -1.365774  0  -0.315734  -0.355214  0  3.227354  0
N  N33  1  0.06729871  0.72211574  0.95351595  1  -1.36518  0  -0.315744  -0.355279  0  3.226857  0
N  N34  1  0.13828591  0.11178001  0.56576490  1  -1.35754  0  -0.313909  -0.352106  0  3.211752  0
N  N35  1  0.36166717  0.43423670  0.88824639  1  -1.354956  0  -0.313918  -0.352091  0  3.21222  0
N  N36  1  0.86162998  0.88823171  0.43423311  1  -1.358004  0  -0.313768  -0.351994  0  3.212397  0
N  N37  1  0.63831985  0.56576153  0.11181741  1  -1.35731  0  -0.313949  -0.352051  0  3.212116  0
