# generated using pymatgen
data_ZnH12C16NO5F
_symmetry_space_group_name_H-M   'P 1'
_cell_length_a   8.83511398
_cell_length_b   13.93567481
_cell_length_c   15.31280456
_cell_angle_alpha   88.52498226
_cell_angle_beta   91.05370653
_cell_angle_gamma   77.57105042
_symmetry_Int_Tables_number   1
_chemical_formula_structural   ZnH12C16NO5F
_chemical_formula_sum   'Zn2 H24 C32 N2 O10 F2'
_cell_volume   1840.01352272
_cell_formula_units_Z   2
loop_
 _symmetry_equiv_pos_site_id
 _symmetry_equiv_pos_as_xyz
  1  'x, y, z'
loop_
 _atom_site_type_symbol
 _atom_site_label
 _atom_site_symmetry_multiplicity
 _atom_site_fract_x
 _atom_site_fract_y
 _atom_site_fract_z
 _atom_site_occupancy
 _atom_site_pbe_bader_charge
 _atom_site_pbe_bader_spin_density
 _atom_site_pbe_cm5_charge
 _atom_site_pbe_ddec_charge
 _atom_site_pbe_ddec_spin_density
 _atom_site_pbe_ddec_sum_bond_order
 _atom_site_pbe_magmom
Zn  Zn0  1  0.47593502  0.60244024  0.50070949  1  1.287951  0  0.67195  0.821491  0  2.436443  0
Zn  Zn1  1  0.52301460  0.39587613  0.50055911  1  1.291636  0  0.670423  0.823634  0  2.419633  0
H  H2  1  0.52996755  0.64922496  0.05760135  1  0.099  0  0.108595  0.130508  0  0.996386  0
H  H3  1  0.56046308  0.34589654  0.95275015  1  0.096544  0  0.108781  0.130109  0  0.997039  0
H  H4  1  0.38029597  0.37665697  0.22535808  1  0.102476  0  0.105028  0.108929  0  1.00883  0
H  H5  1  0.44317898  0.64895948  0.76568613  1  0.092412  0  0.103642  0.105882  0  1.00956  0
H  H6  1  0.38344848  0.37238272  0.06310794  1  0.04596  0  0.101542  0.105486  0  1.002678  0
H  H7  1  0.39964235  0.66116792  0.92548937  1  0.039036  0  0.100481  0.10398  0  1.004781  0
H  H8  1  0.75357425  0.02933984  0.46705296  1  0.08005  0  0.113986  0.118787  0  0.993143  0
H  H9  1  0.35123095  0.95315836  0.61053803  1  0.086711  0  0.114778  0.120652  0  0.991321  0
H  H10  1  0.74981573  0.21022338  0.46864594  1  0.141866  0  0.12876  0.106637  0  0.977986  0
H  H11  1  0.34057298  0.77494967  0.60493408  1  0.115104  0  0.130167  0.103031  0  0.967852  0
H  H12  1  0.28525309  0.27937478  0.52772200  1  0.178044  0  0.130676  0.114573  0  1.0038  0
H  H13  1  0.63696094  0.72971230  0.39714800  1  0.161178  0  0.134732  0.114663  0  0.963622  0
H  H14  1  0.26795564  0.10187649  0.53081770  1  0.092868  0  0.114251  0.118919  0  0.9901  0
H  H15  1  0.65723605  0.90657306  0.39100170  1  0.085956  0  0.116958  0.123292  0  0.984852  0
H  H16  1  0.04648252  0.43798473  0.31229675  1  0.037852  0  0.09752  0.05827  0  0.96441  0
H  H17  1  0.90044934  0.37198974  0.34090151  1  0.04673  0  0.096936  0.062999  0  0.98565  0
H  H18  1  0.10465153  0.21604985  0.35863356  1  0.026041  0  0.085589  0.114736  0  1.007819  0
H  H19  1  0.10838093  0.26879528  0.25170674  1  0.033387  0  0.092563  0.123601  0  0.997428  0
H  H20  1  0.25062684  0.28199000  0.33217041  1  0.028745  0  0.090819  0.126834  0  1.010282  0
H  H21  1  0.09016420  0.63902269  0.65524693  1  0.039794  0  0.092916  0.05685  0  0.999064  0
H  H22  1  0.96381108  0.56025975  0.68743641  1  0.037469  0  0.097037  0.056221  0  0.963384  0
H  H23  1  0.73443610  0.70052500  0.66852208  1  0.057526  0  0.089271  0.129987  0  1.014711  0
H  H24  1  0.87158213  0.73022786  0.74469709  1  0.020159  0  0.088955  0.117093  0  1.00328  0
H  H25  1  0.85827791  0.78016928  0.63571444  1  -0.007248  0  0.084058  0.113162  0  1.007432  0
C  C26  1  0.45057187  0.51154800  0.33112168  1  1.558171  0  0.21138  0.610232  0  4.178699  0
C  C27  1  0.53770346  0.49208864  0.67075866  1  1.604701  0  0.2108  0.606931  0  4.177604  0
C  C28  1  0.64683546  0.08198978  0.48057438  1  -0.025223  0  -0.078734  -0.178549  0  3.956702  0
C  C29  1  0.41449830  0.90684792  0.56112711  1  -0.015689  0  -0.078184  -0.179831  0  3.957848  0
C  C30  1  0.64639326  0.18171410  0.48157749  1  0.487309  0  0.062238  0.105288  0  3.919691  0
C  C31  1  0.40879065  0.80816864  0.55904614  1  0.471704  0  0.062764  0.104817  0  3.932561  0
C  C32  1  0.38584980  0.22060056  0.51636837  1  0.461815  0  0.067388  0.115917  0  3.885184  0
C  C33  1  0.57538758  0.78268054  0.44242947  1  0.444046  0  0.07256  0.125193  0  3.883122  0
C  C34  1  0.37798792  0.12208332  0.51762177  1  0.01484  0  -0.075023  -0.172276  0  3.939958  0
C  C35  1  0.58703511  0.88063760  0.44039644  1  0.013392  0  -0.073483  -0.171458  0  3.930849  0
C  C36  1  0.51029723  0.05029286  0.49954229  1  -0.065194  0  0.014085  0.10208  0  3.997164  0
C  C37  1  0.50464981  0.94519537  0.50033682  1  -0.007741  0  0.015346  0.103456  0  3.996478  0
C  C38  1  0.79570851  0.46929125  0.47680790  1  1.581496  0  0.206998  0.559137  0  4.220653  0
C  C39  1  0.20260590  0.52748723  0.52376533  1  1.597207  0  0.207495  0.558293  0  4.21287  0
C  C40  1  0.96713720  0.46482097  0.47854194  1  0.622667  0  0.065409  0.01468  0  3.992314  0
C  C41  1  0.03113262  0.53189588  0.52133386  1  0.46654  0  0.066578  0.017624  0  4.00063  0
C  C42  1  0.49198994  0.58960319  0.09219360  1  0.015891  0  -0.102394  -0.266253  0  3.982214  0
C  C43  1  0.53029317  0.41382702  0.91335129  1  0.053542  0  -0.104058  -0.269184  0  3.977243  0
C  C44  1  0.48484636  0.59138405  0.18267668  1  0.408093  0  0.101718  0.284272  0  4.042731  0
C  C45  1  0.55241254  0.40919952  0.82380639  1  0.437604  0  0.105944  0.292507  0  4.040654  0
C  C46  1  0.44691057  0.51491826  0.23300803  1  0.072594  0  -0.024043  -0.142319  0  3.956505  0
C  C47  1  0.52229361  0.49314926  0.76829713  1  0.001165  0  -0.025773  -0.147011  0  3.948087  0
C  C48  1  0.41069884  0.43647648  0.18706826  1  -0.095972  0  -0.082492  -0.068341  0  4.006225  0
C  C49  1  0.46799691  0.58338603  0.80826635  1  -0.014842  0  -0.084009  -0.066955  0  4.014064  0
C  C50  1  0.41475858  0.43374865  0.09651014  1  0.019537  0  -0.100558  -0.159069  0  4.003601  0
C  C51  1  0.44483341  0.58983654  0.89750590  1  -0.036601  0  -0.102631  -0.161994  0  4.010564  0
C  C52  1  0.45865174  0.50973138  0.04748985  1  -0.013663  0  -0.003844  0.098583  0  4.011909  0
C  C53  1  0.47623646  0.50466089  0.95191590  1  -0.040677  0  -0.002045  0.103185  0  4.009934  0
C  C54  1  0.02388264  0.37396287  0.34969008  1  0.420276  0  -0.067954  0.081578  0  3.905314  0
C  C55  1  0.12823698  0.27954157  0.32147338  1  -0.047871  0  -0.246301  -0.394827  0  3.990943  0
C  C56  1  0.97144002  0.62668695  0.64844435  1  0.42074  0  -0.070389  0.083207  0  3.906579  0
C  C57  1  0.85144391  0.71481192  0.67592660  1  -0.031681  0  -0.247346  -0.390557  0  3.98642  0
N  N58  1  0.51836533  0.24949222  0.49919582  1  -1.231272  0  -0.315448  -0.191479  0  3.504766  0
N  N59  1  0.48698064  0.74760002  0.50044875  1  -1.213823  0  -0.314585  -0.188846  0  3.510309  0
O  O60  1  0.42580096  0.59281167  0.36961203  1  -1.146461  0  -0.319931  -0.543609  0  2.326499  0
O  O61  1  0.56020138  0.41002768  0.63390076  1  -1.149101  0  -0.31542  -0.536141  0  2.316967  0
O  O62  1  0.47934686  0.42594698  0.36734223  1  -1.164819  0  -0.321522  -0.556682  0  2.297946  0
O  O63  1  0.52263271  0.57630677  0.63237232  1  -1.170932  0  -0.32272  -0.562211  0  2.335564  0
O  O64  1  0.70503139  0.55313892  0.46992575  1  -1.163802  0  -0.309974  -0.541599  0  2.402621  0
O  O65  1  0.29239576  0.44296423  0.52500172  1  -1.173877  0  -0.310564  -0.541302  0  2.418447  0
O  O66  1  0.75519857  0.38677626  0.48287241  1  -1.154306  0  -0.319673  -0.540672  0  2.321333  0
O  O67  1  0.24422466  0.60955032  0.52393747  1  -1.151392  0  -0.319154  -0.534847  0  2.306871  0
O  O68  1  0.05873714  0.38534009  0.44101362  1  -1.063719  0  -0.192672  -0.189491  0  2.58305  0
O  O69  1  0.93751229  0.61079868  0.55787012  1  -1.050391  0  -0.190974  -0.181588  0  2.575283  0
F  F70  1  0.52473128  0.66959609  0.22145859  1  -0.632803  0  -0.10976  -0.152153  0  1.336448  0
F  F71  1  0.60826986  0.31854379  0.79222686  1  -0.628728  0  -0.109457  -0.148065  0  1.338508  0
