# generated using pymatgen
data_MnH17C20(NO)7
_symmetry_space_group_name_H-M   'P 1'
_cell_length_a   7.39468702
_cell_length_b   11.88876509
_cell_length_c   11.88866353
_cell_angle_alpha   91.88630513
_cell_angle_beta   93.87334826
_cell_angle_gamma   93.87378269
_symmetry_Int_Tables_number   1
_chemical_formula_structural   MnH17C20(NO)7
_chemical_formula_sum   'Mn2 H34 C40 N14 O14'
_cell_volume   1039.66878478
_cell_formula_units_Z   2
loop_
 _symmetry_equiv_pos_site_id
 _symmetry_equiv_pos_as_xyz
  1  'x, y, z'
loop_
 _atom_site_type_symbol
 _atom_site_label
 _atom_site_symmetry_multiplicity
 _atom_site_fract_x
 _atom_site_fract_y
 _atom_site_fract_z
 _atom_site_occupancy
 _atom_site_hle17_ddec_charge
 _atom_site_hle17_ddec_spin_density
 _atom_site_hle17_ddec_sum_bond_order
 _atom_site_hle17_magmom
 _atom_site_hse06_10hf_ddec_charge
 _atom_site_hse06_10hf_ddec_spin_density
 _atom_site_hse06_10hf_ddec_sum_bond_order
 _atom_site_hse06_10hf_magmom
 _atom_site_hse06_ddec_charge
 _atom_site_hse06_ddec_spin_density
 _atom_site_hse06_ddec_sum_bond_order
 _atom_site_hse06_magmom
 _atom_site_pbe_cm5_charge
 _atom_site_pbe_ddec_charge
 _atom_site_pbe_ddec_spin_density
 _atom_site_pbe_ddec_sum_bond_order
 _atom_site_pbe_magmom
Mn  Mn0  1  0.15886304  0.95131967  0.57074271  1  1.102825  -4.799613  1.824848  -4.67  0.938608  -4.727519  2.322974  -4.529  1.000041  -4.76825  2.251658  -4.591  0.606025  0.908977  -4.650889  2.370848  -4.427
Mn  Mn1  1  0.65891321  0.57078293  0.95135632  1  1.102688  -4.799895  1.825255  -4.67  0.938614  -4.727528  2.323283  -4.529  1.000048  -4.76829  2.25193  -4.591  0.606193  0.909072  -4.650998  2.371261  -4.428
H  H2  1  0.16728700  0.28559189  0.36361526  1  0.127364  0.000172  0.944409  0.0  0.130395  -1e-05  1.013786  0.0  0.13554  5.8e-05  1.008659  0.0  0.115808  0.126145  -0.000109  1.017626  0.0
H  H3  1  0.66723676  0.36356039  0.28558153  1  0.127439  0.000172  0.94443  0.0  0.130541  -1.1e-05  1.013648  0.0  0.135679  5.7e-05  1.00853  0.0  0.1159  0.126297  -0.00011  1.017486  0.0
H  H4  1  0.39451402  0.32298167  0.70612333  1  0.113318  0.000272  0.94519  0.0  0.115604  7.5e-05  1.020927  0.0  0.120961  0.000185  1.014884  0.0  0.109006  0.110017  -0.000204  1.02757  0.0
H  H5  1  0.89452746  0.70606536  0.32292014  1  0.11341  0.00028  0.945187  0.0  0.115531  7.4e-05  1.021021  0.0  0.120883  0.000185  1.014991  0.0  0.108925  0.109939  -0.000205  1.027675  0.0
H  H6  1  0.80675396  0.19622677  0.22737976  1  0.089447  8e-06  0.961206  0.0  0.100924  -0.0  1.022128  0.0  0.103085  5e-06  1.021193  0.0  0.09897  0.100973  -5.7e-05  1.021271  0.0
H  H7  1  0.30675760  0.22738623  0.19622758  1  0.089421  3e-06  0.961218  0.0  0.100894  -0.0  1.022133  0.0  0.103052  5e-06  1.021205  0.0  0.098939  0.100944  -5.7e-05  1.021272  0.0
H  H8  1  0.73849089  0.82074504  0.61153736  1  0.108781  0.00044  0.928022  0.0  0.118018  0.000259  0.988538  0.0  0.12019  0.000298  0.986131  0.0  0.142284  0.117129  0.000222  0.989698  0.0
H  H9  1  0.23856920  0.61155439  0.82075316  1  0.108968  0.00044  0.927811  0.0  0.118223  0.000259  0.988248  0.0  0.120394  0.000299  0.985846  0.0  0.142446  0.117345  0.000222  0.989394  0.0
H  H10  1  0.62405317  0.89551210  0.93335774  1  0.104136  0.000253  0.965733  0.0  0.111698  0.000204  1.031875  0.0  0.115102  0.000262  1.029688  0.0  0.101065  0.108538  0.000135  1.034197  0.0
H  H11  1  0.12400832  0.93336270  0.89550371  1  0.104112  0.000258  0.965705  0.0  0.11164  0.000203  1.031875  0.0  0.115051  0.000261  1.029701  0.0  0.101067  0.108539  0.000135  1.034143  0.0
H  H12  1  0.40598904  0.88258074  0.72628047  1  0.394046  -0.000364  0.919039  -0.001  0.354691  -0.001391  0.996716  -0.002  0.365902  -0.000989  0.980745  -0.002  0.289562  0.347561  -0.001745  1.006741  -0.003
H  H13  1  0.90608965  0.72630183  0.88257578  1  0.394115  -0.000363  0.919002  -0.001  0.354809  -0.00139  0.996592  -0.002  0.366016  -0.000987  0.98063  -0.002  0.289622  0.347692  -0.001743  1.006598  -0.003
H  H14  1  0.23297193  0.78955841  0.69539726  1  0.411609  -0.000118  0.897839  0.0  0.380291  -0.000985  0.962957  -0.001  0.391951  -0.000699  0.946185  -0.001  0.287183  0.372168  -0.00123  0.974686  -0.002
H  H15  1  0.73304462  0.69543921  0.78957566  1  0.411356  -0.000118  0.898141  0.0  0.379967  -0.000985  0.963341  -0.001  0.391621  -0.000699  0.946582  -0.001  0.286962  0.371861  -0.00123  0.975042  -0.002
H  H16  1  0.73987495  0.24789247  0.02962598  1  0.093108  0.000202  0.955372  0.0  0.104823  0.000203  1.015064  0.0  0.106995  0.000219  1.015029  0.0  0.099165  0.103287  0.000183  1.014946  0.0
H  H17  1  0.23987137  0.02961981  0.24787588  1  0.093079  0.000201  0.955443  0.0  0.104877  0.000203  1.015062  0.0  0.107045  0.00022  1.015029  0.0  0.099232  0.103345  0.000183  1.014945  0.0
H  H18  1  0.48021583  0.09765666  0.82614984  1  0.108284  0.000201  0.936991  0.0  0.12289  0.000203  0.999775  0.0  0.124002  0.000222  0.998908  0.0  0.122737  0.122043  0.000173  1.000344  0.0
H  H19  1  0.98022822  0.82613530  0.09765848  1  0.108127  0.000209  0.936926  0.0  0.122686  0.000203  0.999787  0.0  0.123792  0.000222  0.99893  0.0  0.122652  0.121845  0.000172  1.00036  0.0
H  H20  1  0.67111522  0.19691321  0.83646814  1  0.088384  5.1e-05  0.92432  0.0  0.10424  1.9e-05  0.987686  0.0  0.104555  3.4e-05  0.987455  0.0  0.118667  0.104625  -3.8e-05  0.987252  0.0
H  H21  1  0.17113761  0.83648831  0.19691544  1  0.088293  5.2e-05  0.924462  0.0  0.104178  1.9e-05  0.987798  0.0  0.104487  3.4e-05  0.98758  0.0  0.118647  0.104575  -3.8e-05  0.987359  0.0
H  H22  1  0.69200296  0.84558713  0.13047898  1  0.091949  0.000201  0.983413  0.0  0.098433  0.000202  1.055683  0.0  0.101361  0.000222  1.053256  0.0  0.099794  0.096022  0.000186  1.057857  0.0
H  H23  1  0.19197522  0.13049344  0.84559033  1  0.091933  0.000198  0.983422  0.0  0.098423  0.000202  1.055687  0.0  0.10136  0.000222  1.053239  0.0  0.099722  0.096019  0.000186  1.057854  0.0
H  H24  1  0.45103207  0.60103045  0.48553958  1  0.125098  0.000136  0.943053  0.0  0.128012  3e-06  1.014338  0.0  0.132589  2.6e-05  1.010092  0.0  0.116452  0.123819  -0.0  1.018065  0.0
H  H25  1  0.95100014  0.48550905  0.60099445  1  0.124916  0.000128  0.942975  0.0  0.127957  3e-06  1.014159  0.0  0.132483  2.6e-05  1.009993  0.0  0.116395  0.123757  -1e-06  1.017895  0.0
H  H26  1  0.56097510  0.07682232  0.47447213  1  0.115105  0.000336  0.967125  0.0  0.119726  0.000147  1.035601  0.0  0.12358  0.000183  1.030421  0.0  0.141403  0.118317  0.000131  1.038481  0.0
H  H27  1  0.06096887  0.47446464  0.07684329  1  0.114932  0.000343  0.96726  0.0  0.119612  0.000147  1.035692  0.0  0.123469  0.000183  1.0305  0.0  0.141282  0.118193  0.000131  1.038593  0.0
H  H28  1  0.30900889  0.75385476  0.39132481  1  0.092056  0.0004  0.973403  0.0  0.099055  0.000264  1.038911  0.0  0.10113  0.000291  1.036336  0.0  0.131088  0.098926  0.000166  1.039984  0.0
H  H29  1  0.80901787  0.39135706  0.75385970  1  0.092033  0.000391  0.973439  0.0  0.098995  0.000264  1.038971  0.0  0.101055  0.000292  1.036443  0.0  0.131085  0.098881  0.000166  1.04002  0.0
H  H30  1  0.88477302  0.91863453  0.31946295  1  0.098831  -0.000103  0.90723  0.0  0.116186  -0.000496  0.967151  0.0  0.117247  -0.00034  0.965489  0.0  0.121463  0.115003  -0.000578  0.968871  0.0
H  H31  1  0.38477229  0.31947114  0.91863431  1  0.098858  -0.000102  0.907095  0.0  0.116219  -0.000495  0.967043  0.0  0.117278  -0.000339  0.965382  0.0  0.121489  0.115029  -0.000576  0.968772  0.0
H  H32  1  0.84697098  0.05738129  0.36692784  1  0.111094  0.000154  0.939117  0.0  0.122068  -1.6e-05  1.006763  0.0  0.123973  6.2e-05  1.004775  0.0  0.121124  0.12138  -0.000203  1.007833  0.0
H  H33  1  0.34696725  0.36693414  0.05738770  1  0.110967  0.000155  0.939156  0.0  0.122035  -1.5e-05  1.006712  0.0  0.123935  6.4e-05  1.00473  0.0  0.121082  0.121346  -0.000201  1.007776  0.0
H  H34  1  0.95341827  0.14287962  0.73288014  1  0.11219  0.000355  0.95302  0.0  0.11453  8.6e-05  1.029221  0.0  0.117586  0.000139  1.02494  0.0  0.144413  0.11345  3.1e-05  1.030682  0.0
H  H35  1  0.45344307  0.73288977  0.14290924  1  0.112295  0.000358  0.952847  0.0  0.114576  8.7e-05  1.0292  0.0  0.11763  0.000139  1.024923  0.0  0.144324  0.113501  3.1e-05  1.030662  0.0
C  C36  1  0.43105241  0.46997777  0.60604395  1  -0.060348  0.000623  3.727659  0.0  -0.035755  -0.000251  3.968254  0.0  -0.046441  0.000609  3.99106  0.0  -0.013622  -0.030835  0.001031  3.956127  0.001
C  C37  1  0.93103276  0.60599236  0.46992762  1  -0.060213  0.000629  3.727112  0.0  -0.03548  -0.000257  3.967472  0.0  -0.046066  0.000613  3.99016  0.0  -0.013607  -0.030661  0.001031  3.955491  0.001
C  C38  1  0.22329556  0.16916962  0.55162991  1  0.620856  -0.004761  3.93235  -0.003  0.576262  -0.009046  4.218175  -0.006  0.609382  -0.007257  4.215144  -0.004  0.19851  0.556018  -0.010314  4.215457  -0.006
C  C39  1  0.72322785  0.55159326  0.16913864  1  0.620795  -0.004767  3.932404  -0.003  0.57632  -0.009064  4.218093  -0.006  0.609425  -0.007272  4.215089  -0.004  0.198663  0.556081  -0.010333  4.215385  -0.006
C  C40  1  0.67400151  0.07565709  0.96775409  1  0.067851  -0.000135  3.746114  0.0  0.087921  -0.000307  3.987349  0.0  0.086638  -0.000218  4.01265  0.0  -0.012115  0.088354  -0.000434  3.970987  0.0
C  C41  1  0.17400559  0.96775345  0.07564704  1  0.06788  -0.000103  3.745875  0.0  0.087962  -0.000311  3.987154  0.0  0.086674  -0.00021  4.012466  0.0  -0.012064  0.088393  -0.000434  3.970814  0.0
C  C42  1  0.24182183  0.33657281  0.43132821  1  -0.086897  -0.002553  3.681302  -0.002  -0.128151  -0.002807  3.942048  -0.002  -0.123663  -0.002557  3.957919  -0.002  -0.070608  -0.130916  -0.009096  3.931057  -0.007
C  C43  1  0.74174906  0.43126672  0.33654899  1  -0.08715  -0.002545  3.681356  -0.002  -0.128446  -0.002807  3.942125  -0.002  -0.123977  -0.002561  3.957964  -0.002  -0.070937  -0.131255  -0.009123  3.931206  -0.007
C  C44  1  0.36950965  0.35836654  0.62381575  1  -0.018412  -0.002043  3.62668  -0.002  -0.066955  -0.00221  3.888761  -0.002  -0.060457  -0.002148  3.902623  -0.002  -0.060325  -0.075113  -0.009076  3.886079  -0.007
C  C45  1  0.86950440  0.62375765  0.35830981  1  -0.01825  -0.002069  3.627116  -0.002  -0.066563  -0.002208  3.889  -0.002  -0.060088  -0.002151  3.902848  -0.002  -0.060101  -0.074708  -0.009109  3.886346  -0.007
C  C46  1  0.76492554  0.13040663  0.16298501  1  -0.103533  -7.4e-05  3.751349  0.0  -0.121656  -0.00014  3.995068  0.0  -0.124487  -9.3e-05  4.01839  0.0  -0.089184  -0.118498  -0.000287  3.975875  0.0
C  C47  1  0.26491728  0.16298982  0.13040550  1  -0.103535  -2.1e-05  3.751644  0.0  -0.12159  -0.000141  3.995381  0.0  -0.12442  -9.3e-05  4.018703  0.0  -0.089147  -0.118429  -0.000287  3.976182  0.0
C  C48  1  0.27773397  0.29101003  0.53630208  1  -0.048346  0.003745  3.741787  0.003  -0.025582  0.001946  3.98274  0.001  -0.035689  0.002748  4.005339  0.002  -0.014223  -0.020133  0.003453  3.969246  0.003
C  C49  1  0.77767067  0.53624029  0.29099745  1  -0.048476  0.003742  3.742078  0.003  -0.025806  0.001942  3.983048  0.001  -0.035921  0.00275  4.005671  0.002  -0.014265  -0.020368  0.003465  3.969607  0.003
C  C50  1  0.75735883  0.90205593  0.65644241  1  0.213654  -0.002428  3.681502  -0.003  0.155195  -0.004152  3.969011  -0.005  0.167633  -0.003302  3.98168  -0.004  0.158322  0.147211  -0.004843  3.959398  -0.005
C  C51  1  0.25743219  0.65646345  0.90206172  1  0.213395  -0.00246  3.681361  -0.003  0.155094  -0.004156  3.96888  -0.005  0.167524  -0.00331  3.981563  -0.004  0.158315  0.147123  -0.004848  3.959275  -0.005
C  C52  1  0.66028238  0.96245797  0.99741703  1  -0.099664  1.9e-05  3.718239  0.0  -0.122981  -0.00012  3.969164  0.0  -0.125174  -2.5e-05  3.990206  0.0  -0.092004  -0.122146  -0.000179  3.956883  0.0
C  C53  1  0.16026480  0.99741905  0.96244604  1  -0.099729  -3.7e-05  3.717851  0.0  -0.122977  -0.000118  3.968663  0.0  -0.125193  -3.2e-05  3.989733  0.0  -0.092026  -0.12219  -0.000179  3.956345  0.0
C  C54  1  0.30359196  0.44793419  0.41509806  1  0.058014  0.001502  3.74075  0.001  0.049473  0.00043  3.999262  0.0  0.042785  0.001053  4.024186  0.001  0.072749  0.055118  0.00059  3.981687  0.002
C  C55  1  0.80356283  0.41505000  0.44791464  1  0.057709  0.001478  3.741299  0.001  0.049201  0.00043  3.999948  0.0  0.042594  0.001058  4.02476  0.001  0.072768  0.054851  0.000589  3.982396  0.002
C  C56  1  0.72794380  0.15919485  0.05120110  1  -0.108527  -2e-05  3.743288  0.0  -0.127904  -5.6e-05  3.988288  0.0  -0.130831  -6e-06  4.011645  0.0  -0.090263  -0.125509  -8.5e-05  3.971661  0.0
C  C57  1  0.22794277  0.05120460  0.15918417  1  -0.108528  -5.1e-05  3.743434  0.0  -0.127993  -5.4e-05  3.988452  0.0  -0.130914  -1.1e-05  4.011808  0.0  -0.090304  -0.125589  -8.4e-05  3.971802  0.0
C  C58  1  0.62712197  0.10834109  0.84794189  1  -0.057599  -0.000395  3.640826  0.0  -0.138517  -0.000549  3.888366  0.0  -0.133823  -0.000376  3.897822  0.0  -0.038162  -0.141224  -0.000721  3.880803  0.0
C  C59  1  0.12713246  0.84795001  0.10834708  1  -0.057364  -0.00041  3.640584  0.0  -0.138211  -0.00055  3.888149  0.0  -0.13354  -0.000377  3.89764  0.0  -0.038091  -0.140893  -0.000722  3.880505  0.0
C  C60  1  0.74986870  0.01759848  0.19292222  1  0.063977  -3.1e-05  3.756281  0.0  0.082424  -0.000144  3.997529  0.0  0.08069  -7.2e-05  4.023615  0.0  -0.015642  0.084112  -0.000209  3.978694  0.0
C  C61  1  0.24984753  0.19293313  0.01759585  1  0.063883  -7.7e-05  3.756564  0.0  0.08218  -0.000147  3.998032  0.0  0.080442  -6.8e-05  4.024125  0.0  -0.015728  0.083865  -0.00021  3.979194  0.0
C  C62  1  0.53368933  0.54126731  0.69975966  1  0.647556  -0.003356  3.904435  -0.003  0.598182  -0.006758  4.19672  -0.006  0.632617  -0.005038  4.191011  -0.005  0.213875  0.576924  -0.007868  4.196613  -0.007
C  C63  1  0.03369932  0.69973413  0.54121039  1  0.6472  -0.003367  3.904428  -0.003  0.597673  -0.00676  4.196888  -0.006  0.632076  -0.005041  4.191196  -0.005  0.21368  0.576438  -0.007875  4.196766  -0.007
C  C64  1  0.69911424  0.93410141  0.10866775  1  -0.120444  -5.2e-05  3.758199  0.0  -0.141167  -8.3e-05  4.010749  0.0  -0.143865  -4.3e-05  4.032708  0.0  -0.095175  -0.139781  -0.000134  3.997063  0.0
C  C65  1  0.19908264  0.10867661  0.93409998  1  -0.120241  1e-06  3.758079  0.0  -0.140879  -8.1e-05  4.010599  0.0  -0.143577  -4.4e-05  4.032568  0.0  -0.095015  -0.139483  -0.000133  3.996902  0.0
C  C66  1  0.39979580  0.51525774  0.50018399  1  -0.073163  -0.002616  3.678129  -0.002  -0.113619  -0.002898  3.937707  -0.002  -0.109007  -0.002608  3.954887  -0.002  -0.064724  -0.117323  -0.008289  3.927616  -0.006
C  C67  1  0.89975212  0.50013886  0.51521791  1  -0.072531  -0.002591  3.678163  -0.002  -0.113116  -0.002896  3.937629  -0.002  -0.108532  -0.00261  3.954763  -0.002  -0.064356  -0.116815  -0.008309  3.927607  -0.006
C  C68  1  0.52574306  0.99223035  0.43925712  1  0.170304  -0.002956  3.63103  -0.004  0.093495  -0.004987  3.898747  -0.005  0.107538  -0.004022  3.910292  -0.004  0.164484  0.08553  -0.005697  3.888394  -0.006
C  C69  1  0.02574910  0.43926039  0.99224922  1  0.170553  -0.002982  3.630981  -0.004  0.093773  -0.004985  3.898642  -0.005  0.107802  -0.004027  3.910207  -0.004  0.164629  0.085828  -0.005696  3.888305  -0.006
C  C70  1  0.40229667  0.82824914  0.39493948  1  0.183065  -0.001762  3.731609  -0.003  0.133964  -0.003316  4.019573  -0.004  0.145216  -0.002655  4.032666  -0.003  0.141173  0.127131  -0.004001  4.008001  -0.004
C  C71  1  0.90229913  0.39496281  0.82825348  1  0.18319  -0.001728  3.731793  -0.003  0.134107  -0.003318  4.019792  -0.004  0.145355  -0.002658  4.032875  -0.003  0.14122  0.127299  -0.004003  4.008195  -0.004
C  C72  1  0.78888316  0.98522319  0.31359391  1  -0.057999  -0.000734  3.61753  0.0  -0.138152  -0.001395  3.864903  -0.001  -0.133513  -0.001062  3.873548  0.0  -0.039669  -0.141175  -0.00166  3.858544  -0.001
C  C73  1  0.28887840  0.31360304  0.98522587  1  -0.057828  -0.000736  3.617441  0.0  -0.138018  -0.001391  3.864984  -0.001  -0.133381  -0.00106  3.873632  0.0  -0.039605  -0.141028  -0.001656  3.858633  -0.001
C  C74  1  0.86967384  0.06479595  0.71668938  1  0.186231  -0.004053  3.615729  -0.004  0.106819  -0.006399  3.885998  -0.006  0.121998  -0.00516  3.897098  -0.005  0.176288  0.099381  -0.007341  3.874546  -0.007
C  C75  1  0.36971517  0.71670613  0.06482308  1  0.18591  -0.004084  3.615572  -0.004  0.106634  -0.006409  3.885819  -0.006  0.12179  -0.005168  3.896946  -0.005  0.176332  0.099207  -0.00735  3.874371  -0.007
N  N76  1  0.26447353  0.49397463  0.30495486  1  0.472423  -0.000206  3.939011  0.0  0.515919  -0.000182  4.216259  0.0  0.536228  -0.000155  4.227244  0.0  0.050066  0.498396  -0.01606  4.215007  -0.016
N  N77  1  0.76448452  0.30492646  0.49395772  1  0.472444  -0.000201  3.938745  0.0  0.515667  -0.000183  4.216286  0.0  0.535952  -0.000158  4.227263  0.0  0.04957  0.498126  -0.016129  4.215055  -0.016
N  N78  1  0.71186414  0.04159250  0.76342358  1  0.057361  -0.000769  3.537123  -0.001  0.173489  -0.002118  3.723276  -0.002  0.162753  -0.001506  3.746977  -0.002  -0.124234  0.180133  -0.002576  3.707323  -0.003
N  N79  1  0.21189386  0.76342934  0.04160554  1  0.057694  -0.000762  3.536516  -0.001  0.173721  -0.00212  3.722841  -0.002  0.163098  -0.001508  3.746334  -0.002  -0.123954  0.180373  -0.002579  3.706897  -0.003
N  N80  1  0.54777029  0.83569920  0.33515640  1  -0.274066  0.000141  2.856015  0.0  -0.271444  -0.000617  3.125926  -0.001  -0.280589  -0.000127  3.140515  0.0  -0.219391  -0.262725  -0.000526  3.113474  0.0
N  N81  1  0.04776895  0.33517705  0.83570123  1  -0.274106  0.00012  2.85583  0.0  -0.271421  -0.000618  3.125745  -0.001  -0.28057  -0.000127  3.14033  0.0  -0.219288  -0.262672  -0.000522  3.113254  0.0
N  N82  1  0.90254487  0.97790694  0.64824630  1  -0.40721  -0.026931  3.174944  -0.012  -0.338861  -0.031328  3.477304  -0.012  -0.362473  -0.028091  3.488288  -0.009  -0.335971  -0.322187  -0.031688  3.468184  -0.012
N  N83  1  0.40261989  0.64827205  0.97792557  1  -0.407096  -0.026926  3.174351  -0.012  -0.338896  -0.031342  3.476761  -0.012  -0.362516  -0.028104  3.487769  -0.009  -0.336148  -0.322241  -0.031686  3.467675  -0.012
N  N84  1  0.63827618  0.93788047  0.72563184  1  -0.270459  0.000324  2.941979  0.0  -0.244621  -0.000925  3.1951  -0.001  -0.254955  -0.00022  3.207445  0.0  -0.200608  -0.237341  -0.001377  3.186125  -0.001
N  N85  1  0.13834782  0.72564064  0.93787774  1  -0.270526  0.000358  2.942586  0.0  -0.244875  -0.000926  3.195892  -0.001  -0.255234  -0.000216  3.208246  0.0  -0.20081  -0.237591  -0.001376  3.186917  -0.001
N  N86  1  0.62467262  0.94083417  0.36463056  1  0.051767  -0.00087  3.542729  -0.001  0.171788  -0.002041  3.731243  -0.002  0.161306  -0.001521  3.755144  -0.002  -0.125392  0.177732  -0.002483  3.715603  -0.003
N  N87  1  0.12467597  0.36463899  0.94084195  1  0.0518  -0.00086  3.542573  -0.001  0.171664  -0.002042  3.731297  -0.002  0.161213  -0.00152  3.755138  -0.002  -0.125349  0.177606  -0.002482  3.715657  -0.003
N  N88  1  0.38269808  0.92282761  0.46027932  1  -0.42203  -0.026801  3.210952  -0.012  -0.356717  -0.031324  3.515414  -0.011  -0.379611  -0.028367  3.52661  -0.009  -0.340486  -0.341777  -0.03123  3.507883  -0.011
N  N89  1  0.88270655  0.46029436  0.92284820  1  -0.422261  -0.0268  3.211266  -0.012  -0.356953  -0.031328  3.515715  -0.011  -0.379847  -0.02837  3.526918  -0.009  -0.340711  -0.342042  -0.031217  3.50822  -0.011
O  O90  1  0.28335466  0.12223794  0.64065457  1  -0.629529  -0.025783  1.920685  -0.019  -0.570975  -0.032608  2.160814  -0.024  -0.59942  -0.028955  2.151105  -0.02  -0.316175  -0.549569  -0.033861  2.164878  -0.025
O  O91  1  0.78333524  0.64062868  0.12221456  1  -0.62954  -0.025838  1.921215  -0.019  -0.57103  -0.032658  2.161331  -0.024  -0.599486  -0.029005  2.151631  -0.02  -0.316229  -0.549604  -0.033885  2.165403  -0.025
O  O92  1  0.61403213  0.63354037  0.67588308  1  -0.606229  -0.001281  1.929405  -0.002  -0.555471  -0.003564  2.143946  -0.004  -0.579852  -0.002347  2.135516  -0.003  -0.310674  -0.538612  -0.004561  2.148646  -0.005
O  O93  1  0.11402567  0.67584161  0.63348533  1  -0.605991  -0.001276  1.929908  -0.002  -0.555181  -0.003568  2.144482  -0.004  -0.579583  -0.002347  2.136112  -0.003  -0.31054  -0.538324  -0.004564  2.149139  -0.005
O  O94  1  0.18044432  0.43021050  0.23075509  1  -0.359951  0.000341  1.803863  0.0  -0.34199  0.000106  2.010026  0.0  -0.354378  0.000327  2.007091  0.0  -0.12848  -0.345089  -0.009639  2.018245  -0.01
O  O95  1  0.68049920  0.23068117  0.43023495  1  -0.359727  0.000296  1.804293  0.0  -0.341615  0.000108  2.01045  0.0  -0.35401  0.000314  2.007534  0.0  -0.1282  -0.344768  -0.009681  2.018695  -0.01
O  O96  1  0.53098841  0.49992023  0.79838210  1  -0.659234  -0.036969  2.033534  -0.025  -0.594716  -0.044035  2.30485  -0.027  -0.626317  -0.039383  2.291148  -0.023  -0.3224  -0.570873  -0.046512  2.311183  -0.03
O  O97  1  0.03100800  0.79835310  0.49985321  1  -0.65926  -0.036985  2.033361  -0.025  -0.594676  -0.044047  2.304781  -0.027  -0.62628  -0.039396  2.29109  -0.023  -0.322425  -0.570845  -0.04654  2.311119  -0.03
O  O98  1  0.27124793  0.87081767  0.71603728  1  -0.828004  -0.037498  1.95118  -0.026  -0.765607  -0.046545  2.165373  -0.031  -0.791395  -0.041065  2.129539  -0.026  -0.575416  -0.746549  -0.052806  2.189475  -0.037
O  O99  1  0.77134198  0.71607185  0.87083376  1  -0.827957  -0.037493  1.951241  -0.026  -0.765468  -0.046544  2.165488  -0.031  -0.791247  -0.041068  2.129648  -0.026  -0.575294  -0.746405  -0.052814  2.189553  -0.037
O  O100  1  0.31450429  0.59398174  0.28963399  1  -0.352103  0.000319  1.791271  0.0  -0.337246  7.2e-05  2.002039  0.0  -0.349163  0.000322  1.999894  0.0  -0.127978  -0.341904  -0.009651  2.010877  -0.009
O  O101  1  0.81449910  0.28961571  0.59398593  1  -0.352374  0.000363  1.790439  0.0  -0.337402  7e-05  2.001253  0.0  -0.349311  0.00034  1.999107  0.0  -0.128128  -0.342116  -0.009703  2.010119  -0.01
O  O102  1  0.12402735  0.11448617  0.47356462  1  -0.636945  -0.024718  1.94034  -0.017  -0.587176  -0.032818  2.186757  -0.023  -0.615584  -0.028524  2.177462  -0.019  -0.318789  -0.565313  -0.03782  2.189961  -0.028
O  O103  1  0.62393770  0.47353512  0.11445912  1  -0.636702  -0.024727  1.940251  -0.018  -0.587032  -0.032833  2.186665  -0.023  -0.615421  -0.028538  2.177375  -0.019  -0.318784  -0.565174  -0.037842  2.189869  -0.028
