# generated using pymatgen
data_ZnH9C14NO7
_symmetry_space_group_name_H-M   'P 1'
_cell_length_a   7.16110102
_cell_length_b   13.90381544
_cell_length_c   14.99150000
_cell_angle_alpha   118.05849571
_cell_angle_beta   90.00000000
_cell_angle_gamma   90.00000000
_symmetry_Int_Tables_number   1
_chemical_formula_structural   ZnH9C14NO7
_chemical_formula_sum   'Zn4 H36 C56 N4 O28'
_cell_volume   1317.21832983
_cell_formula_units_Z   4
loop_
 _symmetry_equiv_pos_site_id
 _symmetry_equiv_pos_as_xyz
  1  'x, y, z'
loop_
 _atom_site_type_symbol
 _atom_site_label
 _atom_site_symmetry_multiplicity
 _atom_site_fract_x
 _atom_site_fract_y
 _atom_site_fract_z
 _atom_site_occupancy
 _atom_site_hle17_bader_spin_density
 _atom_site_hle17_ddec_charge
 _atom_site_hle17_ddec_spin_density
 _atom_site_hle17_ddec_sum_bond_order
 _atom_site_hle17_magmom
 _atom_site_hse06_10hf_bader_spin_density
 _atom_site_hse06_10hf_ddec_charge
 _atom_site_hse06_10hf_ddec_spin_density
 _atom_site_hse06_10hf_ddec_sum_bond_order
 _atom_site_hse06_10hf_magmom
 _atom_site_hse06_bader_spin_density
 _atom_site_hse06_ddec_charge
 _atom_site_hse06_ddec_spin_density
 _atom_site_hse06_ddec_sum_bond_order
 _atom_site_hse06_magmom
 _atom_site_pbe_bader_charge
 _atom_site_pbe_bader_spin_density
 _atom_site_pbe_cm5_charge
 _atom_site_pbe_ddec_charge
 _atom_site_pbe_ddec_spin_density
 _atom_site_pbe_ddec_sum_bond_order
 _atom_site_pbe_magmom
Zn  Zn0  1  0.12313609  0.31655783  0.07528804  1  0  1.110528  0  1.715658  0  0  0.924633  0  2.189185  0  0  0.974289  0  2.128514  0  1.288096  0  0.698589  0.889644  0  2.231208  0
Zn  Zn1  1  0.62313602  0.18343770  0.92470988  1  0  1.110481  0  1.715687  0  0  0.92462  0  2.18921  0  0  0.974272  0  2.128541  0  1.288094  0  0.698585  0.889632  0  2.231233  0
Zn  Zn2  1  0.87686516  0.68344056  0.92470899  1  0  1.110467  0  1.715812  0  0  0.924597  0  2.189333  0  0  0.974251  0  2.128664  0  1.288217  0  0.69858  0.889606  0  2.231357  0
Zn  Zn3  1  0.37686523  0.81656150  0.07529217  1  0  1.110514  0  1.715753  0  0  0.924664  0  2.189291  0  0  0.974316  0  2.128618  0  1.28809  0  0.698604  0.889677  0  2.231317  0
H  H4  1  0.85723550  0.34016482  0.45007703  1  0  0.414415  0  0.781549  0  0  0.398695  0  0.835231  0  0  0.408517  0  0.824749  0  0.630095  0  0.348268  0.391626  0  0.842863  0
H  H5  1  0.35722300  0.15984375  0.54992591  1  0  0.41434  0  0.781466  0  0  0.398633  0  0.835152  0  0  0.408453  0  0.824672  0  0.630149  0  0.348242  0.391566  0  0.842785  0
H  H6  1  0.14275040  0.65984172  0.54992422  1  0  0.414314  0  0.781532  0  0  0.398673  0  0.835144  0  0  0.408486  0  0.824675  0  0.629382  0  0.348198  0.391604  0  0.842775  0
H  H7  1  0.64276848  0.84015627  0.45007650  1  0  0.41425  0  0.781529  0  0  0.398593  0  0.835165  0  0  0.408419  0  0.824675  0  0.630184  0  0.348187  0.391526  0  0.842797  0
H  H8  1  0.87477610  0.46847145  0.08990708  1  0  0.452891  0  0.834691  0  0  0.418603  0  0.902509  0  0  0.429656  0  0.886538  0  0.654918  0  0.305562  0.410771  0  0.913808  0
H  H9  1  0.37476919  0.03152734  0.91009025  1  0  0.452937  0  0.834625  0  0  0.418655  0  0.902435  0  0  0.429708  0  0.886464  0  0.654951  0  0.305569  0.410824  0  0.913734  0
H  H10  1  0.12522655  0.53152775  0.91008696  1  0  0.452986  0  0.834572  0  0  0.418647  0  0.902464  0  0  0.429695  0  0.886502  0  0.655015  0  0.305524  0.410815  0  0.913764  0
H  H11  1  0.62523067  0.96847431  0.08991086  1  0  0.452931  0  0.834644  0  0  0.418647  0  0.902457  0  0  0.429696  0  0.886492  0  0.654888  0  0.305533  0.410816  0  0.913756  0
H  H12  1  0.77698248  0.37206869  0.10702333  1  0  0.44723  0  0.829994  0  0  0.416533  0  0.898771  0  0  0.426406  0  0.884536  0  0.6503  0  0.308918  0.409492  0  0.908951  0
H  H13  1  0.27697836  0.12793009  0.89297133  1  0  0.447228  0  0.830063  0  0  0.416542  0  0.898763  0  0  0.426412  0  0.884534  0  0.650269  0  0.308936  0.409501  0  0.908944  0
H  H14  1  0.22302436  0.62793295  0.89297378  1  0  0.447208  0  0.829981  0  0  0.416522  0  0.89877  0  0  0.426396  0  0.884533  0  0.650244  0  0.308899  0.409481  0  0.90895  0
H  H15  1  0.72302848  0.87206911  0.10702672  1  0  0.447211  0  0.830018  0  0  0.416527  0  0.898769  0  0  0.426401  0  0.884531  0  0.650314  0  0.30893  0.409486  0  0.908948  0
H  H16  1  0.04108865  0.40406385  0.76075362  1  0  0.109827  0  0.977443  0  0  0.115733  0  1.047509  0  0  0.119395  0  1.044715  0  0.142574  0  0.110531  0.113096  0  1.049519  0
H  H17  1  0.54108858  0.09593249  0.23924398  1  0  0.109809  0  0.977495  0  0  0.115745  0  1.047511  0  0  0.119405  0  1.04472  0  0.142493  0  0.110547  0.113109  0  1.049524  0
H  H18  1  0.95891120  0.59593780  0.23924350  1  0  0.109844  0  0.977429  0  0  0.115781  0  1.047459  0  0  0.119445  0  1.04466  0  0.142573  0  0.110554  0.113144  0  1.049467  0
H  H19  1  0.45890988  0.90406508  0.76076002  1  0  0.109885  0  0.977493  0  0  0.11581  0  1.047517  0  0  0.119473  0  1.044721  0  0.142512  0  0.110565  0.113174  0  1.049525  0
H  H20  1  0.75664063  0.14133632  0.51324458  1  0  0.102352  0  0.975999  0  0  0.110819  0  1.040713  0  0  0.113818  0  1.038494  0  0.084018  0  0.104752  0.108676  0  1.042321  0
H  H21  1  0.25664489  0.35866328  0.48675177  1  0  0.102419  0  0.975887  0  0  0.110882  0  1.040613  0  0  0.113879  0  1.038395  0  0.084105  0  0.104755  0.108739  0  1.042219  0
H  H22  1  0.24335923  0.85866206  0.48675044  1  0  0.102368  0  0.975978  0  0  0.110797  0  1.040729  0  0  0.113794  0  1.038514  0  0.084113  0  0.104738  0.108657  0  1.04233  0
H  H23  1  0.74334379  0.64133592  0.51325028  1  0  0.102431  0  0.975931  0  0  0.110818  0  1.040722  0  0  0.113813  0  1.03851  0  0.084234  0  0.10477  0.108677  0  1.042319  0
H  H24  1  0.76025320  0.03613382  0.60772933  1  0  0.098627  0  0.971343  0  0  0.105622  0  1.036212  0  0  0.108882  0  1.03491  0  0.101428  0  0.100525  0.10328  0  1.037269  0
H  H25  1  0.26026026  0.46386415  0.39226498  1  0  0.098608  0  0.97132  0  0  0.105606  0  1.036181  0  0  0.108868  0  1.034871  0  0.101  0  0.100535  0.103264  0  1.037245  0
H  H26  1  0.23974665  0.96387027  0.39226952  1  0  0.098658  0  0.971327  0  0  0.105671  0  1.036153  0  0  0.108931  0  1.034849  0  0.101301  0  0.100547  0.103331  0  1.037213  0
H  H27  1  0.73973681  0.53613179  0.60773365  1  0  0.098554  0  0.971337  0  0  0.105549  0  1.036195  0  0  0.10881  0  1.03489  0  0.100973  0  0.100501  0.103214  0  1.037259  0
H  H28  1  0.75870596  0.99888425  0.93330081  1  0  0.101429  0  0.972947  0  0  0.103916  0  1.044447  0  0  0.108282  0  1.039572  0  0.187424  0  0.119252  0.100685  0  1.04804  0
H  H29  1  0.25869625  0.50111291  0.06669756  1  0  0.101452  0  0.972972  0  0  0.1039  0  1.044514  0  0  0.108269  0  1.039633  0  0.187409  0  0.119206  0.100669  0  1.048109  0
H  H30  1  0.24130647  0.00111657  0.06669995  1  0  0.101414  0  0.973039  0  0  0.103894  0  1.044553  0  0  0.108263  0  1.039672  0  0.187379  0  0.11922  0.100663  0  1.048145  0
H  H31  1  0.74129942  0.49888873  0.93331090  1  0  0.101553  0  0.97284  0  0  0.103956  0  1.044445  0  0  0.108329  0  1.039559  0  0.187364  0  0.119226  0.100723  0  1.048041  0
H  H32  1  0.16621885  0.83587824  0.69949862  1  0  0.098859  0  0.969765  0  0  0.107066  0  1.037549  0  0  0.110061  0  1.034408  0  0.121622  0  0.108843  0.104884  0  1.039754  0
H  H33  1  0.66621180  0.66412056  0.30049712  1  0  0.098906  0  0.969706  0  0  0.107077  0  1.037541  0  0  0.110073  0  1.0344  0  0.121724  0  0.108865  0.104902  0  1.039729  0
H  H34  1  0.83379078  0.16412585  0.30049889  1  0  0.098891  0  0.96975  0  0  0.107088  0  1.037567  0  0  0.110084  0  1.034424  0  0.121829  0  0.108827  0.104909  0  1.039763  0
H  H35  1  0.33378108  0.33588027  0.69951098  1  0  0.098884  0  0.969749  0  0  0.107124  0  1.037498  0  0  0.11012  0  1.034358  0  0.121807  0  0.108877  0.10494  0  1.039709  0
H  H36  1  0.15123233  0.99390857  0.66270274  1  0  0.126741  0  0.934737  0  0  0.137906  0  0.989264  0  0  0.141165  0  0.988575  0  0.124234  0  0.113888  0.135587  0  0.989956  0
H  H37  1  0.65123645  0.50608697  0.33728957  1  0  0.126796  0  0.934734  0  0  0.137978  0  0.989232  0  0  0.141237  0  0.98854  0  0.124346  0  0.113921  0.135658  0  0.989925  0
H  H38  1  0.84877311  0.00609552  0.33729477  1  0  0.126651  0  0.93493  0  0  0.137908  0  0.989353  0  0  0.141168  0  0.988659  0  0.124411  0  0.113886  0.13559  0  0.990044  0
H  H39  1  0.34876201  0.49391142  0.66271546  1  0  0.126762  0  0.934809  0  0  0.137947  0  0.98933  0  0  0.141188  0  0.98866  0  0.124444  0  0.113888  0.135629  0  0.990021  0
C  C40  1  0.08380695  0.31345668  0.88222787  1  0  0.677906  0  3.865664  0  0  0.618962  0  4.168019  0  0  0.653731  0  4.160544  0  1.608961  0  0.218081  0.595379  0  4.172317  0
C  C41  1  0.58381525  0.18653640  0.11776831  1  0  0.677784  0  3.866051  0  0  0.618927  0  4.168269  0  0  0.653695  0  4.16079  0  1.609459  0  0.218026  0.595344  0  4.172564  0
C  C42  1  0.91618733  0.68654170  0.11776915  1  0  0.677807  0  3.865828  0  0  0.61892  0  4.168091  0  0  0.653698  0  4.160606  0  1.609078  0  0.218052  0.595336  0  4.172389  0
C  C43  1  0.41618740  0.81346280  0.88223308  1  0  0.677794  0  3.865985  0  0  0.618843  0  4.168344  0  0  0.653612  0  4.160867  0  1.609165  0  0.218018  0.595261  0  4.172639  0
C  C44  1  0.99139643  0.26189784  0.77988564  1  0  -0.083394  0  3.681594  0  0  -0.067117  0  3.92066  0  0  -0.075278  0  3.941425  0  -0.054772  0  -0.006812  -0.061996  0  3.906817  0
C  C45  1  0.49139930  0.23809606  0.22011290  1  0  -0.083456  0  3.681537  0  0  -0.067162  0  3.92056  0  0  -0.075319  0  3.941321  0  -0.054826  0  -0.006834  -0.06204  0  3.906713  0
C  C46  1  0.00860343  0.73810136  0.22011241  1  0  -0.083375  0  3.681642  0  0  -0.067089  0  3.920669  0  0  -0.075247  0  3.941426  0  -0.054805  0  -0.006822  -0.061968  0  3.906823  0
C  C47  1  0.50860335  0.76190314  0.77988982  1  0  -0.083391  0  3.681682  0  0  -0.067034  0  3.920711  0  0  -0.07519  0  3.941472  0  -0.054323  0  -0.00679  -0.061914  0  3.906863  0
C  C48  1  0.98283630  0.32221160  0.72700905  1  0  -0.06349  0  3.696451  0  0  -0.100477  0  3.946516  0  0  -0.098689  0  3.966973  0  0.049517  0  -0.070407  -0.101357  0  3.932678  0
C  C49  1  0.48285033  0.17778718  0.27299296  1  0  -0.063529  0  3.696631  0  0  -0.100556  0  3.946683  0  0  -0.098756  0  3.967109  0  0.049486  0  -0.07046  -0.101437  0  3.932841  0
C  C50  1  0.01715658  0.67778922  0.27298904  1  0  -0.06357  0  3.696656  0  0  -0.1006  0  3.946711  0  0  -0.098813  0  3.967163  0  0.049484  0  -0.070506  -0.101475  0  3.932872  0
C  C51  1  0.51714953  0.82221283  0.72701079  1  0  -0.063701  0  3.696957  0  0  -0.100736  0  3.947013  0  0  -0.098943  0  3.96745  0  0.049497  0  -0.070545  -0.101612  0  3.933173  0
C  C52  1  0.90434278  0.27916155  0.63037987  1  0  -0.079734  0  3.783108  0  0  -0.057209  0  4.020694  0  0  -0.06758  0  4.04568  0  -0.055987  0  -0.020667  -0.050487  0  4.003887  0
C  C53  1  0.40434425  0.22083805  0.36962116  1  0  -0.079801  0  3.783351  0  0  -0.057248  0  4.02083  0  0  -0.067613  0  4.045818  0  -0.055844  0  -0.02069  -0.050524  0  4.004019  0
C  C54  1  0.09565568  0.72084010  0.36961791  1  0  -0.079774  0  3.783323  0  0  -0.057221  0  4.020779  0  0  -0.067589  0  4.045771  0  -0.055953  0  -0.020648  -0.050501  0  4.003973  0
C  C55  1  0.59564584  0.77915952  0.63038018  1  0  -0.079747  0  3.783418  0  0  -0.057191  0  4.020858  0  0  -0.067558  0  4.045846  0  -0.055952  0  -0.020627  -0.050471  0  4.004051  0
C  C56  1  0.92010572  0.34297418  0.57457846  1  0  0.638764  0  3.807047  0  0  0.589359  0  4.111175  0  0  0.62243  0  4.102133  0  1.478314  0  0.23218  0.566813  0  4.116938  0
C  C57  1  0.42010579  0.15702216  0.42542382  1  0  0.638614  0  3.807244  0  0  0.589298  0  4.111237  0  0  0.622364  0  4.102197  0  1.478434  0  0.232212  0.566755  0  4.116997  0
C  C58  1  0.07988716  0.65702012  0.42541746  1  0  0.63866  0  3.807264  0  0  0.589367  0  4.111225  0  0  0.622431  0  4.102185  0  1.478899  0  0.232196  0.566823  0  4.116989  0
C  C59  1  0.57988429  0.84297704  0.57457957  1  0  0.638608  0  3.807251  0  0  0.589304  0  4.111217  0  0  0.622372  0  4.102179  0  1.478574  0  0.232201  0.56676  0  4.116979  0
C  C60  1  0.82183591  0.17568769  0.58749247  1  0  -0.043878  0  3.708046  0  0  -0.074428  0  3.960408  0  0  -0.071538  0  3.978913  0  -0.075585  0  -0.078526  -0.076063  0  3.947708  0
C  C61  1  0.32184436  0.32431109  0.41250420  1  0  -0.043936  0  3.708164  0  0  -0.074511  0  3.960508  0  0  -0.071623  0  3.979011  0  -0.075352  0  -0.078559  -0.076143  0  3.947806  0
C  C62  1  0.17815975  0.82431395  0.41250332  1  0  -0.043862  0  3.708083  0  0  -0.074394  0  3.960436  0  0  -0.071507  0  3.978944  0  -0.075611  0  -0.078528  -0.076028  0  3.947738  0
C  C63  1  0.67814851  0.67568566  0.58749812  1  0  -0.043905  0  3.708108  0  0  -0.074395  0  3.960436  0  0  -0.071511  0  3.978946  0  -0.075407  0  -0.078533  -0.076028  0  3.947741  0
C  C64  1  0.82613414  0.11602350  0.64015415  1  0  -0.093006  0  3.716621  0  0  -0.111399  0  3.968462  0  0  -0.116007  0  3.988631  0  0.023866  0  -0.082345  -0.108386  0  3.95475  0
C  C65  1  0.32613700  0.38397121  0.35983941  1  0  -0.092918  0  3.716562  0  0  -0.111284  0  3.968403  0  0  -0.115887  0  3.98857  0  0.024007  0  -0.082252  -0.108282  0  3.954702  0
C  C66  1  0.17386852  0.88397652  0.35984159  1  0  -0.092969  0  3.71651  0  0  -0.111372  0  3.968373  0  0  -0.115976  0  3.988535  0  0.024008  0  -0.082288  -0.108368  0  3.954672  0
C  C67  1  0.67386146  0.61602554  0.64016291  1  0  -0.092857  0  3.716398  0  0  -0.111215  0  3.968235  0  0  -0.115818  0  3.988401  0  0.024218  0  -0.082274  -0.108219  0  3.954534  0
C  C68  1  0.91352154  0.15623566  0.73489561  1  0  0.034373  0  3.689171  0  0  0.039915  0  3.922991  0  0  0.042099  0  3.94339  0  0.026949  0  0.012901  0.038601  0  3.909142  0
C  C69  1  0.41352859  0.34375742  0.26509991  1  0  0.034465  0  3.688884  0  0  0.039955  0  3.922771  0  0  0.042138  0  3.943166  0  0.026994  0  0.01287  0.03864  0  3.908927  0
C  C70  1  0.08647553  0.84376354  0.26510178  1  0  0.034306  0  3.689042  0  0  0.039846  0  3.922894  0  0  0.04203  0  3.943288  0  0.026923  0  0.012867  0.038546  0  3.909028  0
C  C71  1  0.58647267  0.65624097  0.73490446  1  0  0.034366  0  3.688946  0  0  0.039802  0  3.922925  0  0  0.041985  0  3.943322  0  0.026383  0  0.012857  0.038504  0  3.909038  0
C  C72  1  0.93500566  0.07501343  0.77274095  1  0  0.24914  0  3.713035  0  0  0.23952  0  3.958775  0  0  0.250428  0  3.97653  0  0.441923  0  0.135583  0.23232  0  3.94665  0
C  C73  1  0.43501132  0.42497965  0.22725122  1  0  0.249232  0  3.712648  0  0  0.239607  0  3.95842  0  0  0.250508  0  3.976197  0  0.442139  0  0.135666  0.232407  0  3.946292  0
C  C74  1  0.06499001  0.92498333  0.22725403  1  0  0.24927  0  3.712838  0  0  0.239614  0  3.95862  0  0  0.250515  0  3.976394  0  0.441893  0  0.135655  0.232393  0  3.946523  0
C  C75  1  0.56498435  0.57502036  0.77275118  1  0  0.249186  0  3.712771  0  0  0.239585  0  3.958523  0  0  0.25049  0  3.976294  0  0.441992  0  0.135612  0.232383  0  3.9464  0
C  C76  1  0.84491337  0.99309763  0.87095919  1  0  0.143968  0  3.62468  0  0  0.101652  0  3.874912  0  0  0.111956  0  3.88967  0  0.381151  0  0.055827  0.095046  0  3.86494  0
C  C77  1  0.34491065  0.50689954  0.12903651  1  0  0.143816  0  3.624837  0  0  0.101485  0  3.875003  0  0  0.11179  0  3.889763  0  0.380747  0  0.05582  0.094883  0  3.865034  0
C  C78  1  0.15509905  0.00689831  0.12904011  1  0  0.143866  0  3.62482  0  0  0.101527  0  3.87498  0  0  0.111831  0  3.889737  0  0.380998  0  0.055833  0.094929  0  3.865014  0
C  C79  1  0.65508642  0.49310699  0.87097074  1  0  0.143794  0  3.62475  0  0  0.101514  0  3.874958  0  0  0.111819  0  3.889719  0  0.380785  0  0.05584  0.094911  0  3.864989  0
C  C80  1  0.96333231  0.90477088  0.81837374  1  0  -0.10085  0  3.733558  0  0  -0.075864  0  3.968734  0  0  -0.089023  0  3.992368  0  0.128799  0  -0.010903  -0.067775  0  3.953279  0
C  C81  1  0.46332400  0.59522629  0.18162196  1  0  -0.100792  0  3.733649  0  0  -0.075645  0  3.968586  0  0  -0.088805  0  3.992222  0  0.128524  0  -0.010818  -0.067573  0  3.953157  0
C  C82  1  0.03666894  0.09522261  0.18161716  1  0  -0.100759  0  3.73338  0  0  -0.075652  0  3.968402  0  0  -0.088814  0  3.992041  0  0.128445  0  -0.01084  -0.067599  0  3.953006  0
C  C83  1  0.53667027  0.40477943  0.81838694  1  0  -0.101116  0  3.733663  0  0  -0.076116  0  3.968808  0  0  -0.08928  0  3.992446  0  0.128403  0  -0.011027  -0.068036  0  3.953366  0
C  C84  1  0.96712223  0.80875689  0.83808096  1  0  0.6356  0  3.953109  0  0  0.585167  0  4.247811  0  0  0.618789  0  4.24377  0  1.589965  0  0.195948  0.562431  0  4.249722  0
C  C85  1  0.46711672  0.69124109  0.16191510  1  0  0.635848  0  3.952874  0  0  0.585393  0  4.247545  0  0  0.619016  0  4.243495  0  1.589603  0  0.196013  0.56266  0  4.249462  0
C  C86  1  0.03287483  0.19123579  0.16190424  1  0  0.635906  0  3.953062  0  0  0.585449  0  4.247731  0  0  0.619075  0  4.243682  0  1.589044  0  0.196036  0.56272  0  4.249644  0
C  C87  1  0.53287895  0.30876381  0.83809678  1  0  0.636086  0  3.952706  0  0  0.585705  0  4.24732  0  0  0.61933  0  4.243271  0  1.588882  0  0.196104  0.562971  0  4.249239  0
C  C88  1  0.07318428  0.90415147  0.74146409  1  0  0.014695  0  3.698441  0  0  -0.018949  0  3.952025  0  0  -0.011577  0  3.967828  0  -0.087961  0  -0.056567  -0.023392  0  3.941263  0
C  C89  1  0.57317862  0.59584407  0.25852889  1  0  0.014663  0  3.69848  0  0  -0.019022  0  3.952062  0  0  -0.011649  0  3.967866  0  -0.087882  0  -0.056633  -0.02346  0  3.941305  0
C  C90  1  0.92682396  0.09585017  0.25853236  1  0  0.014566  0  3.69835  0  0  -0.019157  0  3.951997  0  0  -0.011785  0  3.967801  0  -0.087982  0  -0.056622  -0.02359  0  3.941241  0
C  C91  1  0.42681426  0.40415513  0.74147649  1  0  0.014786  0  3.698202  0  0  -0.0189  0  3.951797  0  0  -0.011527  0  3.967594  0  -0.087922  0  -0.056533  -0.023344  0  3.941041  0
C  C92  1  0.06181591  0.99052869  0.71984951  1  0  -0.153857  0  3.681205  0  0  -0.171044  0  3.93189  0  0  -0.180443  0  3.951935  0  0.017607  0  -0.078397  -0.165144  0  3.918545  0
C  C93  1  0.56181584  0.50946929  0.28014588  1  0  -0.15402  0  3.681104  0  0  -0.171193  0  3.93178  0  0  -0.180592  0  3.951828  0  0.017366  0  -0.078466  -0.165294  0  3.918438  0
C  C94  1  0.93819512  0.00947540  0.28015068  1  0  -0.153761  0  3.681116  0  0  -0.170997  0  3.93178  0  0  -0.180398  0  3.951831  0  0.017529  0  -0.078398  -0.16509  0  3.918437  0
C  C95  1  0.43818402  0.49053072  0.71985986  1  0  -0.153881  0  3.680973  0  0  -0.171081  0  3.931642  0  0  -0.180462  0  3.951693  0  0.017543  0  -0.078376  -0.165179  0  3.918293  0
N  N96  1  0.82736439  0.07522615  0.84734264  1  0  -0.377571  0  3.251637  0  0  -0.296414  0  3.536989  0  0  -0.317728  0  3.547135  0  -1.224308  0  -0.32319  -0.282091  0  3.52994  0
N  N97  1  0.32736446  0.42476938  0.15265327  1  0  -0.377576  0  3.251556  0  0  -0.296394  0  3.536882  0  0  -0.317709  0  3.547032  0  -1.223995  0  -0.323211  -0.282063  0  3.529813  0
N  N98  1  0.17264105  0.92476816  0.15265528  1  0  -0.377706  0  3.251715  0  0  -0.296518  0  3.53707  0  0  -0.317829  0  3.547212  0  -1.224186  0  -0.323281  -0.282183  0  3.530014  0
N  N99  1  0.67263539  0.57523471  0.84735225  1  0  -0.377649  0  3.251628  0  0  -0.296444  0  3.536936  0  0  -0.317763  0  3.547089  0  -1.224016  0  -0.323274  -0.282113  0  3.52987  0
O  O100  1  0.11232910  0.25092525  0.92355836  1  0  -0.688369  0  2.092891  0  0  -0.606865  0  2.367075  0  0  -0.636746  0  2.351269  0  -1.193874  0  -0.321697  -0.585852  0  2.37738  0
O  O101  1  0.61233321  0.24906783  0.07643515  1  0  -0.688253  0  2.092822  0  0  -0.60685  0  2.367092  0  0  -0.63673  0  2.351282  0  -1.194201  0  -0.321706  -0.585837  0  2.377396  0
O  O102  1  0.88767495  0.74907639  0.07643942  1  0  -0.688276  0  2.092841  0  0  -0.606835  0  2.36706  0  0  -0.636718  0  2.35125  0  -1.193984  0  -0.32171  -0.585819  0  2.377362  0
O  O103  1  0.38767083  0.75093056  0.92356654  1  0  -0.68826  0  2.092818  0  0  -0.606829  0  2.367113  0  0  -0.636708  0  2.351303  0  -1.193917  0  -0.321676  -0.585815  0  2.377416  0
O  O104  1  0.12497520  0.41270793  0.92374345  1  0  -0.607297  0  1.99532  0  0  -0.547395  0  2.221344  0  0  -0.572544  0  2.213485  0  -1.177143  0  -0.294855  -0.529867  0  2.226226  0
O  O105  1  0.62498769  0.08729167  0.07625824  1  0  -0.607197  0  1.995695  0  0  -0.547351  0  2.221675  0  0  -0.572503  0  2.213822  0  -1.177239  0  -0.294796  -0.529823  0  2.226557  0
O  O106  1  0.87502047  0.58729209  0.07625295  1  0  -0.607195  0  1.995433  0  0  -0.547334  0  2.221438  0  0  -0.572508  0  2.213599  0  -1.177157  0  -0.294797  -0.529804  0  2.226319  0
O  O107  1  0.37502054  0.91270753  0.92374581  1  0  -0.607131  0  1.995575  0  0  -0.547263  0  2.221619  0  0  -0.572433  0  2.213789  0  -1.177253  0  -0.294796  -0.529735  0  2.226499  0
O  O108  1  0.00983508  0.42760319  0.60326949  1  0  -0.528291  0  1.917549  0  0  -0.488055  0  2.126549  0  0  -0.506674  0  2.116907  0  -1.153469  0  -0.278168  -0.475407  0  2.13309  0
O  O109  1  0.50982244  0.07240211  0.39673669  1  0  -0.528121  0  1.917841  0  0  -0.487943  0  2.126814  0  0  -0.506562  0  2.117181  0  -1.15347  0  -0.27813  -0.475299  0  2.133362  0
O  O110  1  0.99014662  0.57241394  0.39673638  1  0  -0.528147  0  1.918017  0  0  -0.487973  0  2.126982  0  0  -0.506584  0  2.117337  0  -1.153874  0  -0.278124  -0.475329  0  2.133527  0
O  O111  1  0.49015787  0.92759301  0.60326425  1  0  -0.528127  0  1.918026  0  0  -0.487937  0  2.126972  0  0  -0.506558  0  2.117333  0  -1.153545  0  -0.278113  -0.475295  0  2.13352  0
O  O112  1  0.82723034  0.29711394  0.48463650  1  0  -0.543289  0  2.056935  0  0  -0.497432  0  2.268095  0  0  -0.518086  0  2.254302  0  -1.12908  0  -0.327645  -0.482859  0  2.277212  0
O  O113  1  0.32722063  0.20289299  0.51536506  1  0  -0.543167  0  2.056692  0  0  -0.497376  0  2.267845  0  0  -0.518026  0  2.254054  0  -1.129261  0  -0.327674  -0.482807  0  2.276958  0
O  O114  1  0.17276952  0.70288607  0.51535991  1  0  -0.543179  0  2.056605  0  0  -0.497465  0  2.267653  0  0  -0.518106  0  2.253876  0  -1.128442  0  -0.327612  -0.482886  0  2.276766  0
O  O115  1  0.67277224  0.79710947  0.48463908  1  0  -0.543063  0  2.056542  0  0  -0.49733  0  2.267627  0  0  -0.517969  0  2.253812  0  -1.129271  0  -0.327616  -0.482758  0  2.276737  0
O  O116  1  0.88076400  0.82145161  0.91936323  1  0  -0.65997  0  2.018286  0  0  -0.584702  0  2.290793  0  0  -0.615266  0  2.277061  0  -1.165423  0  -0.335802  -0.563252  0  2.299481  0
O  O117  1  0.38076128  0.67854556  0.08063114  1  0  -0.66011  0  2.018138  0  0  -0.584845  0  2.290622  0  0  -0.61541  0  2.276889  0  -1.164856  0  -0.335849  -0.563397  0  2.29931  0
O  O118  1  0.11924284  0.17853618  0.08062318  1  0  -0.66009  0  2.018244  0  0  -0.584827  0  2.290744  0  0  -0.615393  0  2.277013  0  -1.164455  0  -0.335782  -0.563379  0  2.299425  0
O  O119  1  0.61923578  0.32146260  0.91938016  1  0  -0.660135  0  2.018217  0  0  -0.584851  0  2.290622  0  0  -0.615418  0  2.276891  0  -1.164447  0  -0.335776  -0.563406  0  2.29931  0
O  O120  1  0.04574995  0.72300560  0.77645194  1  0  -0.599871  0  1.892026  0  0  -0.554218  0  2.110152  0  0  -0.578152  0  2.103829  0  -1.16873  0  -0.320887  -0.537373  0  2.113853  0
O  O121  1  0.54574708  0.77698912  0.22354602  1  0  -0.599977  0  1.892151  0  0  -0.554341  0  2.110289  0  0  -0.578278  0  2.103966  0  -1.168611  0  -0.320918  -0.537488  0  2.113974  0
O  O122  1  0.95427225  0.27699604  0.22353717  1  0  -0.600014  0  1.892276  0  0  -0.554348  0  2.110385  0  0  -0.578289  0  2.104067  0  -1.16849  0  -0.320958  -0.537476  0  2.114033  0
O  O123  1  0.45428489  0.22300437  0.77645888  1  0  -0.600038  0  1.892031  0  0  -0.554433  0  2.110172  0  0  -0.578357  0  2.103824  0  -1.168414  0  -0.321002  -0.537557  0  2.113812  0
O  O124  1  0.89306379  0.41241371  0.11273693  1  0  -0.834497  0  1.941287  0  0  -0.762533  0  2.172915  0  0  -0.78457  0  2.134644  0  -1.245701  0  -0.562758  -0.747052  0  2.19964  0
O  O125  1  0.39305827  0.08758426  0.88725938  1  0  -0.83454  0  1.941277  0  0  -0.762586  0  2.172858  0  0  -0.784626  0  2.134601  0  -1.245716  0  -0.562779  -0.747106  0  2.199585  0
O  O126  1  0.10694305  0.58758794  0.88726152  1  0  -0.834549  0  1.94116  0  0  -0.762558  0  2.172875  0  0  -0.784595  0  2.134618  0  -1.245705  0  -0.562706  -0.747075  0  2.1996  0
O  O127  1  0.60694717  0.91241249  0.11273627  1  0  -0.834534  0  1.94119  0  0  -0.762591  0  2.172808  0  0  -0.784628  0  2.134546  0  -1.245691  0  -0.562757  -0.74711  0  2.199534  0
