# generated using pymatgen
data_Zn3H28C42(N5O7)2
_symmetry_space_group_name_H-M   'P 1'
_cell_length_a   10.85163825
_cell_length_b   14.01424935
_cell_length_c   17.97460659
_cell_angle_alpha   89.40519513
_cell_angle_beta   88.48912346
_cell_angle_gamma   67.20251189
_symmetry_Int_Tables_number   1
_chemical_formula_structural   Zn3H28C42(N5O7)2
_chemical_formula_sum   'Zn6 H56 C84 N20 O28'
_cell_volume   2519.11491883
_cell_formula_units_Z   2
loop_
 _symmetry_equiv_pos_site_id
 _symmetry_equiv_pos_as_xyz
  1  'x, y, z'
loop_
 _atom_site_type_symbol
 _atom_site_label
 _atom_site_symmetry_multiplicity
 _atom_site_fract_x
 _atom_site_fract_y
 _atom_site_fract_z
 _atom_site_occupancy
 _atom_site_pbe_bader_charge
 _atom_site_pbe_bader_spin_density
 _atom_site_pbe_cm5_charge
 _atom_site_pbe_ddec_charge
 _atom_site_pbe_ddec_spin_density
 _atom_site_pbe_ddec_sum_bond_order
 _atom_site_pbe_magmom
Zn  Zn0  1  0.41930769  0.44826742  0.36426337  1  1.324368  0  0.685309  0.909853  0  2.197346  0
Zn  Zn1  1  0.13210902  0.44849662  0.13551082  1  1.323174  0  0.685398  0.910174  0  2.196803  0
Zn  Zn2  1  0.58068672  0.55173833  0.63573407  1  1.324254  0  0.685346  0.909889  0  2.19735  0
Zn  Zn3  1  0.86789370  0.55149442  0.86448939  1  1.32305  0  0.685364  0.910169  0  2.1968  0
Zn  Zn4  1  0.41414409  0.17142924  0.24993215  1  1.26044  0  0.684119  0.760028  0  2.346671  0
Zn  Zn5  1  0.58585320  0.82857264  0.75006750  1  1.260389  0  0.68417  0.76015  0  2.346629  0
H  H6  1  0.44003928  0.15551594  0.08647142  1  0.108674  0  0.122459  0.094015  0  1.022171  0
H  H7  1  0.30822063  0.99719205  0.24449168  1  0.083589  0  0.123444  0.092661  0  0.973739  0
H  H8  1  0.34767515  0.09077224  0.98346705  1  0.063371  0  0.114165  0.118512  0  0.987283  0
H  H9  1  0.21187032  0.92134852  0.14676147  1  0.123714  0  0.125595  0.141057  0  0.970473  0
H  H10  1  0.20239199  0.26304491  0.48584921  1  0.025642  0  0.094743  0.095681  0  1.000819  0
H  H11  1  0.52892151  0.56727601  0.32467151  1  0.659376  0  0.276905  0.375998  0  0.972116  0
H  H12  1  0.57104498  0.55198216  0.41285868  1  0.642987  0  0.283797  0.384485  0  0.954602  0
H  H13  1  0.99736150  0.34208420  0.56592923  1  0.093849  0  0.108274  0.114309  0  0.987106  0
H  H14  1  0.79861452  0.53635522  0.38315871  1  0.11994  0  0.108741  0.117274  0  1.011344  0
H  H15  1  0.94571365  0.63324777  0.00698995  1  0.150356  0  0.121688  0.110777  0  1.035978  0
H  H16  1  0.91800910  0.71936484  0.78462387  1  0.134848  0  0.118193  0.099686  0  1.039841  0
H  H17  1  0.20919548  0.05520554  0.90363452  1  0.489914  0  0.358563  0.292139  0  0.883903  0
H  H18  1  0.05467597  0.75446003  0.03815403  1  0.10599  0  0.114867  0.130274  0  0.991776  0
H  H19  1  0.02468211  0.84548495  0.80679562  1  0.105264  0  0.10913  0.116046  0  1.013707  0
H  H20  1  0.40460993  0.15627225  0.41326835  1  0.100677  0  0.122514  0.093775  0  1.022717  0
H  H21  1  0.69459500  0.99651537  0.25550517  1  0.123243  0  0.123424  0.092687  0  0.973162  0
H  H22  1  0.56172495  0.09177295  0.51631085  1  0.059058  0  0.114487  0.118752  0  0.9871  0
H  H23  1  0.86684688  0.92092914  0.35333097  1  0.158249  0  0.125813  0.141349  0  0.970006  0
H  H24  1  0.53428973  0.26301009  0.01410116  1  0.031046  0  0.094765  0.095689  0  1.000787  0
H  H25  1  0.90313770  0.56698294  0.17519527  1  0.659273  0  0.276723  0.375816  0  0.972752  0
H  H26  1  0.87649992  0.55197749  0.08698184  1  0.633978  0  0.284445  0.385965  0  0.952745  0
H  H27  1  0.66079150  0.34166895  0.93412706  1  0.097701  0  0.108301  0.11439  0  0.987751  0
H  H28  1  0.66399705  0.53662177  0.11662884  1  0.125932  0  0.108688  0.117348  0  1.011129  0
H  H29  1  0.42083680  0.63324256  0.49339268  1  0.163651  0  0.121607  0.110718  0  1.035494  0
H  H30  1  0.36282113  0.71991367  0.71564343  1  0.166362  0  0.118048  0.099646  0  1.038954  0
H  H31  1  0.73528366  0.05572759  0.59631830  1  0.482889  0  0.358503  0.292355  0  0.883044  0
H  H32  1  0.19050171  0.75445343  0.46224950  1  0.134993  0  0.114686  0.130203  0  0.992337  0
H  H33  1  0.12994326  0.84613969  0.69344613  1  0.090343  0  0.109473  0.116484  0  1.012563  0
H  H34  1  0.55995458  0.84448903  0.91352326  1  0.108875  0  0.122499  0.094021  0  1.022147  0
H  H35  1  0.69177298  0.00281525  0.75550187  1  0.083522  0  0.123474  0.09276  0  0.973784  0
H  H36  1  0.65231991  0.90923582  0.01652646  1  0.063403  0  0.1142  0.118569  0  0.987227  0
H  H37  1  0.78813419  0.07865723  0.85323022  1  0.123566  0  0.125531  0.140944  0  0.970417  0
H  H38  1  0.79760729  0.73694923  0.51414603  1  0.02568  0  0.094755  0.095711  0  1.00081  0
H  H39  1  0.47113727  0.43269334  0.67533395  1  0.659167  0  0.276935  0.375974  0  0.972145  0
H  H40  1  0.42895766  0.44801662  0.58715425  1  0.643228  0  0.283867  0.384664  0  0.954398  0
H  H41  1  0.00264314  0.65791226  0.43407423  1  0.093904  0  0.108294  0.114344  0  0.987109  0
H  H42  1  0.20137965  0.46364742  0.61684544  1  0.119954  0  0.108695  0.117236  0  1.011311  0
H  H43  1  0.05430709  0.36673475  0.99300220  1  0.150393  0  0.121669  0.110723  0  1.036135  0
H  H44  1  0.08198870  0.28062852  0.21536862  1  0.135241  0  0.118225  0.099707  0  1.039714  0
H  H45  1  0.79077820  0.94481027  0.09635932  1  0.48985  0  0.35857  0.292177  0  0.883839  0
H  H46  1  0.94534960  0.24552017  0.96183584  1  0.106149  0  0.114807  0.130259  0  0.991828  0
H  H47  1  0.97531808  0.15450919  0.19319792  1  0.105016  0  0.109101  0.116025  0  1.013631  0
H  H48  1  0.59537073  0.84372962  0.58672716  1  0.100744  0  0.122454  0.093724  0  1.022546  0
H  H49  1  0.30541723  0.00346793  0.74450828  1  0.123412  0  0.123459  0.092709  0  0.973032  0
H  H50  1  0.43824656  0.90824364  0.48369137  1  0.058689  0  0.114525  0.118843  0  0.987018  0
H  H51  1  0.13315574  0.07907351  0.64669026  1  0.157546  0  0.125888  0.141432  0  0.969941  0
H  H52  1  0.46569325  0.73699102  0.98590545  1  0.031231  0  0.094746  0.095679  0  1.000707  0
H  H53  1  0.09684814  0.43300114  0.82479586  1  0.659113  0  0.276652  0.375687  0  0.972918  0
H  H54  1  0.12349484  0.44800349  0.91300915  1  0.633778  0  0.284301  0.385776  0  0.952966  0
H  H55  1  0.33917390  0.65833216  0.06587209  1  0.097616  0  0.10833  0.114397  0  0.987637  0
H  H56  1  0.33602644  0.46336075  0.88336215  1  0.125593  0  0.108667  0.117394  0  1.011126  0
H  H57  1  0.57913484  0.36678099  0.50660058  1  0.163319  0  0.121636  0.110804  0  1.035447  0
H  H58  1  0.63718624  0.28008278  0.28435553  1  0.166455  0  0.118074  0.099658  0  1.038846  0
H  H59  1  0.26471012  0.94430911  0.40369165  1  0.483244  0  0.35852  0.292313  0  0.883296  0
H  H60  1  0.80947210  0.24559179  0.53775464  1  0.134844  0  0.11472  0.130273  0  0.992433  0
H  H61  1  0.87007049  0.15386450  0.30656654  1  0.084478  0  0.109409  0.116354  0  1.012603  0
C  C62  1  0.23834391  0.29898659  0.34250957  1  1.572435  0  0.212487  0.595662  0  4.166571  0
C  C63  1  0.38989089  0.10287859  0.09751771  1  0.519485  0  0.051773  0.105108  0  3.943288  0
C  C64  1  0.31702688  0.01357687  0.18562785  1  0.546287  0  0.057859  0.104454  0  3.943218  0
C  C65  1  0.11483665  0.35466929  0.38908229  1  -0.053298  0  0.000287  -0.013807  0  3.918878  0
C  C66  1  0.33690210  0.06649352  0.04021847  1  -0.025718  0  -0.079783  -0.16926  0  3.960359  0
C  C67  1  0.26267734  0.97247711  0.13171640  1  0.021805  0  -0.064712  -0.138972  0  3.898012  0
C  C68  1  0.11299143  0.32242656  0.46300118  1  -0.005975  0  -0.095082  -0.119108  0  3.988989  0
C  C69  1  0.00088283  0.43407700  0.36089570  1  0.011561  0  -0.013751  -0.057332  0  3.945831  0
C  C70  1  0.26992368  0.00083862  0.05702995  1  -0.038616  0  0.02041  0.063839  0  4.025234  0
C  C71  1  0.75807109  0.48892624  0.52546319  1  1.560043  0  0.198498  0.557253  0  4.236107  0
C  C72  1  0.99871386  0.36613521  0.50816179  1  -0.0037  0  -0.076422  -0.070949  0  3.962843  0
C  C73  1  0.88612738  0.47555977  0.40606213  1  -0.054022  0  -0.073216  -0.095838  0  3.939827  0
C  C74  1  0.99963521  0.47720382  0.28390624  1  1.584156  0  0.209323  0.573874  0  4.206404  0
C  C75  1  0.20703361  0.96333865  0.00021397  1  0.996167  0  0.226419  0.257439  0  4.059155  0
C  C76  1  0.96478227  0.68149869  0.96420865  1  0.443354  0  0.049066  0.095772  0  3.91833  0
C  C77  1  0.95050552  0.72931410  0.83982201  1  0.494593  0  0.047429  0.098472  0  3.914504  0
C  C78  1  0.88316928  0.44180884  0.47917140  1  -0.000107  0  -0.02136  -0.046332  0  4.001606  0
C  C79  1  0.02425091  0.75005164  0.98146129  1  0.012964  0  -0.081047  -0.168413  0  3.942259  0
C  C80  1  0.00915111  0.79957445  0.85250024  1  -0.033943  0  -0.080645  -0.158133  0  3.936317  0
C  C81  1  0.11092426  0.88256473  0.94074067  1  0.949099  0  0.220872  0.263947  0  4.032921  0
C  C82  1  0.04798071  0.81034696  0.92458581  1  0.00935  0  0.011562  0.062508  0  4.008087  0
C  C83  1  0.46176279  0.29926038  0.15727034  1  1.576443  0  0.212941  0.595531  0  4.166273  0
C  C84  1  0.50733579  0.10333321  0.40233360  1  0.535292  0  0.05185  0.10631  0  3.943138  0
C  C85  1  0.66940856  0.01332096  0.31433608  1  0.472375  0  0.057378  0.103447  0  3.9436  0
C  C86  1  0.52962127  0.35490741  0.11071517  1  -0.089294  0  -9e-05  -0.014359  0  3.917123  0
C  C87  1  0.59678938  0.06710609  0.45963303  1  -0.042451  0  -0.08021  -0.170778  0  3.962144  0
C  C88  1  0.76492592  0.97235515  0.36826059  1  -0.032557  0  -0.065105  -0.139836  0  3.897446  0
C  C89  1  0.56418934  0.32245697  0.03687812  1  0.018372  0  -0.095512  -0.119471  0  3.988901  0
C  C90  1  0.56395764  0.43439802  0.13887492  1  0.071096  0  -0.01401  -0.057329  0  3.944184  0
C  C91  1  0.72932860  0.00110457  0.44290065  1  0.030323  0  0.020343  0.065262  0  4.024869  0
C  C92  1  0.75285025  0.48869609  0.97448779  1  1.557064  0  0.198816  0.557353  0  4.236248  0
C  C93  1  0.63509967  0.36592340  0.99180503  1  -0.031242  0  -0.076301  -0.071189  0  3.965043  0
C  C94  1  0.63741227  0.47575885  0.09375303  1  -0.072164  0  -0.072656  -0.095258  0  3.937839  0
C  C95  1  0.52186844  0.47761578  0.21581009  1  1.573304  0  0.209745  0.574421  0  4.205467  0
C  C96  1  0.82956684  0.96369562  0.49982397  1  1.00099  0  0.2263  0.25613  0  4.058797  0
C  C97  1  0.35353481  0.68159249  0.53615925  1  0.481217  0  0.049598  0.095724  0  3.918235  0
C  C98  1  0.32019160  0.72977487  0.66047124  1  0.517691  0  0.047563  0.098192  0  3.912288  0
C  C99  1  0.67461819  0.44177547  0.02073459  1  -0.015302  0  -0.021877  -0.046604  0  4.002725  0
C  C100  1  0.22543387  0.75011304  0.51890803  1  -0.00935  0  -0.081142  -0.167565  0  3.941855  0
C  C101  1  0.19124213  0.80008584  0.64775605  1  -0.078647  0  -0.080924  -0.157928  0  3.935573  0
C  C102  1  0.00629191  0.88287964  0.55947722  1  0.954173  0  0.221098  0.264742  0  4.03453  0
C  C103  1  0.14147860  0.81063856  0.57571998  1  -0.02551  0  0.011791  0.061149  0  4.008763  0
C  C104  1  0.76165061  0.70101529  0.65748958  1  1.572532  0  0.212427  0.595568  0  4.166514  0
C  C105  1  0.61010501  0.89712406  0.90247250  1  0.51936  0  0.051788  0.105221  0  3.94313  0
C  C106  1  0.68297470  0.98642733  0.81436280  1  0.54688  0  0.057848  0.104314  0  3.943404  0
C  C107  1  0.88515352  0.64533026  0.61091863  1  -0.053229  0  0.00033  -0.013659  0  3.918953  0
C  C108  1  0.66308927  0.93351455  0.95977456  1  -0.025935  0  -0.079711  -0.169146  0  3.960233  0
C  C109  1  0.73732373  0.02752631  0.86827649  1  0.022269  0  -0.064559  -0.138614  0  3.897792  0
C  C110  1  0.88700648  0.67757222  0.53699682  1  -0.006068  0  -0.095065  -0.119117  0  3.989158  0
C  C111  1  0.99910739  0.56592797  0.63910461  1  0.0114  0  -0.013859  -0.057533  0  3.946344  0
C  C112  1  0.73006939  0.99916790  0.94296250  1  -0.038595  0  0.020296  0.063424  0  4.025535  0
C  C113  1  0.24192736  0.51106790  0.47454319  1  1.561344  0  0.19849  0.557377  0  4.235744  0
C  C114  1  0.00128347  0.63386666  0.49184231  1  -0.003345  0  -0.076495  -0.071099  0  3.963299  0
C  C115  1  0.11386524  0.52444597  0.59394091  1  -0.053957  0  -0.07312  -0.095767  0  3.93986  0
C  C116  1  0.00035223  0.52280115  0.71609301  1  1.584546  0  0.209396  0.574075  0  4.206331  0
C  C117  1  0.79297293  0.03665935  0.99977775  1  0.996788  0  0.226462  0.257771  0  4.059011  0
C  C118  1  0.03523824  0.31848616  0.03578516  1  0.443583  0  0.049051  0.095725  0  3.918197  0
C  C119  1  0.04951076  0.27066997  0.16017078  1  0.495349  0  0.047343  0.098381  0  3.914415  0
C  C120  1  0.11682448  0.55819459  0.52082941  1  -0.000449  0  -0.021379  -0.046336  0  4.001692  0
C  C121  1  0.97577404  0.24993166  0.01852966  1  0.012609  0  -0.081003  -0.168447  0  3.942217  0
C  C122  1  0.99086661  0.20041040  0.14749084  1  -0.034156  0  -0.080608  -0.157992  0  3.93643  0
C  C123  1  0.88909047  0.11742244  0.05925211  1  0.948834  0  0.220726  0.263473  0  4.033164  0
C  C124  1  0.95204153  0.18964176  0.07540515  1  0.008333  0  0.011604  0.062523  0  4.008232  0
C  C125  1  0.53824765  0.70073376  0.84273581  1  1.576461  0  0.213011  0.595577  0  4.165807  0
C  C126  1  0.49264581  0.89666867  0.59766413  1  0.534639  0  0.051857  0.106211  0  3.943468  0
C  C127  1  0.33059664  0.98667085  0.68567631  1  0.4722  0  0.057274  0.10339  0  3.943427  0
C  C128  1  0.47038203  0.64508982  0.88928385  1  -0.08922  0  -0.000178  -0.014369  0  3.917114  0
C  C129  1  0.40318781  0.93290662  0.54037524  1  -0.040892  0  -0.080098  -0.170644  0  3.962414  0
C  C130  1  0.23507108  0.02764750  0.63175018  1  -0.032107  0  -0.065183  -0.139975  0  3.897371  0
C  C131  1  0.43580134  0.67754336  0.96311944  1  -0.045989  0  -0.095476  -0.119548  0  3.988762  0
C  C132  1  0.43605978  0.56559301  0.86111945  1  0.070528  0  -0.013878  -0.057281  0  3.944198  0
C  C133  1  0.27065670  0.99891047  0.55711357  1  0.030098  0  0.020252  0.065166  0  4.024955  0
C  C134  1  0.24714064  0.51129805  0.02549703  1  1.55728  0  0.198748  0.557078  0  4.236788  0
C  C135  1  0.36488781  0.63407229  0.00819486  1  0.033361  0  -0.076365  -0.071187  0  3.964897  0
C  C136  1  0.36260485  0.52422909  0.90624137  1  -0.071511  0  -0.072623  -0.09533  0  3.937788  0
C  C137  1  0.47818849  0.52235358  0.78419486  1  1.573095  0  0.209514  0.574371  0  4.205658  0
C  C138  1  0.17041912  0.03633102  0.50019123  1  0.999657  0  0.22641  0.256423  0  4.058773  0
C  C139  1  0.64645309  0.31842641  0.46384654  1  0.481938  0  0.049508  0.095537  0  3.917993  0
C  C140  1  0.67979905  0.27022933  0.33953519  1  0.517275  0  0.04756  0.098275  0  3.912029  0
C  C141  1  0.32537806  0.55822099  0.97925734  1  -0.015771  0  -0.021862  -0.046526  0  4.002828  0
C  C142  1  0.77455096  0.24991205  0.48110053  1  -0.009769  0  -0.0812  -0.167711  0  3.941729  0
C  C143  1  0.80874887  0.19992687  0.35225029  1  -0.072366  0  -0.080984  -0.157823  0  3.93536  0
C  C144  1  0.99369022  0.11714545  0.44053918  1  0.953599  0  0.221064  0.264478  0  4.034508  0
C  C145  1  0.85851237  0.18938344  0.42428572  1  -0.026021  0  0.011824  0.06128  0  4.008651  0
N  N146  1  0.37915556  0.07818903  0.16938056  1  -1.256107  0  -0.326245  -0.241541  0  3.550521  0
N  N147  1  0.92912259  0.67064566  0.89461072  1  -1.229761  0  -0.317493  -0.231169  0  3.531658  0
N  N148  1  0.19016088  0.99665181  0.92811018  1  -0.804343  0  -0.258676  -0.150553  0  3.715722  0
N  N149  1  0.15663700  0.89110848  0.00937609  1  -1.143325  0  -0.313915  -0.391092  0  3.177685  0
N  N150  1  0.12866487  0.94715328  0.88941279  1  -0.60441  0  -0.212693  -0.228187  0  3.071445  0
N  N151  1  0.54269645  0.07820879  0.33051965  1  -1.257542  0  -0.325512  -0.240825  0  3.54914  0
N  N152  1  0.40020311  0.67093995  0.60572523  1  -1.246666  0  -0.317621  -0.231103  0  3.530484  0
N  N153  1  0.81296033  0.99713301  0.57190135  1  -0.805473  0  -0.258108  -0.14939  0  3.711672  0
N  N154  1  0.95220602  0.89138412  0.49080061  1  -1.148138  0  -0.314344  -0.391066  0  3.179629  0
N  N155  1  0.92387074  0.94756315  0.61071650  1  -0.604147  0  -0.212616  -0.228795  0  3.07049  0
N  N156  1  0.62084002  0.92181981  0.83061071  1  -1.257072  0  -0.326393  -0.24175  0  3.550735  0
N  N157  1  0.07088992  0.32934228  0.10538321  1  -1.230075  0  -0.317427  -0.23102  0  3.531353  0
N  N158  1  0.80983358  0.00335006  0.07188173  1  -0.804289  0  -0.258836  -0.150924  0  3.715682  0
N  N159  1  0.84338182  0.10888333  0.99061157  1  -1.142645  0  -0.313824  -0.390927  0  3.177335  0
N  N160  1  0.87133680  0.05284163  0.11058295  1  -0.604519  0  -0.212524  -0.227783  0  3.071364  0
N  N161  1  0.45730681  0.92178302  0.66948165  1  -1.257646  0  -0.325442  -0.240695  0  3.549408  0
N  N162  1  0.59978809  0.32907044  0.39427612  1  -1.246274  0  -0.317463  -0.23104  0  3.530235  0
N  N163  1  0.18702800  0.00289441  0.42811325  1  -0.804896  0  -0.258172  -0.149549  0  3.71201  0
N  N164  1  0.04777750  0.10863092  0.50922087  1  -1.147398  0  -0.314455  -0.391259  0  3.179684  0
N  N165  1  0.07611922  0.05247201  0.38929576  1  -0.603634  0  -0.212574  -0.228545  0  3.070047  0
O  O166  1  0.23807728  0.22017842  0.30509469  1  -1.164492  0  -0.336229  -0.562003  0  2.272835  0
O  O167  1  0.34279486  0.31728708  0.34617781  1  -1.168885  0  -0.29527  -0.541317  0  2.305072  0
O  O168  1  0.49625664  0.56586709  0.37809651  1  -1.298436  0  -0.589806  -0.781065  0  2.098862  0
O  O169  1  0.10984015  0.43569122  0.24583578  1  -1.16051  0  -0.314109  -0.540117  0  2.346637  0
O  O170  1  0.76371626  0.46611320  0.59509827  1  -1.156434  0  -0.320169  -0.529888  0  2.254647  0
O  O171  1  0.65133028  0.54960224  0.49581805  1  -1.20607  0  -0.322052  -0.581238  0  2.223965  0
O  O172  1  0.89410588  0.54839676  0.26242074  1  -1.174462  0  -0.321257  -0.534496  0  2.139487  0
O  O173  1  0.54096558  0.22040017  0.19463980  1  -1.16482  0  -0.336263  -0.561961  0  2.274931  0
O  O174  1  0.33898978  0.31761930  0.15365040  1  -1.176233  0  -0.295443  -0.540814  0  2.305416  0
O  O175  1  0.93726426  0.56592733  0.12180335  1  -1.289347  0  -0.590611  -0.782858  0  2.098578  0
O  O176  1  0.45379698  0.43568250  0.25398731  1  -1.156318  0  -0.314438  -0.540589  0  2.347094  0
O  O177  1  0.77061160  0.46554970  0.90493191  1  -1.152845  0  -0.320163  -0.530375  0  2.254463  0
O  O178  1  0.79864199  0.54953366  0.00410313  1  -1.202612  0  -0.321994  -0.58101  0  2.223209  0
O  O179  1  0.55560583  0.54910227  0.23720444  1  -1.16923  0  -0.321413  -0.534912  0  2.138948  0
O  O180  1  0.76191775  0.77982423  0.69490166  1  -1.164739  0  -0.336225  -0.561945  0  2.272786  0
O  O181  1  0.65718878  0.68272176  0.65381870  1  -1.168822  0  -0.295229  -0.541322  0  2.30482  0
O  O182  1  0.50375973  0.43413169  0.62190503  1  -1.298343  0  -0.589849  -0.781193  0  2.098963  0
O  O183  1  0.89014592  0.56430911  0.75416298  1  -1.160748  0  -0.314088  -0.540149  0  2.346638  0
O  O184  1  0.23629046  0.53387552  0.40491078  1  -1.156908  0  -0.320133  -0.529871  0  2.254797  0
O  O185  1  0.34866878  0.45039266  0.50419665  1  -1.206836  0  -0.322093  -0.581389  0  2.223657  0
O  O186  1  0.10588438  0.45161363  0.73757785  1  -1.174466  0  -0.321278  -0.534574  0  2.139571  0
O  O187  1  0.45904778  0.77959551  0.80536795  1  -1.164494  0  -0.336306  -0.561995  0  2.274824  0
O  O188  1  0.66102149  0.68237870  0.84635681  1  -1.176535  0  -0.295451  -0.540828  0  2.305069  0
O  O189  1  0.06272246  0.43405133  0.87819004  1  -1.289073  0  -0.590412  -0.782533  0  2.09873  0
O  O190  1  0.54619801  0.56432944  0.74600840  1  -1.155956  0  -0.314366  -0.540538  0  2.347051  0
O  O191  1  0.22938058  0.53443825  0.09505628  1  -1.15295  0  -0.320234  -0.530306  0  2.254649  0
O  O192  1  0.20135315  0.45046125  0.99588438  1  -1.202849  0  -0.321895  -0.580829  0  2.223464  0
O  O193  1  0.44451405  0.45082993  0.76281302  1  -1.169136  0  -0.321348  -0.534855  0  2.138882  0
