# generated using pymatgen
data_Zn4H39C54N11O20
_symmetry_space_group_name_H-M   'P 1'
_cell_length_a   9.74129947
_cell_length_b   11.07161398
_cell_length_c   22.28547777
_cell_angle_alpha   89.72166578
_cell_angle_beta   88.93807792
_cell_angle_gamma   89.66129633
_symmetry_Int_Tables_number   1
_chemical_formula_structural   Zn4H39C54N11O20
_chemical_formula_sum   'Zn4 H39 C54 N11 O20'
_cell_volume   2403.04938826
_cell_formula_units_Z   1
loop_
 _symmetry_equiv_pos_site_id
 _symmetry_equiv_pos_as_xyz
  1  'x, y, z'
loop_
 _atom_site_type_symbol
 _atom_site_label
 _atom_site_symmetry_multiplicity
 _atom_site_fract_x
 _atom_site_fract_y
 _atom_site_fract_z
 _atom_site_occupancy
 _atom_site_pbe_bader_charge
 _atom_site_pbe_bader_spin_density
 _atom_site_pbe_cm5_charge
 _atom_site_pbe_ddec_charge
 _atom_site_pbe_ddec_spin_density
 _atom_site_pbe_ddec_sum_bond_order
 _atom_site_pbe_magmom
Zn  Zn0  1  0.64457620  0.50345796  0.49589263  1  1.275047  0  0.667323  0.818827  0  2.416152  0
Zn  Zn1  1  0.35861960  0.50017875  0.50096176  1  1.286712  0  0.668944  0.811727  0  2.431313  0
Zn  Zn2  1  0.35141767  0.51103829  0.99493155  1  1.271457  0  0.669338  0.825561  0  2.413509  0
Zn  Zn3  1  0.63844659  0.50522847  0.99678730  1  1.273087  0  0.670299  0.807833  0  2.442892  0
H  H4  1  0.14364735  0.36804674  0.43233856  1  0.110766  0  0.12975  0.118582  0  0.992092  0
H  H5  1  0.10728708  0.61182638  0.63117120  1  0.057643  0  0.104727  0.120606  0  0.978749  0
H  H6  1  0.12717282  0.73429383  0.57898799  1  0.093832  0  0.103169  0.120082  0  1.008664  0
H  H7  1  0.86880590  0.74476802  0.56842815  1  0.10096  0  0.108634  0.129064  0  0.973887  0
H  H8  1  0.84930843  0.62408141  0.62124497  1  0.106101  0  0.108203  0.133939  0  0.976896  0
H  H9  1  0.71372262  0.87862584  0.49873318  1  0.0866  0  0.098348  0.110261  0  1.022368  0
H  H10  1  0.17295490  0.90033999  0.45716637  1  0.028819  0  0.088515  0.094233  0  0.991608  0
H  H11  1  0.16907921  0.90640445  0.53727654  1  0.028216  0  0.087479  0.090081  0  1.016495  0
H  H12  1  0.18370475  0.13183069  0.53336003  1  0.072633  0  0.093669  0.106035  0  0.984394  0
H  H13  1  0.19089503  0.12705424  0.45329106  1  0.031871  0  0.086243  0.089818  0  1.001284  0
H  H14  1  0.68688869  0.33785646  0.86016148  1  0.150097  0  0.12264  0.146737  0  1.007175  0
H  H15  1  0.69075634  0.32765914  0.63666071  1  0.131889  0  0.12072  0.141959  0  0.999562  0
H  H16  1  0.34524584  0.62072029  0.68941080  1  0.092635  0  0.111873  0.113836  0  0.987399  0
H  H17  1  0.34125095  0.62472868  0.80163403  1  0.090831  0  0.1117  0.113102  0  0.994124  0
H  H18  1  0.27704664  0.49609536  0.19131744  1  0.034381  0  0.097249  0.107942  0  1.021972  0
H  H19  1  0.82349419  0.42087534  0.18924481  1  0.006782  0  0.083019  0.082538  0  1.007659  0
H  H20  1  0.81415508  0.58192180  0.18995080  1  0.039181  0  0.092438  0.101532  0  0.98625  0
H  H21  1  0.80954515  0.57729219  0.30338986  1  0.057318  0  0.093614  0.104387  0  0.981609  0
H  H22  1  0.81826475  0.41657599  0.30136856  1  0.039074  0  0.084984  0.086738  0  1.022924  0
H  H23  1  0.85642366  0.38424324  0.06810578  1  0.125563  0  0.129384  0.11578  0  0.993566  0
H  H24  1  0.87990147  0.60619555  0.86137474  1  0.069586  0  0.104254  0.12389  0  0.975261  0
H  H25  1  0.86589097  0.73348189  0.91028767  1  0.080562  0  0.104587  0.122075  0  0.99929  0
H  H26  1  0.12538981  0.74021013  0.91635797  1  0.059236  0  0.107838  0.128241  0  0.973907  0
H  H27  1  0.13845444  0.61220101  0.86788456  1  0.071267  0  0.10579  0.127376  0  0.990758  0
H  H28  1  0.27948075  0.88822122  0.99069753  1  0.062616  0  0.098093  0.111391  0  1.021402  0
H  H29  1  0.81601668  0.90006263  0.04039256  1  0.056102  0  0.088436  0.094635  0  0.992669  0
H  H30  1  0.82678402  0.90544035  0.96032171  1  0.034045  0  0.08667  0.089391  0  1.016049  0
H  H31  1  0.81520510  0.13118059  0.96255330  1  0.042856  0  0.086824  0.103003  0  1.020957  0
H  H32  1  0.80059554  0.12760417  0.04246795  1  0.037528  0  0.086231  0.09178  0  0.996993  0
H  H33  1  0.77159913  0.37768285  0.40559250  1  0.535918  0  0.313358  0.336566  0  0.960109  0
H  H34  1  0.92803391  0.30341311  0.38970417  1  0.464957  0  0.329799  0.324928  0  0.911267  0
H  H35  1  0.75741709  0.20025326  0.50906486  1  0.510754  0  0.288902  0.298435  0  1.004625  0
H  H36  1  0.83367691  0.06054853  0.51717490  1  0.436097  0  0.303188  0.302352  0  0.939918  0
H  H37  1  0.24406118  0.51865732  0.35162575  1  0.481397  0  0.28903  0.297581  0  1.014418  0
H  H38  1  0.16101068  0.52220107  0.28338503  1  0.416693  0  0.302393  0.297767  0  0.947072  0
H  H39  1  0.22961619  0.39437443  0.09134678  1  0.528641  0  0.307859  0.333692  0  0.975079  0
H  H40  1  0.07375479  0.32257937  0.11079322  1  0.463804  0  0.327448  0.323024  0  0.917328  0
H  H41  1  0.23841098  0.21204033  0.98034558  1  0.464864  0  0.2926  0.306528  0  0.998312  0
H  H42  1  0.15942322  0.07209619  0.97351531  1  0.426196  0  0.3062  0.303893  0  0.942937  0
C  C43  1  0.49219396  0.73590128  0.49817858  1  1.502152  0  0.216407  0.599956  0  4.164237  0
C  C44  1  0.50848515  0.49642973  0.61613966  1  1.574361  0  0.217416  0.592562  0  4.19289  0
C  C45  1  0.50568741  0.26516262  0.49800181  1  1.449076  0  0.212054  0.608102  0  4.159068  0
C  C46  1  0.49674809  0.49466700  0.37861825  1  1.491983  0  0.215616  0.613424  0  4.14753  0
C  C47  1  0.49942654  0.74201909  0.99634183  1  1.506477  0  0.21626  0.599445  0  4.164514  0
C  C48  1  0.49718796  0.50660864  0.87771225  1  1.58801  0  0.216946  0.591615  0  4.185906  0
C  C49  1  0.49133259  0.27107809  0.99369542  1  1.454984  0  0.208765  0.602273  0  4.172151  0
C  C50  1  0.49845259  0.49668882  0.11512867  1  1.50634  0  0.22008  0.604002  0  4.161744  0
C  C51  1  0.06884177  0.56127749  0.53729780  1  0.561303  0  0.110591  0.138699  0  3.913737  0
C  C52  1  0.93555244  0.42909953  0.45650984  1  1.014729  0  0.243054  0.409857  0  4.056261  0
C  C53  1  0.92762337  0.56576897  0.53228537  1  0.493324  0  0.134568  0.207384  0  3.918259  0
C  C54  1  0.08146243  0.42545754  0.46191059  1  0.51963  0  0.049995  -0.072002  0  3.833397  0
C  C55  1  0.07211948  0.65001598  0.58852166  1  -0.0336  0  -0.141257  -0.21768  0  3.841946  0
C  C56  1  0.90956474  0.65652969  0.58239739  1  -0.060599  0  -0.138447  -0.221642  0  3.816659  0
C  C57  1  0.49415293  0.87066261  0.49820482  1  -0.031695  0  -0.016741  -0.053401  0  4.018773  0
C  C58  1  0.50690554  0.13178094  0.49705256  1  0.103563  0  -0.03127  -0.205065  0  3.933381  0
C  C59  1  0.37529932  0.94232183  0.49710713  1  0.033252  0  -0.025709  0.017545  0  3.919307  0
C  C60  1  0.62946857  0.05944094  0.49899169  1  0.405143  0  0.105589  0.30184  0  4.054395  0
C  C61  1  0.38375385  0.06761336  0.49577786  1  -0.099087  0  -0.008445  0.079007  0  3.928  0
C  C62  1  0.61925389  0.93206222  0.49882276  1  0.005252  0  -0.103473  -0.228221  0  3.945541  0
C  C63  1  0.21954715  0.94227056  0.49645558  1  0.002658  0  -0.156964  -0.192095  0  3.9069  0
C  C64  1  0.22934292  0.08471956  0.49447527  1  -0.01313  0  -0.156459  -0.195841  0  3.897041  0
C  C65  1  0.50336175  0.49608534  0.81053743  1  -0.039518  0  -0.001281  -0.057389  0  3.906548  0
C  C66  1  0.59759908  0.41709639  0.78011542  1  0.056522  0  0.010835  0.073872  0  3.931605  0
C  C67  1  0.41350402  0.56619044  0.77754251  1  -0.037831  0  -0.071079  -0.078262  0  3.977193  0
C  C68  1  0.68716105  0.33796231  0.81135561  1  0.034897  0  -0.064821  -0.143022  0  3.901422  0
C  C69  1  0.77249489  0.25948024  0.78081416  1  0.223259  0  0.080992  0.02383  0  3.955562  0
C  C70  1  0.50773964  0.49070932  0.68345224  1  0.02995  0  0.000829  -0.048373  0  3.912241  0
C  C71  1  0.41570873  0.56388694  0.71462473  1  0.010989  0  -0.073593  -0.085727  0  3.978664  0
C  C72  1  0.59855909  0.41356707  0.71557953  1  -0.029225  0  0.009149  0.067477  0  3.940461  0
C  C73  1  0.68730971  0.33047341  0.68549657  1  0.031468  0  -0.064825  -0.139137  0  3.897574  0
C  C74  1  0.77252963  0.25539126  0.71723590  1  0.253504  0  0.080568  0.022977  0  3.954813  0
C  C75  1  0.49667564  0.49394582  0.18211185  1  0.062757  0  -0.015648  -0.051092  0  4.019381  0
C  C76  1  0.49308381  0.49178061  0.31220401  1  0.052432  0  -0.030178  -0.200932  0  3.92336  0
C  C77  1  0.61742210  0.49354949  0.21500186  1  -0.012397  0  -0.024493  0.02439  0  3.923944  0
C  C78  1  0.36819634  0.49384313  0.27896403  1  0.399147  0  0.104095  0.298516  0  4.053262  0
C  C79  1  0.61409497  0.49162085  0.27739030  1  -0.05144  0  -0.010344  0.071535  0  3.926541  0
C  C80  1  0.37356783  0.49372056  0.21546615  1  0.017354  0  -0.105727  -0.232379  0  3.946505  0
C  C81  1  0.77255724  0.49912550  0.21051613  1  0.049174  0  -0.157411  -0.19093  0  3.913267  0
C  C82  1  0.76941143  0.49646694  0.28143827  1  -0.079342  0  -0.158485  -0.19945  0  3.9019  0
C  C83  1  0.92515969  0.56356370  0.95605474  1  0.523049  0  0.112408  0.139922  0  3.909977  0
C  C84  1  0.06316592  0.44019321  0.03992591  1  0.961434  0  0.243253  0.411907  0  4.055577  0
C  C85  1  0.06652645  0.56713684  0.95949793  1  0.562887  0  0.135124  0.208394  0  3.917274  0
C  C86  1  0.91713512  0.43676771  0.03585054  1  0.564161  0  0.053775  -0.066057  0  3.837355  0
C  C87  1  0.91903809  0.64720681  0.90236100  1  -0.053152  0  -0.140872  -0.216241  0  3.83998  0
C  C88  1  0.08202878  0.65144495  0.90621011  1  0.015504  0  -0.139834  -0.225228  0  3.827745  0
C  C89  1  0.49855753  0.87664970  0.99471261  1  0.058817  0  -0.017176  -0.051847  0  4.023337  0
C  C90  1  0.48884518  0.13776220  0.99403386  1  0.051432  0  -0.034953  -0.21154  0  3.940045  0
C  C91  1  0.61807897  0.94590150  0.99687217  1  -0.067657  0  -0.026699  0.016494  0  3.921538  0
C  C92  1  0.36556916  0.06775765  0.99070579  1  0.487084  0  0.104844  0.302076  0  4.069494  0
C  C93  1  0.61109603  0.07132656  0.99713622  1  -0.002507  0  -0.01071  0.079132  0  3.930039  0
C  C94  1  0.37427383  0.94015351  0.99164395  1  -0.064033  0  -0.106753  -0.237394  0  3.954756  0
C  C95  1  0.77348051  0.94274973  0.00009691  1  -0.036435  0  -0.1572  -0.190301  0  3.906729  0
C  C96  1  0.76538832  0.08544144  0.00096044  1  0.00997  0  -0.160398  -0.201051  0  3.892782  0
N  N97  1  0.14841465  0.49198662  0.50186674  1  -1.224525  0  -0.296659  -0.163675  0  3.551355  0
N  N98  1  0.85630907  0.50206771  0.49298840  1  -1.20677  0  -0.311988  -0.313272  0  3.396615  0
N  N99  1  0.84792231  0.49867514  0.99438521  1  -1.213064  0  -0.297438  -0.160641  0  3.553493  0
N  N100  1  0.14021188  0.50765047  0.00011411  1  -1.204728  0  -0.312233  -0.312361  0  3.392471  0
N  N101  1  0.87256768  0.36137018  0.41542784  1  -1.285984  0  -0.562402  -0.614576  0  3.357493  0
N  N102  1  0.75790286  0.11072284  0.49868031  1  -1.258712  0  -0.605932  -0.626913  0  3.334218  0
N  N103  1  0.24150660  0.49284524  0.30776464  1  -1.241384  0  -0.606973  -0.635398  0  3.33035  0
N  N104  1  0.12787565  0.37795965  0.08322220  1  -1.291461  0  -0.565438  -0.620336  0  3.340998  0
N  N105  1  0.23834429  0.12160038  0.98882505  1  -1.23057  0  -0.601168  -0.626922  0  3.342906  0
N  N106  1  0.85080136  0.17189321  0.81670297  1  0.393941  0  0.059397  0.524293  0  4.225126  0
N  N107  1  0.87234623  0.18159778  0.68303559  1  0.390346  0  0.056438  0.520553  0  4.233483  0
O  O108  1  0.60700586  0.68155389  0.48947203  1  -1.166338  0  -0.321743  -0.550736  0  2.343676  0
O  O109  1  0.37662330  0.68465526  0.50667781  1  -1.151742  0  -0.311757  -0.533236  0  2.299886  0
O  O110  1  0.39220250  0.48758049  0.59178090  1  -1.149461  0  -0.311715  -0.535177  0  2.307949  0
O  O111  1  0.62393070  0.51193406  0.58976994  1  -1.169853  0  -0.309293  -0.545874  0  2.323499  0
O  O112  1  0.39082495  0.31857268  0.49050371  1  -1.164322  0  -0.315637  -0.543201  0  2.327514  0
O  O113  1  0.61929320  0.32077366  0.50681177  1  -1.168435  0  -0.318947  -0.560174  0  2.364775  0
O  O114  1  0.61268214  0.47600416  0.40357739  1  -1.175196  0  -0.314944  -0.562153  0  2.327746  0
O  O115  1  0.38540091  0.51712216  0.40799753  1  -1.170966  0  -0.310001  -0.545821  0  2.340973  0
O  O116  1  0.38307027  0.68948296  0.00053513  1  -1.167504  0  -0.322928  -0.551689  0  2.344543  0
O  O117  1  0.61588094  0.68921818  0.99365133  1  -1.153805  0  -0.310421  -0.530294  0  2.304053  0
O  O118  1  0.61079393  0.50047605  0.90483113  1  -1.151475  0  -0.3073  -0.54018  0  2.351044  0
O  O119  1  0.37902752  0.52207968  0.90152555  1  -1.165127  0  -0.31056  -0.540471  0  2.30635  0
O  O120  1  0.60731743  0.32218727  0.99977396  1  -1.161006  0  -0.31706  -0.544007  0  2.327114  0
O  O121  1  0.37746115  0.32880171  0.98698794  1  -1.17374  0  -0.318776  -0.55669  0  2.371041  0
O  O122  1  0.38397473  0.48713820  0.08824866  1  -1.18993  0  -0.316432  -0.57093  0  2.355259  0
O  O123  1  0.61483220  0.50902753  0.08928273  1  -1.150872  0  -0.306086  -0.527578  0  2.308696  0
O  O124  1  0.90699247  0.21005935  0.86227946  1  -0.457331  0  -0.131992  -0.333312  0  1.888134  0
O  O125  1  0.85059315  0.06542621  0.79991623  1  -0.437261  0  -0.137086  -0.329347  0  1.867068  0
O  O126  1  0.83249955  0.13376204  0.63628761  1  -0.451454  0  -0.138792  -0.341096  0  1.902903  0
O  O127  1  0.99072794  0.17624875  0.70230042  1  -0.442267  0  -0.137867  -0.330468  0  1.873634  0
