# generated using pymatgen
data_SnH13C9NO2
_symmetry_space_group_name_H-M   'P 1'
_cell_length_a   7.01458811
_cell_length_b   12.26862533
_cell_length_c   14.29155430
_cell_angle_alpha   86.10820108
_cell_angle_beta   76.26574082
_cell_angle_gamma   73.38884013
_symmetry_Int_Tables_number   1
_chemical_formula_structural   SnH13C9NO2
_chemical_formula_sum   'Sn4 H52 C36 N4 O8'
_cell_volume   1144.89434872
_cell_formula_units_Z   4
loop_
 _symmetry_equiv_pos_site_id
 _symmetry_equiv_pos_as_xyz
  1  'x, y, z'
loop_
 _atom_site_type_symbol
 _atom_site_label
 _atom_site_symmetry_multiplicity
 _atom_site_fract_x
 _atom_site_fract_y
 _atom_site_fract_z
 _atom_site_occupancy
 _atom_site_hle17_bader_spin_density
 _atom_site_hle17_ddec_charge
 _atom_site_hle17_ddec_spin_density
 _atom_site_hle17_ddec_sum_bond_order
 _atom_site_hle17_magmom
 _atom_site_hse06_10hf_bader_spin_density
 _atom_site_hse06_10hf_ddec_charge
 _atom_site_hse06_10hf_ddec_spin_density
 _atom_site_hse06_10hf_ddec_sum_bond_order
 _atom_site_hse06_10hf_magmom
 _atom_site_hse06_bader_spin_density
 _atom_site_hse06_ddec_charge
 _atom_site_hse06_ddec_spin_density
 _atom_site_hse06_ddec_sum_bond_order
 _atom_site_hse06_magmom
 _atom_site_pbe_bader_charge
 _atom_site_pbe_bader_spin_density
 _atom_site_pbe_cm5_charge
 _atom_site_pbe_ddec_charge
 _atom_site_pbe_ddec_spin_density
 _atom_site_pbe_ddec_sum_bond_order
 _atom_site_pbe_magmom
Sn  Sn0  1  0.27856986  0.77286769  0.41312538  1  0  1.28565  0  2.945395  0  0  1.148694  0  3.427057  0  0  1.184433  0  3.417275  0  1.664836  0  0.51471  1.124184  0  3.433343  0
Sn  Sn1  1  0.46375727  0.22740724  0.58641028  1  0  1.286575  0  2.933527  0  0  1.149976  0  3.413937  0  0  1.185903  0  3.403985  0  1.661375  0  0.514175  1.125199  0  3.420419  0
Sn  Sn2  1  0.80154494  0.72700501  0.91311374  1  0  1.284551  0  2.946627  0  0  1.147626  0  3.428031  0  0  1.183379  0  3.418263  0  1.665392  0  0.5143  1.123109  0  3.434289  0
Sn  Sn3  1  0.44139726  0.27283953  0.08670625  1  0  1.286144  0  2.935088  0  0  1.149674  0  3.415647  0  0  1.185573  0  3.405762  0  1.662728  0  0.514123  1.124939  0  3.422075  0
H  H4  1  0.57248989  0.48454837  0.59840385  1  0  0.115503  0  0.96166  0  0  0.120405  0  1.030889  0  0  0.124084  0  1.027475  0  0.151123  0  0.113457  0.117696  0  1.033337  0
H  H5  1  0.65716424  0.51446940  0.40029905  1  0  0.114751  0  0.962088  0  0  0.120272  0  1.030875  0  0  0.123962  0  1.027402  0  0.15479  0  0.112959  0.117562  0  1.033363  0
H  H6  1  0.80757373  0.01543471  0.09831536  1  0  0.113898  0  0.962146  0  0  0.119426  0  1.03095  0  0  0.12315  0  1.027457  0  0.163409  0  0.112438  0.116698  0  1.033432  0
H  H7  1  0.92152218  0.98579628  0.90074288  1  0  0.115438  0  0.961937  0  0  0.120866  0  1.030749  0  0  0.124558  0  1.027304  0  0.143351  0  0.113458  0.118141  0  1.033221  0
H  H8  1  0.65313433  0.77812601  0.71372511  1  0  0.084269  0  0.957221  0  0  0.09127  0  1.025569  0  0  0.094391  0  1.022421  0  0.108552  0  0.1202  0.089011  0  1.027779  0
H  H9  1  0.14443887  0.22012368  0.28751561  1  0  0.081662  0  0.957914  0  0  0.088913  0  1.026308  0  0  0.091845  0  1.023386  0  0.109441  0  0.119989  0.086753  0  1.02843  0
H  H10  1  0.18140017  0.72175605  0.21373445  1  0  0.082773  0  0.959461  0  0  0.089859  0  1.027698  0  0  0.092975  0  1.024549  0  0.119082  0  0.120174  0.087604  0  1.029906  0
H  H11  1  0.11451704  0.27999039  0.78739858  1  0  0.082402  0  0.957157  0  0  0.089521  0  1.025576  0  0  0.092488  0  1.022588  0  0.102463  0  0.119507  0.087358  0  1.0277  0
H  H12  1  0.66019867  0.37679885  0.74678402  1  0  0.094176  0  0.976543  0  0  0.106361  0  1.034271  0  0  0.109056  0  1.034537  0  0.070015  0  0.106809  0.104418  0  1.034323  0
H  H13  1  0.78651547  0.62193143  0.25297691  1  0  0.092907  0  0.976931  0  0  0.104899  0  1.034824  0  0  0.107648  0  1.035023  0  0.07878  0  0.106423  0.102902  0  1.034936  0
H  H14  1  0.78730159  0.12310939  0.24677132  1  0  0.093254  0  0.976785  0  0  0.105465  0  1.034414  0  0  0.108128  0  1.034772  0  0.076656  0  0.107094  0.103512  0  1.03446  0
H  H15  1  0.15726529  0.87823558  0.75321900  1  0  0.093155  0  0.97524  0  0  0.105138  0  1.033262  0  0  0.10794  0  1.033359  0  0.077261  0  0.106745  0.103123  0  1.033418  0
H  H16  1  0.45405445  0.91332986  0.28647499  1  0  0.148542  0  1.002438  0  0  0.166261  0  1.059965  0  0  0.168804  0  1.061028  0  0.030582  0  0.079836  0.164452  0  1.059256  0
H  H17  1  0.65464316  0.08613447  0.71301925  1  0  0.150239  0  1.000242  0  0  0.167873  0  1.057713  0  0  0.17043  0  1.058745  0  0.033323  0  0.080854  0.166015  0  1.057075  0
H  H18  1  0.11727149  0.58662025  0.78645809  1  0  0.149547  0  1.00024  0  0  0.167327  0  1.057749  0  0  0.169878  0  1.058787  0  0.029717  0  0.080243  0.165494  0  1.05708  0
H  H19  1  0.49136816  0.41387584  0.21341008  1  0  0.149379  0  1.000498  0  0  0.167268  0  1.057928  0  0  0.169834  0  1.058943  0  0.022559  0  0.080474  0.165411  0  1.057293  0
H  H20  1  0.64240556  0.78183711  0.29262845  1  0  0.138145  0  1.020141  0  0  0.153195  0  1.084812  0  0  0.155638  0  1.085687  0  0.030532  0  0.075264  0.151459  0  1.084265  0
H  H21  1  0.71914840  0.21700289  0.70776575  1  0  0.137898  0  1.021654  0  0  0.152914  0  1.086358  0  0  0.155346  0  1.087286  0  0.023332  0  0.075426  0.151181  0  1.085771  0
H  H22  1  0.17455394  0.71799137  0.79260774  1  0  0.137972  0  1.019763  0  0  0.153066  0  1.084452  0  0  0.155495  0  1.085355  0  0.017116  0  0.076193  0.15133  0  1.083894  0
H  H23  1  0.68668370  0.28293682  0.20792883  1  0  0.138256  0  1.021384  0  0  0.153475  0  1.08578  0  0  0.1559  0  1.086722  0  0.025561  0  0.076129  0.151749  0  1.085186  0
H  H24  1  0.56954060  0.88150438  0.38846912  1  0  0.160131  0  1.006256  0  0  0.175105  0  1.066572  0  0  0.178367  0  1.066616  0  0.08027  0  0.083609  0.172757  0  1.066643  0
H  H25  1  0.83838136  0.11780599  0.61161614  1  0  0.161069  0  1.005188  0  0  0.175956  0  1.065638  0  0  0.179258  0  1.065632  0  0.096352  0  0.084606  0.173572  0  1.065742  0
H  H26  1  0.20102575  0.61833175  0.88844065  1  0  0.160238  0  1.006271  0  0  0.175465  0  1.066429  0  0  0.178736  0  1.066458  0  0.076578  0  0.08408  0.173096  0  1.066523  0
H  H27  1  0.70662111  0.38235146  0.11191338  1  0  0.160588  0  1.00556  0  0  0.175479  0  1.066042  0  0  0.178807  0  1.066017  0  0.058647  0  0.083923  0.173079  0  1.066162  0
H  H28  1  0.74012387  0.47634534  0.87132088  1  0  0.096086  0  0.970792  0  0  0.103683  0  1.036711  0  0  0.106685  0  1.033746  0  0.15931  0  0.121467  0.101464  0  1.038865  0
H  H29  1  0.08923171  0.52196475  0.13013107  1  0  0.097512  0  0.965274  0  0  0.104472  0  1.032032  0  0  0.107579  0  1.028943  0  0.158201  0  0.121865  0.102174  0  1.034303  0
H  H30  1  0.96613590  0.02344212  0.37147557  1  0  0.096881  0  0.969418  0  0  0.104278  0  1.035425  0  0  0.10731  0  1.032389  0  0.166285  0  0.121793  0.102053  0  1.037611  0
H  H31  1  0.35987128  0.97799642  0.63011544  1  0  0.095856  0  0.967215  0  0  0.103785  0  1.032825  0  0  0.106809  0  1.029851  0  0.179331  0  0.121866  0.101577  0  1.034957  0
H  H32  1  0.08212393  0.62589515  0.37093900  1  0  0.148655  0  0.997647  0  0  0.166746  0  1.054572  0  0  0.16888  0  1.056368  0  0.030305  0  0.081718  0.165215  0  1.053358  0
H  H33  1  0.08024209  0.37435512  0.62721499  1  0  0.148094  0  0.998097  0  0  0.166175  0  1.054754  0  0  0.168321  0  1.056549  0  0.042745  0  0.081139  0.164627  0  1.053533  0
H  H34  1  0.45814485  0.87382190  0.87087040  1  0  0.147494  0  0.998958  0  0  0.16542  0  1.0561  0  0  0.167547  0  1.05791  0  0.037432  0  0.080608  0.163899  0  1.054857  0
H  H35  1  0.20533330  0.12563392  0.12720280  1  0  0.147989  0  0.998354  0  0  0.166019  0  1.055032  0  0  0.168185  0  1.056801  0  0.045805  0  0.081215  0.16446  0  1.053834  0
H  H36  1  0.28380596  0.55162719  0.42778479  1  0  0.162039  0  0.988497  0  0  0.181398  0  1.043045  0  0  0.184933  0  1.04191  0  0.051267  0  0.087883  0.178832  0  1.043926  0
H  H37  1  0.26283656  0.44900329  0.57140661  1  0  0.162189  0  0.98845  0  0  0.181096  0  1.043309  0  0  0.184623  0  1.042198  0  0.06418  0  0.087578  0.178539  0  1.044164  0
H  H38  1  0.58509509  0.94827699  0.92777851  1  0  0.161044  0  0.989678  0  0  0.180242  0  1.044373  0  0  0.183778  0  1.04326  0  0.043108  0  0.086978  0.177661  0  1.045267  0
H  H39  1  0.46270763  0.05112525  0.07157310  1  0  0.161454  0  0.989155  0  0  0.18067  0  1.043731  0  0  0.1842  0  1.042633  0  0.071008  0  0.087742  0.178112  0  1.044573  0
H  H40  1  0.34003586  0.58390944  0.30263402  1  0  0.141918  0  1.00547  0  0  0.160164  0  1.065308  0  0  0.162467  0  1.066216  0  0.021615  0  0.080396  0.158507  0  1.064731  0
H  H41  1  0.22850262  0.41620559  0.69657823  1  0  0.141985  0  1.005235  0  0  0.159464  0  1.066039  0  0  0.161777  0  1.066962  0  0.018999  0  0.079794  0.1578  0  1.065444  0
H  H42  1  0.67388464  0.91605769  0.80260763  1  0  0.142224  0  1.00484  0  0  0.160063  0  1.06515  0  0  0.162377  0  1.066046  0  0.019637  0  0.080245  0.158399  0  1.064581  0
H  H43  1  0.39507401  0.08398929  0.19673912  1  0  0.141774  0  1.005052  0  0  0.159581  0  1.065577  0  0  0.161893  0  1.066511  0  0.023866  0  0.080266  0.157921  0  1.064966  0
H  H44  1  0.89297361  0.86583321  0.51962991  1  0  0.162857  0  0.991587  0  0  0.178839  0  1.050557  0  0  0.182083  0  1.050516  0  0.063605  0  0.084403  0.176524  0  1.050645  0
H  H45  1  0.27577722  0.13319052  0.47985946  1  0  0.164305  0  0.992068  0  0  0.180247  0  1.051108  0  0  0.183547  0  1.051021  0  0.090502  0  0.085157  0.177893  0  1.051224  0
H  H46  1  0.50924680  0.63387023  0.01963321  1  0  0.164435  0  0.989524  0  0  0.18058  0  1.048253  0  0  0.183802  0  1.048226  0  0.081846  0  0.085401  0.178283  0  1.048329  0
H  H47  1  0.16039091  0.36713961  0.97957713  1  0  0.164619  0  0.99184  0  0  0.180591  0  1.050782  0  0  0.183891  0  1.050683  0  0.073738  0  0.085572  0.178237  0  1.050909  0
H  H48  1  0.05348514  0.95204933  0.53216538  1  0  0.156766  0  0.993939  0  0  0.175424  0  1.050511  0  0  0.177988  0  1.051311  0  0.041844  0  0.0864  0.173581  0  1.050028  0
H  H49  1  0.53455801  0.04706541  0.46859644  1  0  0.15666  0  0.994086  0  0  0.17548  0  1.050164  0  0  0.178081  0  1.050925  0  0.046295  0  0.087023  0.173616  0  1.049707  0
H  H50  1  0.75610733  0.54776384  0.03208671  1  0  0.15643  0  0.994571  0  0  0.17505  0  1.051047  0  0  0.177613  0  1.051852  0  0.050762  0  0.086456  0.173208  0  1.050566  0
H  H51  1  0.33326804  0.45306058  0.96852328  1  0  0.157157  0  0.993946  0  0  0.175542  0  1.050523  0  0  0.178141  0  1.051284  0  0.050057  0  0.086826  0.17368  0  1.050065  0
H  H52  1  0.06745446  0.82124130  0.59696592  1  0  0.147419  0  0.990978  0  0  0.166427  0  1.046672  0  0  0.169118  0  1.047276  0  0.045603  0  0.082515  0.164519  0  1.04628  0
H  H53  1  0.48146559  0.17736053  0.40304258  1  0  0.149439  0  0.988474  0  0  0.168205  0  1.044446  0  0  0.170912  0  1.045035  0  0.048701  0  0.083806  0.166286  0  1.04406  0
H  H54  1  0.63908398  0.67853954  0.09689945  1  0  0.148424  0  0.989427  0  0  0.167607  0  1.0449  0  0  0.170293  0  1.0455  0  0.038694  0  0.083423  0.165702  0  1.044512  0
H  H55  1  0.41057995  0.32259193  0.90314440  1  0  0.148995  0  0.988194  0  0  0.167758  0  1.044126  0  0  0.170441  0  1.044752  0  0.001847  0  0.083081  0.16585  0  1.043726  0
C  C56  1  0.60759276  0.52541302  0.65502415  1  0  -0.000687  0  3.659916  0  0  -0.030578  0  3.906898  0  0  -0.024061  0  3.922669  0  -0.018568  0  -0.053488  -0.034383  0  3.89607  0
C  C57  1  0.78937862  0.47331130  0.34447849  1  0  0.001225  0  3.65713  0  0  -0.02922  0  3.904671  0  0  -0.022725  0  3.920478  0  -0.02856  0  -0.052928  -0.033028  0  3.893829  0
C  C58  1  0.88329712  0.97449031  0.15500653  1  0  -0.000165  0  3.66043  0  0  -0.030537  0  3.907667  0  0  -0.024038  0  3.923452  0  -0.018772  0  -0.05253  -0.034348  0  3.896831  0
C  C59  1  0.01245579  0.02688443  0.84476890  1  0  -0.001119  0  3.662078  0  0  -0.031652  0  3.909096  0  0  -0.025197  0  3.92499  0  -0.078204  0  -0.053199  -0.035394  0  3.898184  0
C  C60  1  0.65333719  0.68908850  0.71955529  1  0  0.113143  0  3.697482  0  0  0.072477  0  3.94084  0  0  0.080863  0  3.958261  0  0.482408  0  0.060297  0.067256  0  3.928986  0
C  C61  1  0.06208805  0.30926582  0.28133188  1  0  0.11799  0  3.694402  0  0  0.077159  0  3.938883  0  0  0.085723  0  3.956331  0  0.498134  0  0.059639  0.071814  0  3.927012  0
C  C62  1  0.09267200  0.81079867  0.21957196  1  0  0.111991  0  3.699638  0  0  0.071626  0  3.942892  0  0  0.080024  0  3.960323  0  0.475211  0  0.058036  0.066383  0  3.931037  0
C  C63  1  0.12115847  0.19083890  0.78131639  1  0  0.11557  0  3.695475  0  0  0.075148  0  3.939183  0  0  0.083659  0  3.95666  0  0.499357  0  0.060154  0.069843  0  3.927317  0
C  C64  1  0.65664055  0.46597075  0.73657187  1  0  -0.116558  0  3.734578  0  0  -0.126718  0  3.988584  0  0  -0.135362  0  4.010204  0  -0.079531  0  -0.076981  -0.121327  0  3.974064  0
C  C65  1  0.86104764  0.53265745  0.26350190  1  0  -0.114744  0  3.734434  0  0  -0.124441  0  3.988144  0  0  -0.133067  0  4.009726  0  -0.050489  0  -0.076503  -0.119036  0  3.973645  0
C  C66  1  0.87283815  0.03388645  0.23658531  1  0  -0.114751  0  3.736146  0  0  -0.124929  0  3.990367  0  0  -0.133565  0  4.012038  0  -0.072606  0  -0.077077  -0.119527  0  3.975852  0
C  C67  1  0.14290659  0.96750020  0.76370736  1  0  -0.112488  0  3.734119  0  0  -0.122293  0  3.987881  0  0  -0.130928  0  4.009507  0  -0.002737  0  -0.076249  -0.116893  0  3.973355  0
C  C68  1  0.53619654  0.71508747  0.56599151  1  0  0.634644  0  3.945999  0  0  0.586436  0  4.237022  0  0  0.620572  0  4.2298  0  1.602013  0  0.214942  0.563455  0  4.241144  0
C  C69  1  0.81669433  0.28399409  0.43374714  1  0  0.634152  0  3.945441  0  0  0.585683  0  4.23764  0  0  0.619862  0  4.230422  0  1.61231  0  0.214425  0.562648  0  4.241767  0
C  C70  1  0.00117587  0.78480650  0.06608521  1  0  0.633028  0  3.950343  0  0  0.584736  0  4.241909  0  0  0.618898  0  4.23471  0  1.610256  0  0.212786  0.561723  0  4.246029  0
C  C71  1  0.85154271  0.21628074  0.93403927  1  0  0.634741  0  3.944401  0  0  0.586418  0  4.236053  0  0  0.62057  0  4.228893  0  1.592806  0  0.213823  0.563415  0  4.240145  0
C  C72  1  0.60387932  0.64023006  0.64670103  1  0  -0.109914  0  3.748796  0  0  -0.082839  0  3.981437  0  0  -0.095621  0  4.00471  0  0.005753  0  -0.01032  -0.074963  0  3.966029  0
C  C73  1  0.89111263  0.35835902  0.35328767  1  0  -0.110454  0  3.74071  0  0  -0.084012  0  3.975205  0  0  -0.096819  0  3.998482  0  -0.063657  0  -0.010234  -0.076087  0  3.959769  0
C  C74  1  0.99430658  0.85965541  0.14671430  1  0  -0.106315  0  3.74697  0  0  -0.079911  0  3.980383  0  0  -0.092706  0  4.003715  0  -0.003594  0  -0.007979  -0.071996  0  3.964913  0
C  C75  1  0.99956996  0.14182565  0.85346151  1  0  -0.110755  0  3.744255  0  0  -0.083422  0  3.976887  0  0  -0.096218  0  4.00022  0  -0.002066  0  -0.010447  -0.075561  0  3.961499  0
C  C76  1  0.51465389  0.84640840  0.33498617  1  0  -0.701614  0  3.529122  0  0  -0.740867  0  3.762977  0  0  -0.75467  0  3.770187  0  -0.458097  0  -0.339451  -0.731282  0  3.758005  0
C  C77  1  0.69646406  0.15306018  0.66492684  1  0  -0.701465  0  3.52789  0  0  -0.740667  0  3.761851  0  0  -0.754497  0  3.769017  0  -0.468072  0  -0.339517  -0.730985  0  3.75696  0
C  C78  1  0.11106690  0.65351109  0.83495259  1  0  -0.701742  0  3.528128  0  0  -0.741351  0  3.761936  0  0  -0.755179  0  3.76913  0  -0.440932  0  -0.340772  -0.731719  0  3.757016  0
C  C79  1  0.60003976  0.34701732  0.16519261  1  0  -0.701529  0  3.528597  0  0  -0.741216  0  3.762164  0  0  -0.75509  0  3.769273  0  -0.423752  0  -0.339943  -0.731514  0  3.757311  0
C  C80  1  0.70070665  0.52154201  0.80706516  1  0  0.129075  0  3.675533  0  0  0.092638  0  3.928761  0  0  0.101073  0  3.945031  0  0.466711  0  0.059324  0.087379  0  3.917607  0
C  C81  1  0.03061752  0.47683442  0.19394603  1  0  0.127981  0  3.676838  0  0  0.092403  0  3.929656  0  0  0.100705  0  3.946028  0  0.497859  0  0.059041  0.087228  0  3.918448  0
C  C82  1  0.97206226  0.97826690  0.30717321  1  0  0.128623  0  3.675214  0  0  0.092503  0  3.928149  0  0  0.100943  0  3.944405  0  0.451621  0  0.059196  0.087222  0  3.917014  0
C  C83  1  0.25640511  0.02324733  0.69397137  1  0  0.129167  0  3.676429  0  0  0.093206  0  3.929286  0  0  0.10153  0  3.945726  0  0.434177  0  0.059099  0.087996  0  3.918043  0
C  C84  1  0.24178125  0.61487667  0.37294672  1  0  -0.7145  0  3.532355  0  0  -0.753233  0  3.761106  0  0  -0.766684  0  3.767915  0  -0.438092  0  -0.342352  -0.743894  0  3.756383  0
C  C85  1  0.23036485  0.38558114  0.62594218  1  0  -0.711842  0  3.532281  0  0  -0.749479  0  3.761521  0  0  -0.762928  0  3.768345  0  -0.458137  0  -0.33928  -0.740092  0  3.756776  0
C  C86  1  0.60664144  0.88500113  0.87290757  1  0  -0.712312  0  3.533084  0  0  -0.750306  0  3.761891  0  0  -0.76378  0  3.768805  0  -0.435137  0  -0.340107  -0.740936  0  3.757093  0
C  C87  1  0.36656743  0.11456356  0.12605521  1  0  -0.710526  0  3.533197  0  0  -0.748749  0  3.762103  0  0  -0.762207  0  3.768907  0  -0.472169  0  -0.339734  -0.739364  0  3.757384  0
C  C88  1  0.04411677  0.86474956  0.52930995  1  0  -0.704733  0  3.517503  0  0  -0.741201  0  3.743734  0  0  -0.754922  0  3.750659  0  -0.458534  0  -0.333742  -0.731668  0  3.738969  0
C  C89  1  0.43504456  0.13425630  0.47076967  1  0  -0.707243  0  3.515199  0  0  -0.743818  0  3.741593  0  0  -0.757645  0  3.748391  0  -0.49099  0  -0.33623  -0.734198  0  3.736917  0
C  C90  1  0.65928066  0.63501257  0.02925620  1  0  -0.706828  0  3.515702  0  0  -0.743694  0  3.742261  0  0  -0.75739  0  3.749171  0  -0.478692  0  -0.335834  -0.734194  0  3.73751  0
C  C91  1  0.32071001  0.36590116  0.97073799  1  0  -0.707133  0  3.514814  0  0  -0.743192  0  3.741337  0  0  -0.756994  0  3.748202  0  -0.43116  0  -0.335169  -0.733583  0  3.736632  0
N  N92  1  0.69938942  0.63168848  0.79817576  1  0  -0.330296  0  3.276425  0  0  -0.246241  0  3.519992  0  0  -0.264527  0  3.541178  0  -1.282492  0  -0.293152  -0.234025  0  3.505347  0
N  N93  1  0.12985189  0.36653739  0.20315558  1  0  -0.334629  0  3.270185  0  0  -0.251012  0  3.514128  0  0  -0.269355  0  3.535233  0  -1.288325  0  -0.292864  -0.238731  0  3.499556  0
N  N94  1  0.08104224  0.86815445  0.29825931  1  0  -0.330473  0  3.277671  0  0  -0.246559  0  3.521253  0  0  -0.264861  0  3.542448  0  -1.294596  0  -0.293236  -0.234327  0  3.506613  0
N  N95  1  0.24571790  0.13351119  0.70304452  1  0  -0.335136  0  3.269066  0  0  -0.252433  0  3.513858  0  0  -0.270727  0  3.53493  0  -1.291495  0  -0.294323  -0.240171  0  3.499314  0
O  O96  1  0.47014882  0.66593132  0.50774995  1  0  -0.632911  0  2.04919  0  0  -0.561477  0  2.287333  0  0  -0.58857  0  2.279786  0  -1.190386  0  -0.295254  -0.542522  0  2.29162  0
O  O97  1  0.64229565  0.33299118  0.49014091  1  0  -0.635308  0  2.04216  0  0  -0.563458  0  2.279754  0  0  -0.590607  0  2.27213  0  -1.194875  0  -0.29531  -0.544437  0  2.284143  0
O  O98  1  0.88556652  0.83394563  0.00800685  1  0  -0.632671  0  2.049704  0  0  -0.56128  0  2.287945  0  0  -0.588351  0  2.280316  0  -1.19504  0  -0.294438  -0.54232  0  2.292265  0
O  O99  1  0.72612149  0.16743761  0.99056281  1  0  -0.634986  0  2.04181  0  0  -0.563935  0  2.279934  0  0  -0.591055  0  2.272243  0  -1.187906  0  -0.295784  -0.544955  0  2.284409  0
O  O100  1  0.54006891  0.81644996  0.56207250  1  0  -0.60976  0  1.933535  0  0  -0.564321  0  2.149382  0  0  -0.587047  0  2.141793  0  -1.179686  0  -0.310066  -0.548558  0  2.15408  0
O  O101  1  0.91884957  0.18305350  0.43926777  1  0  -0.608301  0  1.939395  0  0  -0.562416  0  2.155711  0  0  -0.585143  0  2.148114  0  -1.191137  0  -0.309058  -0.546621  0  2.160415  0
O  O102  1  0.10665953  0.68347464  0.06200228  1  0  -0.608887  0  1.935455  0  0  -0.562869  0  2.150915  0  0  -0.585633  0  2.143384  0  -1.18472  0  -0.308347  -0.547051  0  2.15554  0
O  O103  1  0.85343957  0.31712777  0.93950936  1  0  -0.608371  0  1.937013  0  0  -0.562863  0  2.1536  0  0  -0.585536  0  2.145935  0  -1.175821  0  -0.308679  -0.547094  0  2.158336  0
