# generated using pymatgen
data_CdH16C8SN2O7
_symmetry_space_group_name_H-M   'P 1'
_cell_length_a   6.49208295
_cell_length_b   9.15514157
_cell_length_c   11.24317939
_cell_angle_alpha   84.97690434
_cell_angle_beta   86.54104895
_cell_angle_gamma   74.42461375
_symmetry_Int_Tables_number   1
_chemical_formula_structural   CdH16C8SN2O7
_chemical_formula_sum   'Cd2 H32 C16 S2 N4 O14'
_cell_volume   640.76497960
_cell_formula_units_Z   2
loop_
 _symmetry_equiv_pos_site_id
 _symmetry_equiv_pos_as_xyz
  1  'x, y, z'
loop_
 _atom_site_type_symbol
 _atom_site_label
 _atom_site_symmetry_multiplicity
 _atom_site_fract_x
 _atom_site_fract_y
 _atom_site_fract_z
 _atom_site_occupancy
 _atom_site_hle17_bader_spin_density
 _atom_site_hle17_ddec_charge
 _atom_site_hle17_ddec_spin_density
 _atom_site_hle17_ddec_sum_bond_order
 _atom_site_hle17_magmom
 _atom_site_hse06_10hf_bader_spin_density
 _atom_site_hse06_10hf_ddec_charge
 _atom_site_hse06_10hf_ddec_spin_density
 _atom_site_hse06_10hf_ddec_sum_bond_order
 _atom_site_hse06_10hf_magmom
 _atom_site_hse06_bader_spin_density
 _atom_site_hse06_ddec_charge
 _atom_site_hse06_ddec_spin_density
 _atom_site_hse06_ddec_sum_bond_order
 _atom_site_hse06_magmom
 _atom_site_pbe_bader_spin_density
 _atom_site_pbe_cm5_charge
 _atom_site_pbe_ddec_charge
 _atom_site_pbe_ddec_spin_density
 _atom_site_pbe_ddec_sum_bond_order
 _atom_site_pbe_magmom
Cd  Cd0  1  0.49999340  0.50000262  0.50000146  1  0  1.324467  0  1.573445  0  0  1.164306  0  2.024179  0  0  1.215127  0  1.962711  0  0  0.770688  1.129034  0  2.06428  0
Cd  Cd1  1  0.50000305  0.49999845  0.00000167  1  0  1.17635  0  1.64086  0  0  0.99288  0  2.079129  0  0  1.043818  0  2.029686  0  0  0.79266  0.957811  0  2.112222  0
H  H2  1  0.76329052  0.65675130  0.35670653  1  0  0.422886  0  0.882346  0  0  0.390442  0  0.948688  0  0  0.401215  0  0.93304  0  0  0.285491  0.382899  0  0.959599  0
H  H3  1  0.23670523  0.34325052  0.64329815  1  0  0.422829  0  0.882443  0  0  0.39038  0  0.948791  0  0  0.401156  0  0.933141  0  0  0.285456  0.38284  0  0.959698  0
H  H4  1  0.54192045  0.78619006  0.38525631  1  0  0.369331  0  0.951849  0  0  0.327783  0  1.042891  0  0  0.339327  0  1.028164  0  0  0.276654  0.32018  0  1.049712  0
H  H5  1  0.45807713  0.21381516  0.61474719  1  0  0.369393  0  0.951738  0  0  0.327844  0  1.042782  0  0  0.339396  0  1.02806  0  0  0.276699  0.32024  0  1.049609  0
H  H6  1  0.90568016  0.34569935  0.40076839  1  0  0.42305  0  0.881024  0  0  0.391025  0  0.946476  0  0  0.401859  0  0.930756  0  0  0.287637  0.383548  0  0.957185  0
H  H7  1  0.09431413  0.65430246  0.59923189  1  0  0.42311  0  0.880923  0  0  0.391071  0  0.946389  0  0  0.401901  0  0.930674  0  0  0.287657  0.383593  0  0.9571  0
H  H8  1  0.89272705  0.33001369  0.54505586  1  0  0.420493  0  0.888444  0  0  0.38762  0  0.955458  0  0  0.39841  0  0.939767  0  0  0.286017  0.380129  0  0.966295  0
H  H9  1  0.10726610  0.66998699  0.45494542  1  0  0.420489  0  0.888446  0  0  0.387619  0  0.955455  0  0  0.398412  0  0.939759  0  0  0.286023  0.380129  0  0.966289  0
H  H10  1  0.81099350  0.36949814  0.18872315  1  0  0.433548  0  0.862822  0  0  0.403282  0  0.924372  0  0  0.413823  0  0.909136  0  0  0.290125  0.395888  0  0.934963  0
H  H11  1  0.18900862  0.63049912  0.81127900  1  0  0.433516  0  0.862851  0  0  0.403248  0  0.924407  0  0  0.413789  0  0.909171  0  0  0.290115  0.395853  0  0.934997  0
H  H12  1  0.57335561  0.36708950  0.22444577  1  0  0.417965  0  0.888988  0  0  0.387983  0  0.952408  0  0  0.398302  0  0.937367  0  0  0.285625  0.38079  0  0.962718  0
H  H13  1  0.42664609  0.63290889  0.77555632  1  0  0.417988  0  0.888949  0  0  0.388014  0  0.952356  0  0  0.398327  0  0.937325  0  0  0.285628  0.380819  0  0.962669  0
H  H14  1  0.67173399  0.22858205  0.83159610  1  0  0.088186  0  0.945192  0  0  0.094715  0  1.013664  0  0  0.097457  0  1.010798  0  0  0.116589  0.092427  0  1.016077  0
H  H15  1  0.32826973  0.77141521  0.16840334  1  0  0.088171  0  0.945065  0  0  0.094688  0  1.013563  0  0  0.097439  0  1.010693  0  0  0.116586  0.092401  0  1.015977  0
H  H16  1  0.25467980  0.93071463  0.86252409  1  0  0.101442  0  0.95846  0  0  0.110325  0  1.02573  0  0  0.113524  0  1.022702  0  0  0.104683  0.10827  0  1.027525  0
H  H17  1  0.74532439  0.06928148  0.13747275  1  0  0.10144  0  0.95849  0  0  0.110331  0  1.025742  0  0  0.113527  0  1.022716  0  0  0.104686  0.108278  0  1.027533  0
H  H18  1  0.00777300  0.11848260  0.99645421  1  0  0.098666  0  0.962281  0  0  0.11255  0  1.018317  0  0  0.114612  0  1.018931  0  0  0.107979  0.110804  0  1.018374  0
H  H19  1  0.99222681  0.88151693  0.00354429  1  0  0.098699  0  0.962216  0  0  0.112578  0  1.018258  0  0  0.11464  0  1.018872  0  0  0.107996  0.110833  0  1.018314  0
H  H20  1  0.12062107  0.34405855  0.04623077  1  0  0.085046  0  0.965231  0  0  0.093377  0  1.029885  0  0  0.09563  0  1.027779  0  0  0.116424  0.091335  0  1.031899  0
H  H21  1  0.87938226  0.65593984  0.95376682  1  0  0.085223  0  0.965212  0  0  0.093535  0  1.029858  0  0  0.095789  0  1.027749  0  0  0.116469  0.091492  0  1.031871  0
H  H22  1  0.78338226  0.98679384  0.74421984  1  0  0.07864  0  0.912792  0  0  0.098574  0  0.967523  0  0  0.099138  0  0.967341  0  0  0.112176  0.097877  0  0.967948  0
H  H23  1  0.21662189  0.01320228  0.25577878  1  0  0.078616  0  0.912829  0  0  0.098555  0  0.967542  0  0  0.099118  0  0.967359  0  0  0.112157  0.097861  0  0.967965  0
H  H24  1  0.63045760  0.85177437  0.76069668  1  0  0.080751  0  0.933277  0  0  0.091901  0  1.004331  0  0  0.092714  0  1.004002  0  0  0.10331  0.091036  0  1.004518  0
H  H25  1  0.36953913  0.14822516  0.23930102  1  0  0.080763  0  0.933311  0  0  0.091899  0  1.004365  0  0  0.09271  0  1.004037  0  0  0.103318  0.091037  0  1.004553  0
H  H26  1  0.22304977  0.02794106  0.65823281  1  0  0.07138  0  0.929213  0  0  0.092096  0  0.98631  0  0  0.092117  0  0.986885  0  0  0.106691  0.091593  0  0.986418  0
H  H27  1  0.77694831  0.97206302  0.34176720  1  0  0.071352  0  0.929192  0  0  0.092031  0  0.986321  0  0  0.092053  0  0.986894  0  0  0.106684  0.091531  0  0.986428  0
H  H28  1  0.38641829  0.85247703  0.60874977  1  0  0.072201  0  0.93809  0  0  0.08783  0  1.006195  0  0  0.088485  0  1.005713  0  0  0.101211  0.087187  0  1.006196  0
H  H29  1  0.61358218  0.14752478  0.39125033  1  0  0.072178  0  0.938118  0  0  0.087807  0  1.006214  0  0  0.088454  0  1.005741  0  0  0.101205  0.087165  0  1.006214  0
H  H30  1  0.76608624  0.84256966  0.54047347  1  0  0.063854  0  0.935797  0  0  0.078814  0  1.00348  0  0  0.079635  0  1.002711  0  0  0.100789  0.07776  0  1.004338  0
H  H31  1  0.23391228  0.15743328  0.45952572  1  0  0.06394  0  0.935765  0  0  0.0789  0  1.003441  0  0  0.079718  0  1.002681  0  0  0.100819  0.077847  0  1.004299  0
H  H32  1  0.85429932  0.00985508  0.54788341  1  0  0.073049  0  0.938973  0  0  0.091003  0  0.999849  0  0  0.091391  0  0.999838  0  0  0.108622  0.09053  0  0.999912  0
H  H33  1  0.14570158  0.99014559  0.45211587  1  0  0.073069  0  0.938994  0  0  0.091035  0  0.999855  0  0  0.091429  0  0.999843  0  0  0.108637  0.090564  0  0.999916  0
C  C34  1  0.52741251  0.19803421  0.86704591  1  0  0.095087  0  3.67947  0  0  0.057992  0  3.928756  0  0  0.064959  0  3.946739  0  0  0.049836  0.053417  0  3.917004  0
C  C35  1  0.47260008  0.80196417  0.13295142  1  0  0.095055  0  3.679681  0  0  0.05795  0  3.929011  0  0  0.064912  0  3.946995  0  0  0.049814  0.053374  0  3.917257  0
C  C36  1  0.47883415  0.06791117  0.83386702  1  0  0.024172  0  3.740896  0  0  0.047574  0  3.979986  0  0  0.042195  0  4.005313  0  0  -0.006322  0.050858  0  3.96318  0
C  C37  1  0.52116494  0.93208608  0.16613255  1  0  0.02424  0  3.740966  0  0  0.047638  0  3.980038  0  0  0.042264  0  4.005355  0  0  -0.006293  0.050924  0  3.963235  0
C  C38  1  0.29187584  0.03512151  0.88319276  1  0  -0.058028  0  3.692702  0  0  -0.086569  0  3.945034  0  0  -0.083504  0  3.963522  0  0  -0.0676  -0.088254  0  3.932243  0
C  C39  1  0.70813058  0.96487688  0.11680474  1  0  -0.058066  0  3.692722  0  0  -0.086611  0  3.945048  0  0  -0.083545  0  3.963533  0  0  -0.067627  -0.088295  0  3.932257  0
C  C40  1  0.15861925  0.13585190  0.95891206  1  0  -0.107306  0  3.733564  0  0  -0.120316  0  3.987976  0  0  -0.127504  0  4.010155  0  0  -0.083514  -0.115834  0  3.97371  0
C  C41  1  0.84137555  0.86414876  0.04108384  1  0  -0.107295  0  3.733663  0  0  -0.120309  0  3.988079  0  0  -0.127497  0  4.010257  0  0  -0.083548  -0.115827  0  3.973812  0
C  C42  1  0.21876690  0.26300178  0.98692525  1  0  0.142441  0  3.685308  0  0  0.107604  0  3.938963  0  0  0.115288  0  3.95712  0  0  0.046114  0.102377  0  3.927472  0
C  C43  1  0.78123873  0.73699887  0.01306945  1  0  0.142139  0  3.685218  0  0  0.107341  0  3.938833  0  0  0.115025  0  3.956982  0  0  0.046022  0.102115  0  3.927345  0
C  C44  1  0.62016721  0.97381033  0.74219446  1  0  -0.045013  0  3.663547  0  0  -0.109062  0  3.918579  0  0  -0.10514  0  3.931354  0  0  -0.062363  -0.111596  0  3.910342  0
C  C45  1  0.37983765  0.02618806  0.25780398  1  0  -0.045004  0  3.663633  0  0  -0.109002  0  3.918581  0  0  -0.105082  0  3.931357  0  0  -0.062301  -0.111547  0  3.910365  0
C  C46  1  0.35414322  0.97738424  0.59550318  1  0  -0.027099  0  3.639572  0  0  -0.087383  0  3.898325  0  0  -0.083955  0  3.910348  0  0  -0.070497  -0.089284  0  3.890174  0
C  C47  1  0.64585684  0.02261870  0.40449596  1  0  -0.027009  0  3.639485  0  0  -0.08723  0  3.898139  0  0  -0.083796  0  3.910156  0  0  -0.070442  -0.089148  0  3.890018  0
C  C48  1  0.71650631  0.96802860  0.53075837  1  0  -0.01882  0  3.648875  0  0  -0.078702  0  3.911653  0  0  -0.075011  0  3.922897  0  0  -0.06879  -0.080859  0  3.904252  0
C  C49  1  0.28349419  0.03197320  0.46923995  1  0  -0.018967  0  3.64903  0  0  -0.078883  0  3.911907  0  0  -0.075196  0  3.92315  0  0  -0.068834  -0.081039  0  3.9045  0
S  S50  1  0.15150313  0.50183109  0.26096408  1  0  1.591598  0  5.815924  0  0  1.458565  0  6.366112  0  0  1.514412  0  6.330077  0  0  0.570264  1.419976  0  6.389603  0
S  S51  1  0.84849662  0.49816845  0.73903709  1  0  1.591595  0  5.815844  0  0  1.458551  0  6.366034  0  0  1.514395  0  6.330007  0  0  0.570244  1.419964  0  6.38952  0
N  N52  1  0.40248162  0.29217783  0.94320261  1  0  -0.345481  0  3.275743  0  0  -0.262107  0  3.540297  0  0  -0.283607  0  3.560385  0  0  -0.333005  -0.2478  0  3.526723  0
N  N53  1  0.59751041  0.70782171  0.05679878  1  0  -0.34538  0  3.27559  0  0  -0.262007  0  3.540134  0  0  -0.283506  0  3.560218  0  0  -0.332954  -0.2477  0  3.526561  0
N  N54  1  0.54511292  0.02639540  0.61978360  1  0  -0.21784  0  3.213696  0  0  -0.122134  0  3.437143  0  0  -0.139079  0  3.457799  0  0  -0.327853  -0.112075  0  3.423385  0
N  N55  1  0.45488911  0.97360640  0.38021557  1  0  -0.217819  0  3.21365  0  0  -0.122148  0  3.437131  0  0  -0.139085  0  3.45778  0  0  -0.327899  -0.11209  0  3.423384  0
O  O56  1  0.60875367  0.67193310  0.37832944  1  0  -0.867276  0  1.947173  0  0  -0.799046  0  2.184925  0  0  -0.824115  0  2.151178  0  0  -0.599764  -0.781819  0  2.204536  0
O  O57  1  0.39124081  0.32807213  0.62167504  1  0  -0.867301  0  1.947197  0  0  -0.799077  0  2.184982  0  0  -0.824095  0  2.151129  0  0  -0.599776  -0.78185  0  2.204594  0
O  O58  1  0.82012439  0.31841930  0.47188422  1  0  -0.84739  0  1.845122  0  0  -0.778693  0  2.035179  0  0  -0.802344  0  2.00307  0  0  -0.588979  -0.761238  0  2.055713  0
O  O59  1  0.17986513  0.68158706  0.52811588  1  0  -0.84745  0  1.845132  0  0  -0.778735  0  2.035219  0  0  -0.802386  0  2.003109  0  0  -0.589004  -0.761281  0  2.055751  0
O  O60  1  0.68626885  0.34097383  0.15979681  1  0  -0.83746  0  1.816771  0  0  -0.777668  0  2.002259  0  0  -0.799461  0  1.970384  0  0  -0.591264  -0.761502  0  2.02322  0
O  O61  1  0.31373520  0.65902230  0.84020715  1  0  -0.837444  0  1.816724  0  0  -0.777663  0  2.00219  0  0  -0.799464  0  1.970344  0  0  -0.591275  -0.7615  0  2.023162  0
O  O62  1  0.02108921  0.38925825  0.26657138  1  0  -0.751612  0  1.981609  0  0  -0.683862  0  2.222761  0  0  -0.706291  0  2.204439  0  0  -0.353062  -0.667807  0  2.234262  0
O  O63  1  0.97891447  0.61073901  0.73342984  1  0  -0.751633  0  1.981552  0  0  -0.683867  0  2.222686  0  0  -0.706297  0  2.204369  0  0  -0.353041  -0.667813  0  2.234189  0
O  O64  1  0.03069596  0.63865625  0.32341716  1  0  -0.740669  0  1.962398  0  0  -0.675321  0  2.201398  0  0  -0.697136  0  2.182864  0  0  -0.355842  -0.659842  0  2.213532  0
O  O65  1  0.96930111  0.36134215  0.67658506  1  0  -0.74062  0  1.962333  0  0  -0.675275  0  2.201348  0  0  -0.697099  0  2.182817  0  0  -0.355829  -0.659798  0  2.21348  0
O  O66  1  0.35738618  0.42884115  0.32199599  1  0  -0.789077  0  2.012667  0  0  -0.722934  0  2.28792  0  0  -0.746571  0  2.266521  0  0  -0.365237  -0.705952  0  2.300988  0
O  O67  1  0.64261622  0.57115952  0.67800591  1  0  -0.78908  0  2.012665  0  0  -0.722947  0  2.287933  0  0  -0.746579  0  2.266536  0  0  -0.365247  -0.705965  0  2.301  0
O  O68  1  0.19629113  0.54810667  0.13433359  1  0  -0.751105  0  2.001848  0  0  -0.685833  0  2.28143  0  0  -0.710255  0  2.263105  0  0  -0.363811  -0.668418  0  2.293364  0
O  O69  1  0.80370864  0.45189286  0.86566669  1  0  -0.751163  0  2.001896  0  0  -0.685872  0  2.28146  0  0  -0.710293  0  2.263134  0  0  -0.363826  -0.668458  0  2.293391  0
