# generated using pymatgen
data_CdH21C23N3O11
_symmetry_space_group_name_H-M   'P 1'
_cell_length_a   10.46530704
_cell_length_b   11.42862069
_cell_length_c   12.49100000
_cell_angle_alpha   109.21929719
_cell_angle_beta   112.48793762
_cell_angle_gamma   102.37271775
_symmetry_Int_Tables_number   1
_chemical_formula_structural   CdH21C23N3O11
_chemical_formula_sum   'Cd2 H42 C46 N6 O22'
_cell_volume   1200.27631692
_cell_formula_units_Z   2
loop_
 _symmetry_equiv_pos_site_id
 _symmetry_equiv_pos_as_xyz
  1  'x, y, z'
loop_
 _atom_site_type_symbol
 _atom_site_label
 _atom_site_symmetry_multiplicity
 _atom_site_fract_x
 _atom_site_fract_y
 _atom_site_fract_z
 _atom_site_occupancy
 _atom_site_hle17_bader_spin_density
 _atom_site_hle17_ddec_charge
 _atom_site_hle17_ddec_spin_density
 _atom_site_hle17_ddec_sum_bond_order
 _atom_site_hle17_magmom
 _atom_site_hse06_10hf_bader_spin_density
 _atom_site_hse06_10hf_ddec_charge
 _atom_site_hse06_10hf_ddec_spin_density
 _atom_site_hse06_10hf_ddec_sum_bond_order
 _atom_site_hse06_10hf_magmom
 _atom_site_hse06_bader_spin_density
 _atom_site_hse06_ddec_charge
 _atom_site_hse06_ddec_spin_density
 _atom_site_hse06_ddec_sum_bond_order
 _atom_site_hse06_magmom
 _atom_site_pbe_bader_charge
 _atom_site_pbe_bader_spin_density
 _atom_site_pbe_cm5_charge
 _atom_site_pbe_ddec_charge
 _atom_site_pbe_ddec_spin_density
 _atom_site_pbe_ddec_sum_bond_order
 _atom_site_pbe_magmom
Cd  Cd0  1  0.63926222  0.94742571  0.23666525  1  0  1.203134  0  1.599618  0  0  1.020003  0  2.046587  0  0  1.076743  0  1.989657  0  1.293382  0  0.773028  0.97523  0  2.08905  0
Cd  Cd1  1  0.36072513  0.05257237  0.76331899  1  0  1.203156  0  1.599504  0  0  1.020043  0  2.046454  0  0  1.07678  0  1.989522  0  1.2934  0  0.773026  0.975266  0  2.088922  0
H  H2  1  0.62556096  0.34323588  0.28336422  1  0  0.109969  0  0.9479  0  0  0.119149  0  1.015095  0  0  0.121512  0  1.013195  0  0.140403  0  0.119445  0.117358  0  1.016517  0
H  H3  1  0.37444202  0.65676723  0.71663455  1  0  0.110026  0  0.947874  0  0  0.119183  0  1.015098  0  0  0.121547  0  1.013198  0  0.140414  0  0.119444  0.117388  0  1.016524  0
H  H4  1  0.66583345  0.44230468  0.44511385  1  0  0.108463  0  0.914673  0  0  0.121707  0  0.973577  0  0  0.123658  0  0.971964  0  0.105548  0  0.119288  0.120225  0  0.974815  0
H  H5  1  0.33416464  0.55770146  0.55487946  1  0  0.108484  0  0.914692  0  0  0.121784  0  0.973498  0  0  0.123733  0  0.971889  0  0.106617  0  0.119311  0.120307  0  0.974723  0
H  H6  1  0.23391250  0.72343867  0.11509071  1  0  0.135224  0  0.941244  0  0  0.137557  0  1.011454  0  0  0.141858  0  1.007415  0  0.155183  0  0.119266  0.13439  0  1.014345  0
H  H7  1  0.76609823  0.27655137  0.88490260  1  0  0.135146  0  0.941245  0  0  0.137485  0  1.011462  0  0  0.141782  0  1.007437  0  0.155136  0  0.119218  0.1343  0  1.014372  0
H  H8  1  0.97276326  0.21729223  0.21471780  1  0  0.136612  0  0.958793  0  0  0.140874  0  1.028126  0  0  0.145467  0  1.024055  0  0.153391  0  0.111499  0.137499  0  1.031132  0
H  H9  1  0.02723323  0.78270787  0.78530040  1  0  0.136689  0  0.958763  0  0  0.141002  0  1.028018  0  0  0.145599  0  1.023945  0  0.15314  0  0.111551  0.137625  0  1.031025  0
H  H10  1  0.18632017  0.93680840  0.24627063  1  0  0.121771  0  0.959144  0  0  0.126487  0  1.030784  0  0  0.130591  0  1.027082  0  0.131433  0  0.109166  0.123606  0  1.03359  0
H  H11  1  0.81369845  0.06319975  0.75374347  1  0  0.121765  0  0.959142  0  0  0.12645  0  1.030803  0  0  0.130569  0  1.027085  0  0.131346  0  0.109136  0.123571  0  1.033608  0
H  H12  1  0.92200798  0.58968926  0.60891990  1  0  0.09455  0  0.938417  0  0  0.100979  0  1.012795  0  0  0.103087  0  1.01126  0  0.117236  0  0.11632  0.099325  0  1.014074  0
H  H13  1  0.07798566  0.41032090  0.39107800  1  0  0.094524  0  0.938449  0  0  0.101  0  1.012818  0  0  0.103113  0  1.011273  0  0.117243  0  0.116274  0.099346  0  1.014095  0
H  H14  1  0.91811054  0.68617894  0.52097542  1  0  0.097631  0  0.917648  0  0  0.116248  0  0.968682  0  0  0.116538  0  0.970153  0  0.103748  0  0.121668  0.115923  0  0.967782  0
H  H15  1  0.08189343  0.31383122  0.47902179  1  0  0.09761  0  0.917555  0  0  0.116222  0  0.968634  0  0  0.11651  0  0.970105  0  0.103877  0  0.121627  0.115896  0  0.967737  0
H  H16  1  0.82072902  0.27382635  0.32862110  1  0  0.11437  0  0.912642  0  0  0.124764  0  0.978516  0  0  0.126531  0  0.977168  0  0.153075  0  0.125376  0.123215  0  0.98007  0
H  H17  1  0.17926585  0.72617476  0.67137607  1  0  0.114422  0  0.912702  0  0  0.124829  0  0.978536  0  0  0.126581  0  0.977219  0  0.153106  0  0.125412  0.123297  0  0.980046  0
H  H18  1  0.86125664  0.34293299  0.49442484  1  0  0.104098  0  0.922465  0  0  0.114305  0  0.987667  0  0  0.116125  0  0.986505  0  0.09216  0  0.11742  0.112929  0  0.988637  0
H  H19  1  0.13874690  0.65707616  0.50558073  1  0  0.10416  0  0.922487  0  0  0.114414  0  0.987623  0  0  0.116192  0  0.986508  0  0.092045  0  0.117435  0.113034  0  0.988597  0
H  H20  1  0.39366545  0.28436115  0.21566023  1  0  0.116266  0  0.965121  0  0  0.126968  0  1.028226  0  0  0.130233  0  1.026117  0  0.08714  0  0.109093  0.124612  0  1.029716  0
H  H21  1  0.60632688  0.71564599  0.78434594  1  0  0.116175  0  0.965195  0  0  0.126869  0  1.028314  0  0  0.130136  0  1.026207  0  0.08712  0  0.109082  0.124541  0  1.029772  0
H  H22  1  0.12217949  0.23928459  0.00235745  1  0  0.123636  0  0.949219  0  0  0.135048  0  1.002934  0  0  0.137834  0  1.003654  0  0.107193  0  0.111853  0.133034  0  1.002591  0
H  H23  1  0.87780435  0.76070544  0.99764566  1  0  0.123649  0  0.949142  0  0  0.135114  0  1.002787  0  0  0.1379  0  1.003503  0  0.107188  0  0.111869  0.1331  0  1.002443  0
H  H24  1  0.66073218  0.67378352  0.51041872  1  0  0.111655  0  0.956513  0  0  0.120548  0  1.01892  0  0  0.122691  0  1.020069  0  0.090832  0  0.108989  0.118906  0  1.018356  0
H  H25  1  0.33925695  0.32621155  0.48956999  1  0  0.111649  0  0.95652  0  0  0.120547  0  1.018935  0  0  0.122685  0  1.020091  0  0.090867  0  0.10897  0.118906  0  1.01837  0
H  H26  1  0.09002983  0.31476405  0.83259303  1  0  0.120512  0  0.945555  0  0  0.123663  0  1.015011  0  0  0.12801  0  1.010812  0  0.149353  0  0.109769  0.120459  0  1.018086  0
H  H27  1  0.90997712  0.68521492  0.16740935  1  0  0.120484  0  0.945646  0  0  0.123613  0  1.015118  0  0  0.127956  0  1.010919  0  0.149431  0  0.109815  0.120412  0  1.018187  0
H  H28  1  0.60349974  0.44624328  0.13078787  1  0  0.110038  0  0.972878  0  0  0.117998  0  1.038835  0  0  0.121132  0  1.03759  0  0.129606  0  0.108776  0.115611  0  1.040088  0
H  H29  1  0.39650427  0.55375984  0.86920403  1  0  0.110011  0  0.972946  0  0  0.117976  0  1.038882  0  0  0.121109  0  1.037638  0  0.129688  0  0.108777  0.115597  0  1.040126  0
H  H30  1  0.57990766  0.64237836  0.08581542  1  0  0.079237  0  0.949189  0  0  0.089411  0  1.012107  0  0  0.091315  0  1.010849  0  0.103173  0  0.116983  0.088082  0  1.012903  0
H  H31  1  0.42009206  0.35762677  0.91418291  1  0  0.079199  0  0.949209  0  0  0.089476  0  1.012019  0  0  0.091381  0  1.010758  0  0.103255  0  0.116958  0.088135  0  1.01283  0
H  H32  1  0.63018300  0.85681374  0.44837635  1  0  0.090836  0  0.923833  0  0  0.100678  0  0.982809  0  0  0.103222  0  0.980698  0  0.138187  0  0.123808  0.098724  0  0.984474  0
H  H33  1  0.36980347  0.14318233  0.55161581  1  0  0.090818  0  0.923803  0  0  0.10059  0  0.982855  0  0  0.103134  0  0.980743  0  0.13818  0  0.123774  0.098608  0  0.98455  0
H  H34  1  0.51366808  0.84930283  0.94926015  1  0  0.433886  0  0.854426  0  0  0.405448  0  0.913056  0  0  0.416197  0  0.897376  0  0.639586  0  0.291485  0.397671  0  0.924407  0
H  H35  1  0.48631704  0.15069727  0.05073118  1  0  0.43391  0  0.854395  0  0  0.405525  0  0.912965  0  0  0.416269  0  0.897288  0  0.639578  0  0.291525  0.397749  0  0.924315  0
H  H36  1  0.38620145  0.77504400  0.96982914  1  0  0.425237  0  0.878794  0  0  0.394229  0  0.942965  0  0  0.405045  0  0.927286  0  0.643468  0  0.284322  0.386523  0  0.954111  0
H  H37  1  0.61378920  0.22494503  0.03015983  1  0  0.425293  0  0.878716  0  0  0.394295  0  0.942868  0  0  0.40511  0  0.92719  0  0.64354  0  0.284367  0.386589  0  0.954017  0
H  H38  1  0.88807627  0.06822816  0.53557854  1  0  0.438153  0  0.845489  0  0  0.41032  0  0.903041  0  0  0.420918  0  0.88753  0  0.64541  0  0.294429  0.402544  0  0.914389  0
H  H39  1  0.11193062  0.93179106  0.46439911  1  0  0.438056  0  0.845621  0  0  0.410222  0  0.903175  0  0  0.420828  0  0.887651  0  0.645333  0  0.294377  0.402443  0  0.914528  0
H  H40  1  0.76801568  0.12819170  0.53075380  1  0  0.412038  0  0.88707  0  0  0.377914  0  0.956236  0  0  0.389199  0  0.939319  0  0.631723  0  0.289264  0.369792  0  0.968404  0
H  H41  1  0.23198905  0.87181544  0.46924914  1  0  0.41199  0  0.887109  0  0  0.377853  0  0.956302  0  0  0.389139  0  0.939385  0  0.632008  0  0.289203  0.369725  0  0.96847  0
H  H42  1  0.11960289  0.50665260  0.66270159  1  0  0.270805  0  0.957748  0  0  0.249765  0  1.023366  0  0  0.260051  0  1.017086  0  0.542317  0  0.293441  0.242611  0  1.027677  0
H  H43  1  0.88039981  0.49334750  0.33729699  1  0  0.270794  0  0.957703  0  0  0.249771  0  1.023302  0  0  0.260043  0  1.017051  0  0.542308  0  0.293411  0.242621  0  1.027604  0
C  C44  1  0.68558384  0.44490391  0.36550508  1  0  -0.069635  0  3.559537  0  0  -0.129882  0  3.805225  0  0  -0.127148  0  3.81373  0  0.194836  0  -0.056932  -0.131485  0  3.799256  0
C  C45  1  0.31441826  0.55509719  0.63449441  1  0  -0.069837  0  3.55955  0  0  -0.130044  0  3.80508  0  0  -0.127312  0  3.813586  0  0.193724  0  -0.056966  -0.131656  0  3.799142  0
C  C46  1  0.16074532  0.52435517  0.96269013  1  0  -0.10185  0  3.784338  0  0  -0.081718  0  4.028112  0  0  -0.0948  0  4.054058  0  0.009832  0  -0.029262  -0.073428  0  4.010753  0
C  C47  1  0.83927058  0.47563486  0.03730964  1  0  -0.101901  0  3.784275  0  0  -0.081773  0  4.028068  0  0  -0.094856  0  4.054019  0  0.009981  0  -0.029251  -0.073482  0  4.010707  0
C  C48  1  0.06749231  0.06944073  0.23432291  1  0  -0.040212  0  3.752863  0  0  -0.013669  0  3.987962  0  0  -0.021674  0  4.011206  0  -0.035655  0  -0.015048  -0.008825  0  3.973226  0
C  C49  1  0.93252781  0.93056138  0.76570027  1  0  -0.039969  0  3.753261  0  0  -0.013533  0  3.988431  0  0  -0.021538  0  4.011664  0  -0.035793  0  -0.014951  -0.008687  0  3.973695  0
C  C50  1  0.19462008  0.43725212  0.15427073  1  0  0.278245  0  3.75508  0  0  0.256466  0  4.023019  0  0  0.272408  0  4.03671  0  0.518245  0  0.109307  0.245468  0  4.014262  0
C  C51  1  0.80537037  0.56274597  0.84573131  1  0  0.278273  0  3.755611  0  0  0.256433  0  4.023732  0  0  0.272382  0  4.037421  0  0.518045  0  0.109266  0.245429  0  4.014982  0
C  C52  1  0.20795873  0.61707028  0.08901427  1  0  -0.069283  0  3.701481  0  0  -0.106724  0  3.961407  0  0  -0.100748  0  3.978848  0  0.003107  0  -0.066994  -0.110113  0  3.949442  0
C  C53  1  0.79204477  0.38291975  0.91098393  1  0  -0.069107  0  3.701193  0  0  -0.106489  0  3.961207  0  0  -0.100515  0  3.978662  0  0.003153  0  -0.066917  -0.109861  0  3.949247  0
C  C54  1  0.06677056  0.18732606  0.22294915  1  0  -0.164593  0  3.700162  0  0  -0.20243  0  3.954624  0  0  -0.202104  0  3.970498  0  0.024117  0  -0.085686  -0.201465  0  3.943397  0
C  C55  1  0.93323286  0.81267807  0.77707968  1  0  -0.164974  0  3.700626  0  0  -0.202756  0  3.955072  0  0  -0.202441  0  3.970961  0  0.024239  0  -0.085885  -0.20179  0  3.943848  0
C  C56  1  0.29872679  0.10207054  0.22406253  1  0  -0.030902  0  3.749369  0  0  -0.003123  0  3.979992  0  0  -0.011126  0  4.003103  0  -0.01365  0  -0.01302  0.001933  0  3.964824  0
C  C57  1  0.70127468  0.89793861  0.77594798  1  0  -0.030823  0  3.749355  0  0  -0.003056  0  3.979969  0  0  -0.011067  0  4.003092  0  -0.01367  0  -0.013016  0.002002  0  3.964802  0
C  C58  1  0.22382983  0.57437661  0.18452311  1  0  -0.038558  0  3.65713  0  0  -0.049619  0  3.921897  0  0  -0.05856  0  3.943292  0  0.253045  0  0.069997  -0.044042  0  3.907907  0
C  C59  1  0.77617522  0.42562650  0.81548353  1  0  -0.038438  0  3.656837  0  0  -0.049722  0  3.921971  0  0  -0.05869  0  3.943412  0  0.25245  0  0.069996  -0.044144  0  3.907977  0
C  C60  1  0.18412331  0.02754807  0.23615563  1  0  -0.086926  0  3.67325  0  0  -0.12662  0  3.922767  0  0  -0.125025  0  3.941883  0  -0.028359  0  -0.079907  -0.128195  0  3.911237  0
C  C61  1  0.81589590  0.97245907  0.76386637  1  0  -0.087174  0  3.673552  0  0  -0.126788  0  3.923069  0  0  -0.125203  0  3.942178  0  -0.028284  0  -0.079915  -0.128366  0  3.911538  0
C  C62  1  0.94660934  0.60362631  0.53505222  1  0  -0.025493  0  3.548397  0  0  -0.082901  0  3.799214  0  0  -0.08001  0  3.809584  0  0.198032  0  -0.057991  -0.084655  0  3.792126  0
C  C63  1  0.05339257  0.39638385  0.46494833  1  0  -0.025463  0  3.548273  0  0  -0.082965  0  3.799192  0  0  -0.080076  0  3.809573  0  0.197939  0  -0.057915  -0.084714  0  3.7921  0
C  C64  1  0.42297242  0.05753034  0.22231107  1  0  0.640577  0  3.928244  0  0  0.593954  0  4.209746  0  0  0.62836  0  4.204401  0  1.55688  0  0.198982  0.570378  0  4.212361  0
C  C65  1  0.57703346  0.94248183  0.77769377  1  0  0.640658  0  3.928457  0  0  0.594022  0  4.209953  0  0  0.628431  0  4.204609  0  1.557702  0  0.19897  0.570442  0  4.212573  0
C  C66  1  0.88871143  0.36278801  0.42402814  1  0  -0.029669  0  3.532411  0  0  -0.087888  0  3.785447  0  0  -0.084905  0  3.795176  0  0.20814  0  -0.056663  -0.089872  0  3.779169  0
C  C67  1  0.11128841  0.63722215  0.57597174  1  0  -0.029785  0  3.532395  0  0  -0.088059  0  3.785415  0  0  -0.085052  0  3.795148  0  0.208041  0  -0.056715  -0.090037  0  3.77914  0
C  C68  1  0.30257956  0.22390654  0.22065404  1  0  -0.171182  0  3.720103  0  0  -0.208027  0  3.968586  0  0  -0.208191  0  3.985686  0  -0.023147  0  -0.089445  -0.206791  0  3.95643  0
C  C69  1  0.69741455  0.77609758  0.77935260  1  0  -0.171126  0  3.720144  0  0  -0.207928  0  3.968701  0  0  -0.208092  0  3.985805  0  -0.023025  0  -0.089483  -0.206711  0  3.956529  0
C  C70  1  0.18899739  0.26648147  0.22484172  1  0  0.243263  0  3.817892  0  0  0.238824  0  4.085826  0  0  0.246146  0  4.101248  0  0.349077  0  0.074222  0.233448  0  4.074831  0
C  C71  1  0.81099481  0.73352064  0.77517250  1  0  0.243517  0  3.817981  0  0  0.238946  0  4.086058  0  0  0.246266  0  4.101482  0  0.348975  0  0.074313  0.233563  0  4.075077  0
C  C72  1  0.94411374  0.99712212  0.25221111  1  0  0.637662  0  3.9499  0  0  0.590031  0  4.240849  0  0  0.624189  0  4.234994  0  1.566087  0  0.19706  0.566698  0  4.243736  0
C  C73  1  0.05589931  0.00287798  0.74781400  1  0  0.637773  0  3.950163  0  0  0.590183  0  4.241077  0  0  0.624344  0  4.235209  0  1.566304  0  0.19696  0.566849  0  4.243974  0
C  C74  1  0.14806228  0.34524745  0.02681514  1  0  -0.194041  0  3.729214  0  0  -0.211766  0  3.981988  0  0  -0.222104  0  4.002997  0  0.017368  0  -0.099894  -0.205115  0  3.968102  0
C  C75  1  0.85192793  0.65474057  0.97318140  1  0  -0.194172  0  3.729492  0  0  -0.211871  0  3.98225  0  0  -0.222206  0  4.003247  0  0.017478  0  -0.09993  -0.205219  0  3.968369  0
C  C76  1  0.14108010  0.56727526  0.85813834  1  0  0.629671  0  3.931299  0  0  0.578734  0  4.237041  0  0  0.61218  0  4.229851  0  1.577075  0  0.199008  0.556103  0  4.241352  0
C  C77  1  0.85891992  0.43269968  0.14184619  1  0  0.629614  0  3.931938  0  0  0.578696  0  4.23767  0  0  0.612143  0  4.230481  0  1.576379  0  0.198966  0.556064  0  4.241984  0
C  C78  1  0.64286035  0.66194054  0.41494732  1  0  -0.156597  0  3.69897  0  0  -0.176829  0  3.952333  0  0  -0.183428  0  3.973208  0  -0.018115  0  -0.080086  -0.172761  0  3.938669  0
C  C79  1  0.35714132  0.33805955  0.58505012  1  0  -0.156657  0  3.69902  0  0  -0.176899  0  3.952361  0  0  -0.183494  0  3.973238  0  -0.017833  0  -0.08008  -0.172828  0  3.938687  0
C  C80  1  0.64197039  0.54771408  0.32692259  1  0  0.122093  0  3.720863  0  0  0.134987  0  3.963508  0  0  0.138919  0  3.985062  0  -0.034128  0  0.008648  0.132531  0  3.949066  0
C  C81  1  0.35803187  0.45228502  0.67307474  1  0  0.122145  0  3.720935  0  0  0.135018  0  3.96358  0  0  0.138951  0  3.985129  0  -0.033901  0  0.008633  0.132559  0  3.949137  0
C  C82  1  0.12986470  0.38788980  0.93217768  1  0  -0.00128  0  3.695967  0  0  -0.03254  0  3.954053  0  0  -0.025955  0  3.970259  0  -0.085675  0  -0.064733  -0.036557  0  3.943013  0
C  C83  1  0.87014190  0.61210024  0.06782391  1  0  -0.001229  0  3.695865  0  0  -0.032481  0  3.953969  0  0  -0.025893  0  3.970177  0  -0.085398  0  -0.064779  -0.0365  0  3.942933  0
C  C84  1  0.61178233  0.53652418  0.20392952  1  0  -0.150999  0  3.688596  0  0  -0.169656  0  3.935685  0  0  -0.177085  0  3.957738  0  -0.060036  0  -0.079616  -0.165044  0  3.921553  0
C  C85  1  0.38822065  0.46347893  0.79606685  1  0  -0.150924  0  3.688639  0  0  -0.169578  0  3.935729  0  0  -0.177009  0  3.957785  0  -0.059972  0  -0.079575  -0.164971  0  3.921587  0
C  C86  1  0.59677287  0.64343798  0.17791738  1  0  0.136037  0  3.712123  0  0  0.106263  0  3.961722  0  0  0.112648  0  3.981962  0  0.489938  0  0.050035  0.101997  0  3.947978  0
C  C87  1  0.40321861  0.35656011  0.82207459  1  0  0.136128  0  3.71203  0  0  0.10628  0  3.9616  0  0  0.112666  0  3.981836  0  0.489396  0  0.050115  0.102018  0  3.947863  0
C  C88  1  0.62549345  0.76424253  0.38107699  1  0  0.142552  0  3.701567  0  0  0.10755  0  3.958928  0  0  0.114346  0  3.977828  0  0.46954  0  0.051366  0.103078  0  3.945857  0
C  C89  1  0.37449760  0.23575455  0.61891454  1  0  0.14269  0  3.701467  0  0  0.107759  0  3.958783  0  0  0.114553  0  3.977689  0  0.469241  0  0.051457  0.10331  0  3.945718  0
N  N90  1  0.84962204  0.47706882  0.41058562  1  0  -0.116745  0  3.333035  0  0  -0.031783  0  3.544439  0  0  -0.045834  0  3.563226  0  -1.026431  0  -0.343108  -0.022227  0  3.53149  0
N  N91  1  0.15037991  0.52293430  0.58941362  1  0  -0.116741  0  3.332808  0  0  -0.031782  0  3.54427  0  0  -0.045831  0  3.56303  0  -1.026355  0  -0.343148  -0.022227  0  3.531322  0
N  N92  1  0.60710464  0.75645187  0.26613684  1  0  -0.337396  0  3.27521  0  0  -0.260427  0  3.54456  0  0  -0.280709  0  3.563405  0  -1.21244  0  -0.326831  -0.245957  0  3.530949  0
N  N93  1  0.39288374  0.24354621  0.73385333  1  0  -0.337561  0  3.275143  0  0  -0.260602  0  3.544503  0  0  -0.280888  0  3.563351  0  -1.212271  0  -0.326961  -0.246128  0  3.530878  0
N  N94  1  0.26508595  0.67381169  0.31278506  1  0  0.528545  0  3.887603  0  0  0.548251  0  4.196342  0  0  0.571665  0  4.20239  0  0.349824  0  0.057385  0.532704  0  4.19191  0
N  N95  1  0.73490760  0.32618639  0.68720997  1  0  0.52844  0  3.887482  0  0  0.548221  0  4.196246  0  0  0.571642  0  4.202286  0  0.350202  0  0.057273  0.532677  0  4.19181  0
O  O96  1  0.20386116  0.39828271  0.24725551  1  0  -0.277585  0  2.425869  0  0  -0.211787  0  2.65856  0  0  -0.231095  0  2.661182  0  -1.092432  0  -0.14071  -0.198047  0  2.656464  0
O  O97  1  0.79612428  0.60171336  0.75274832  1  0  -0.277634  0  2.42591  0  0  -0.211736  0  2.658613  0  0  -0.23104  0  2.661227  0  -1.092445  0  -0.140647  -0.197993  0  2.65652  0
O  O98  1  0.49719380  0.80842852  0.00388279  1  0  -0.857133  0  1.818237  0  0  -0.796875  0  2.001246  0  0  -0.81912  0  1.967228  0  -1.266881  0  -0.590548  -0.780964  0  2.025413  0
O  O99  1  0.50279915  0.19157057  0.99611076  1  0  -0.85724  0  1.818175  0  0  -0.797063  0  2.001084  0  0  -0.819303  0  1.967084  0  -1.266921  0  -0.590647  -0.781139  0  2.025218  0
O  O100  1  0.06519870  0.47132897  0.74102642  1  0  -0.600903  0  1.989518  0  0  -0.559574  0  2.227347  0  0  -0.583883  0  2.220394  0  -1.181384  0  -0.336067  -0.542555  0  2.231651  0
O  O101  1  0.93481064  0.52864597  0.25896190  1  0  -0.600924  0  1.989683  0  0  -0.559569  0  2.227408  0  0  -0.583871  0  2.220461  0  -1.180995  0  -0.335975  -0.542551  0  2.231709  0
O  O102  1  0.43552453  0.96385332  0.25470852  1  0  -0.631225  0  1.978487  0  0  -0.568415  0  2.220172  0  0  -0.599194  0  2.210908  0  -1.140822  0  -0.326959  -0.545521  0  2.225292  0
O  O103  1  0.56448287  0.03615281  0.74528938  1  0  -0.631249  0  1.97849  0  0  -0.568457  0  2.220198  0  0  -0.599229  0  2.210919  0  -1.141048  0  -0.326962  -0.545565  0  2.225322  0
O  O104  1  0.51248325  0.11489062  0.19177198  1  0  -0.6681  0  1.955587  0  0  -0.604817  0  2.178283  0  0  -0.631758  0  2.166946  0  -1.193321  0  -0.32573  -0.584494  0  2.18646  0
O  O105  1  0.48751058  0.88511049  0.80821685  1  0  -0.668145  0  1.955728  0  0  -0.604831  0  2.178413  0  0  -0.631759  0  2.167045  0  -1.193611  0  -0.325698  -0.584517  0  2.186618  0
O  O106  1  0.96324168  0.92358581  0.30774498  1  0  -0.631342  0  1.909927  0  0  -0.580715  0  2.121499  0  0  -0.604827  0  2.111871  0  -1.170075  0  -0.325606  -0.562793  0  2.127028  0
O  O107  1  0.03679576  0.07646561  0.69233062  1  0  -0.631528  0  1.909971  0  0  -0.580939  0  2.121552  0  0  -0.605051  0  2.111925  0  -1.170023  0  -0.325645  -0.563014  0  2.127083  0
O  O108  1  0.19958216  0.69003402  0.88766839  1  0  -0.622221  0  1.930641  0  0  -0.566208  0  2.146552  0  0  -0.588579  0  2.135492  0  -1.19076  0  -0.324421  -0.550639  0  2.153782  0
O  O109  1  0.80042567  0.30994696  0.11232367  1  0  -0.622227  0  1.93105  0  0  -0.566214  0  2.146925  0  0  -0.588581  0  2.135859  0  -1.190634  0  -0.324466  -0.550645  0  2.154159  0
O  O110  1  0.82605254  0.02328242  0.20851152  1  0  -0.650219  0  2.019941  0  0  -0.57529  0  2.26994  0  0  -0.607014  0  2.258105  0  -1.144911  0  -0.338126  -0.551604  0  2.278073  0
O  O111  1  0.17393284  0.97666837  0.79145544  1  0  -0.650196  0  2.01995  0  0  -0.575277  0  2.269965  0  0  -0.606987  0  2.258099  0  -1.145303  0  -0.338024  -0.551596  0  2.278104  0
O  O112  1  0.80660492  0.08325301  0.47562230  1  0  -0.846686  0  1.819322  0  0  -0.789698  0  1.997364  0  0  -0.810038  0  1.962603  0  -1.259815  0  -0.588951  -0.775099  0  2.02251  0
O  O113  1  0.19339942  0.91677225  0.52437076  1  0  -0.846533  0  1.819316  0  0  -0.789568  0  1.99743  0  0  -0.809891  0  1.962617  0  -1.260034  0  -0.588868  -0.774959  0  2.022606  0
O  O114  1  0.32336789  0.65397177  0.40904031  1  0  -0.372918  0  1.758862  0  0  -0.363148  0  1.980449  0  0  -0.372451  0  1.974376  0  -0.472639  0  -0.136686  -0.35694  0  1.984509  0
O  O115  1  0.67661698  0.34601826  0.59095272  1  0  -0.372862  0  1.758985  0  0  -0.363087  0  1.98055  0  0  -0.372392  0  1.974471  0  -0.472809  0  -0.136596  -0.356873  0  1.984607  0
O  O116  1  0.24079549  0.77785154  0.32048578  1  0  -0.372954  0  1.814022  0  0  -0.336884  0  2.025383  0  0  -0.351347  0  2.018747  0  -0.487952  0  -0.111593  -0.327315  0  2.030082  0
O  O117  1  0.75918966  0.22214152  0.67949464  1  0  -0.37295  0  1.813969  0  0  -0.336862  0  2.025277  0  0  -0.35131  0  2.018617  0  -0.487809  0  -0.111576  -0.3273  0  2.029989  0
