# generated using pymatgen
data_PrH7C7(NO4)2
_symmetry_space_group_name_H-M   'P 1'
_cell_length_a   7.94592169
_cell_length_b   8.73800553
_cell_length_c   8.69739805
_cell_angle_alpha   115.75477437
_cell_angle_beta   100.49405160
_cell_angle_gamma   96.78755101
_symmetry_Int_Tables_number   1
_chemical_formula_structural   PrH7C7(NO4)2
_chemical_formula_sum   'Pr2 H14 C14 N4 O16'
_cell_volume   521.34395295
_cell_formula_units_Z   2
loop_
 _symmetry_equiv_pos_site_id
 _symmetry_equiv_pos_as_xyz
  1  'x, y, z'
loop_
 _atom_site_type_symbol
 _atom_site_label
 _atom_site_symmetry_multiplicity
 _atom_site_fract_x
 _atom_site_fract_y
 _atom_site_fract_z
 _atom_site_occupancy
 _atom_site_hle17_bader_spin_density
 _atom_site_hle17_ddec_charge
 _atom_site_hle17_ddec_spin_density
 _atom_site_hle17_ddec_sum_bond_order
 _atom_site_hle17_magmom
 _atom_site_hse06_10hf_bader_spin_density
 _atom_site_hse06_10hf_ddec_charge
 _atom_site_hse06_10hf_ddec_spin_density
 _atom_site_hse06_10hf_ddec_sum_bond_order
 _atom_site_hse06_10hf_magmom
 _atom_site_hse06_bader_spin_density
 _atom_site_hse06_ddec_charge
 _atom_site_hse06_ddec_spin_density
 _atom_site_hse06_ddec_sum_bond_order
 _atom_site_hse06_magmom
 _atom_site_pbe_bader_spin_density
 _atom_site_pbe_cm5_charge
 _atom_site_pbe_ddec_charge
 _atom_site_pbe_ddec_spin_density
 _atom_site_pbe_ddec_sum_bond_order
 _atom_site_pbe_magmom
Pr  Pr0  1  0.16052692  0.91617408  0.17483925  1  0  2.256255  0  1.587558  0  0  2.072399  0  2.057808  0  0  2.174151  0  1.903672  0  0  1.443516  2.039776  0  2.090672  0
Pr  Pr1  1  0.83947416  0.08382820  0.82516428  1  0  2.256265  0  1.587584  0  0  2.072429  0  2.057799  0  0  2.174157  0  1.9037  0  0  1.443494  2.03979  0  2.090693  0
H  H2  1  0.17545362  0.56914443  0.45695539  1  0  0.10522  0  0.926964  0  0  0.108687  0  0.995297  0  0  0.112695  0  0.99198  0  0  0.126038  0.105754  0  0.997657  0
H  H3  1  0.82454563  0.43085523  0.54304439  1  0  0.105202  0  0.927006  0  0  0.108669  0  0.995333  0  0  0.112677  0  0.992016  0  0  0.126031  0.105732  0  0.997693  0
H  H4  1  0.52774985  0.41378031  0.74585741  1  0  0.098953  0  0.947017  0  0  0.104789  0  1.01234  0  0  0.108191  0  1.009246  0  0  0.124284  0.102283  0  1.014574  0
H  H5  1  0.47224752  0.58621675  0.25414206  1  0  0.09892  0  0.946984  0  0  0.104753  0  1.01231  0  0  0.108154  0  1.009218  0  0  0.124267  0.102254  0  1.014543  0
H  H6  1  0.48928280  0.64880130  0.03043917  1  0  0.092582  0  0.945233  0  0  0.097948  0  1.011696  0  0  0.100741  0  1.009986  0  0  0.128332  0.095922  0  1.012992  0
H  H7  1  0.51071585  0.35119575  0.96956053  1  0  0.092583  0  0.94525  0  0  0.097957  0  1.011696  0  0  0.100752  0  1.009993  0  0  0.128331  0.09593  0  1.012996  0
H  H8  1  0.84035156  0.87864113  0.33751211  1  0  0.440089  0  0.851313  0  0  0.412478  0  0.909605  0  0  0.423973  0  0.892866  0  0  0.301582  0.404455  0  0.921365  0
H  H9  1  0.15965183  0.12135983  0.66248782  1  0  0.440112  0  0.851315  0  0  0.412493  0  0.909595  0  0  0.423989  0  0.892855  0  0  0.301594  0.40447  0  0.921357  0
H  H10  1  0.97664722  0.78867171  0.38881197  1  0  0.440577  0  0.855997  0  0  0.41231  0  0.916075  0  0  0.422741  0  0.900975  0  0  0.30344  0.40493  0  0.926911  0
H  H11  1  0.02335172  0.21132665  0.61118835  1  0  0.440603  0  0.85597  0  0  0.412319  0  0.916076  0  0  0.42275  0  0.900976  0  0  0.303419  0.404939  0  0.926912  0
H  H12  1  0.32601337  0.31057954  0.37807569  1  0  0.389001  0  0.934168  0  0  0.345706  0  1.019309  0  0  0.356724  0  1.004108  0  0  0.285614  0.337887  0  1.030263  0
H  H13  1  0.67398489  0.68942142  0.62192333  1  0  0.389003  0  0.934162  0  0  0.345712  0  1.019299  0  0  0.35673  0  1.004098  0  0  0.285601  0.337891  0  1.030258  0
H  H14  1  0.22542334  0.26997965  0.18431436  1  0  0.43174  0  0.858781  0  0  0.403828  0  0.92056  0  0  0.414568  0  0.905005  0  0  0.302808  0.396106  0  0.931932  0
H  H15  1  0.77457592  0.73002001  0.81568427  1  0  0.431778  0  0.858726  0  0  0.403863  0  0.920513  0  0  0.414603  0  0.904959  0  0  0.302825  0.396144  0  0.931882  0
C  C16  1  0.10542163  0.83355655  0.74274329  1  0  0.646341  0  3.939386  0  0  0.593258  0  4.234511  0  0  0.627143  0  4.23057  0  0  0.222195  0.569887  0  4.241032  0
C  C17  1  0.89457760  0.16644311  0.25725764  1  0  0.646376  0  3.939349  0  0  0.593276  0  4.234503  0  0  0.62716  0  4.230565  0  0  0.222177  0.569907  0  4.24102  0
C  C18  1  0.22515889  0.71357262  0.74190422  1  0  0.069749  0  3.731587  0  0  0.078224  0  3.975196  0  0  0.075089  0  3.99518  0  0  0.131739  0.079923  0  3.963232  0
C  C19  1  0.77484131  0.28642574  0.25809747  1  0  0.069695  0  3.7315  0  0  0.078159  0  3.975138  0  0  0.075024  0  3.995119  0  0  0.131748  0.079858  0  3.963166  0
C  C20  1  0.24503140  0.58447119  0.58490735  1  0  0.096098  0  3.613858  0  0  0.058985  0  3.865328  0  0  0.062687  0  3.879969  0  0  0.072214  0.056728  0  3.855029  0
C  C21  1  0.75496783  0.41552848  0.41509358  1  0  0.096112  0  3.613881  0  0  0.059008  0  3.865345  0  0  0.06271  0  3.879984  0  0  0.072201  0.056755  0  3.855039  0
C  C22  1  0.43732406  0.49816403  0.74401643  1  0  0.103167  0  3.619894  0  0  0.071176  0  3.880468  0  0  0.075759  0  3.892478  0  0  0.070475  0.068338  0  3.871882  0
C  C23  1  0.56267489  0.50183433  0.25598273  1  0  0.103163  0  3.619949  0  0  0.071191  0  3.880511  0  0  0.075774  0  3.892524  0  0  0.070485  0.068344  0  3.871933  0
C  C24  1  0.41712903  0.62774510  0.90132417  1  0  0.115963  0  3.646451  0  0  0.0901  0  3.905873  0  0  0.092224  0  3.922638  0  0  0.076912  0.088435  0  3.896023  0
C  C25  1  0.58286862  0.37225326  0.09867591  1  0  0.11598  0  3.646468  0  0  0.090108  0  3.905889  0  0  0.092224  0  3.92266  0  0  0.076932  0.088439  0  3.896048  0
C  C26  1  0.44283084  0.02555655  0.56690087  1  0  0.560555  0  3.92956  0  0  0.51898  0  4.223923  0  0  0.548053  0  4.220257  0  0  0.21927  0.499053  0  4.229267  0
C  C27  1  0.55716815  0.97444180  0.43309484  1  0  0.560495  0  3.929674  0  0  0.51888  0  4.224061  0  0  0.54795  0  4.220397  0  0  0.219256  0.498948  0  4.229404  0
C  C28  1  0.07222552  0.49509501  0.07135718  1  0  0.576728  0  3.889692  0  0  0.5331  0  4.185772  0  0  0.563502  0  4.180624  0  0  0.222029  0.512284  0  4.191924  0
C  C29  1  0.92777909  0.50491115  0.92864060  1  0  0.576774  0  3.889478  0  0  0.533127  0  4.185579  0  0  0.563527  0  4.18043  0  0  0.222041  0.512301  0  4.191735  0
N  N30  1  0.30783677  0.73219647  0.90025542  1  0  -0.322785  0  3.183558  0  0  -0.280901  0  3.438974  0  0  -0.293539  0  3.456431  0  0  -0.320192  -0.275805  0  3.428271  0
N  N31  1  0.69216217  0.26780189  0.09974489  1  0  -0.322723  0  3.183396  0  0  -0.280834  0  3.438822  0  0  -0.29347  0  3.456284  0  0  -0.320175  -0.275733  0  3.428115  0
N  N32  1  0.34864379  0.47465403  0.58627327  1  0  -0.241719  0  3.14666  0  0  -0.184403  0  3.396847  0  0  -0.194005  0  3.41053  0  0  -0.2789  -0.177666  0  3.387064  0
N  N33  1  0.65135546  0.52534563  0.41372650  1  0  -0.241714  0  3.146699  0  0  -0.184412  0  3.396887  0  0  -0.194014  0  3.410571  0  0  -0.278907  -0.177674  0  3.387107  0
O  O34  1  0.10424148  0.95405599  0.89476965  1  0  -0.766809  0  2.103806  0  0  -0.700118  0  2.350074  0  0  -0.736889  0  2.339836  0  0  -0.413159  -0.682344  0  2.356463  0
O  O35  1  0.89576061  0.04594497  0.10523120  1  0  -0.766788  0  2.103758  0  0  -0.700096  0  2.35004  0  0  -0.736866  0  2.339802  0  0  -0.413155  -0.682324  0  2.356427  0
O  O36  1  0.00830975  0.81105338  0.60035425  1  0  -0.6388  0  2.04207  0  0  -0.587842  0  2.277884  0  0  -0.615305  0  2.269939  0  0  -0.296844  -0.570907  0  2.283431  0
O  O37  1  0.99169177  0.18894498  0.39964536  1  0  -0.638844  0  2.042055  0  0  -0.587861  0  2.277869  0  0  -0.615329  0  2.269932  0  0  -0.296845  -0.570929  0  2.283413  0
O  O38  1  0.28456601  0.02482478  0.50532460  1  0  -0.671452  0  2.083156  0  0  -0.61275  0  2.319408  0  0  -0.642724  0  2.308873  0  0  -0.353762  -0.596075  0  2.325104  0
O  O39  1  0.71544217  0.97517491  0.49467907  1  0  -0.67142  0  2.083062  0  0  -0.612698  0  2.319309  0  0  -0.642671  0  2.30878  0  0  -0.353724  -0.596012  0  2.324996  0
O  O40  1  0.51422279  0.06419819  0.72468935  1  0  -0.6416  0  2.029356  0  0  -0.59711  0  2.272906  0  0  -0.625171  0  2.262708  0  0  -0.359249  -0.581822  0  2.278474  0
O  O41  1  0.48578398  0.93580670  0.27531747  1  0  -0.641576  0  2.029569  0  0  -0.597076  0  2.273141  0  0  -0.625137  0  2.262944  0  0  -0.359277  -0.581795  0  2.278712  0
O  O42  1  0.19103591  0.63075035  0.17248786  1  0  -0.661913  0  2.045545  0  0  -0.615633  0  2.294211  0  0  -0.645393  0  2.284801  0  0  -0.365337  -0.598894  0  2.298862  0
O  O43  1  0.80896666  0.36924668  0.82750563  1  0  -0.662013  0  2.045358  0  0  -0.615723  0  2.294004  0  0  -0.64548  0  2.284598  0  0  -0.365391  -0.598974  0  2.298654  0
O  O44  1  0.05885913  0.35083860  0.07587408  1  0  -0.671877  0  2.092571  0  0  -0.61357  0  2.328782  0  0  -0.644025  0  2.31933  0  0  -0.353063  -0.59597  0  2.33368  0
O  O45  1  0.94113913  0.64916236  0.92412494  1  0  -0.671846  0  2.092592  0  0  -0.613524  0  2.328807  0  0  -0.643987  0  2.319369  0  0  -0.353042  -0.595923  0  2.333707  0
O  O46  1  0.92389113  0.80705897  0.28771304  1  0  -0.903583  0  1.843405  0  0  -0.85756  0  2.028098  0  0  -0.882635  0  1.99365  0  0  -0.643126  -0.844042  0  2.049283  0
O  O47  1  0.07611096  0.19294200  0.71228780  1  0  -0.90361  0  1.843374  0  0  -0.85758  0  2.028031  0  0  -0.882655  0  1.99359  0  0  -0.643107  -0.844057  0  2.049216  0
O  O48  1  0.29686030  0.22073610  0.24924152  1  0  -0.902485  0  1.903352  0  0  -0.852086  0  2.106617  0  0  -0.878545  0  2.073376  0  0  -0.6468  -0.838236  0  2.12741  0
O  O49  1  0.70313798  0.77926485  0.75075635  1  0  -0.902525  0  1.903302  0  0  -0.852134  0  2.106574  0  0  -0.878586  0  2.073329  0  0  -0.646793  -0.838283  0  2.127372  0
