# generated using pymatgen
data_AlH6C21N3(OF)6
_symmetry_space_group_name_H-M   'P 1'
_cell_length_a   3.96746803
_cell_length_b   27.96671093
_cell_length_c   27.96774086
_cell_angle_alpha   120.01345583
_cell_angle_beta   90.00266622
_cell_angle_gamma   90.01020571
_symmetry_Int_Tables_number   1
_chemical_formula_structural   AlH6C21N3(OF)6
_chemical_formula_sum   'Al2 H12 C42 N6 O12 F12'
_cell_volume   2687.10065048
_cell_formula_units_Z   2
loop_
 _symmetry_equiv_pos_site_id
 _symmetry_equiv_pos_as_xyz
  1  'x, y, z'
loop_
 _atom_site_type_symbol
 _atom_site_label
 _atom_site_symmetry_multiplicity
 _atom_site_fract_x
 _atom_site_fract_y
 _atom_site_fract_z
 _atom_site_occupancy
 _atom_site_pbe_bader_charge
 _atom_site_pbe_bader_spin_density
 _atom_site_pbe_cm5_charge
 _atom_site_pbe_ddec_charge
 _atom_site_pbe_ddec_spin_density
 _atom_site_pbe_ddec_sum_bond_order
 _atom_site_pbe_magmom
Al  Al0  1  0.98726574  0.49999995  0.50001289  1  2.505622  0  0.430548  1.595625  0  2.575491  0
Al  Al1  1  0.99519833  0.16667878  0.83332948  1  2.505239  0  0.428485  1.593695  0  2.579365  0
H  H2  1  0.31688387  0.18314909  0.69379796  1  0.092135  0  0.117887  0.130223  0  0.966098  0
H  H3  1  0.34330100  0.23749351  0.64447186  1  0.087397  0  0.112926  0.120351  0  0.999793  0
H  H4  1  0.56432724  0.28468273  0.53622120  1  0.146874  0  0.122184  0.153946  0  0.971574  0
H  H5  1  0.44086764  0.43362371  0.69435910  1  0.146053  0  0.122832  0.155185  0  0.98601  0
H  H6  1  0.31678922  0.01066980  0.81682997  1  0.139426  0  0.117984  0.130364  0  0.966068  0
H  H7  1  0.34333864  0.90699485  0.76250452  1  0.106198  0  0.112928  0.120518  0  0.999703  0
H  H8  1  0.56453127  0.75156363  0.71532149  1  0.081164  0  0.122159  0.153934  0  0.971365  0
H  H9  1  0.44106474  0.76071778  0.56637259  1  0.153204  0  0.12285  0.155322  0  0.985615  0
H  H10  1  0.31688089  0.30617548  0.98936126  1  0.097773  0  0.117942  0.130398  0  0.965805  0
H  H11  1  0.34339405  0.35550384  0.09303556  1  0.141399  0  0.112915  0.120343  0  0.999846  0
H  H12  1  0.56423786  0.46375893  0.24846120  1  0.095672  0  0.1222  0.154015  0  0.971678  0
H  H13  1  0.44099590  0.30562684  0.23927476  1  0.194331  0  0.122863  0.155309  0  0.985881  0
C  C14  1  0.48823047  0.46291511  0.41544110  1  1.639225  0  0.282884  0.696246  0  4.052628  0
C  C15  1  0.48824759  0.45252581  0.53710243  1  1.63486  0  0.283108  0.696214  0  4.052519  0
C  C16  1  0.48841485  0.58456829  0.54749050  1  1.587119  0  0.283495  0.697158  0  4.051633  0
C  C17  1  0.49508651  0.21569362  0.79787127  1  1.608373  0  0.280379  0.674367  0  4.054713  0
C  C18  1  0.49493837  0.08219986  0.78429911  1  1.614397  0  0.280245  0.674052  0  4.055611  0
C  C19  1  0.49507658  0.20211874  0.91780312  1  1.613135  0  0.280277  0.673996  0  4.05485  0
C  C20  1  0.49513792  0.25002738  0.77089689  1  0.032381  0  -0.011669  -0.123973  0  3.969129  0
C  C21  1  0.39829806  0.22611798  0.71509827  1  0.025733  0  -0.078995  -0.077306  0  3.98447  0
C  C22  1  0.41195265  0.25587426  0.68782876  1  0.024801  0  -0.083807  -0.140766  0  3.983841  0
C  C23  1  0.51136564  0.31174611  0.71610016  1  0.36615  0  0.084174  0.076599  0  4.082378  0
C  C24  1  0.59659647  0.33631054  0.77230674  1  0.54977  0  0.104624  0.11872  0  4.042384  0
C  C25  1  0.59472453  0.30539068  0.79898111  1  0.530675  0  0.101491  0.165378  0  4.062741  0
C  C26  1  0.53723761  0.32935868  0.56041878  1  0.069646  0  -0.093521  -0.290572  0  3.953744  0
C  C27  1  0.50377671  0.35577791  0.61796571  1  0.325023  0  0.093504  0.220295  0  4.066777  0
C  C28  1  0.46378207  0.41333438  0.64965739  1  0.035127  0  -0.096016  -0.291746  0  3.948221  0
C  C29  1  0.45643339  0.44314610  0.62251979  1  0.451599  0  0.114154  0.312784  0  4.051449  0
C  C30  1  0.49372150  0.41878482  0.56490494  1  0.159698  0  -0.01784  -0.251388  0  3.923791  0
C  C31  1  0.53664519  0.36133366  0.53528235  1  0.413235  0  0.111676  0.30805  0  4.05456  0
C  C32  1  0.49497583  0.02088245  0.74995517  1  -0.031708  0  -0.011909  -0.124174  0  3.969658  0
C  C33  1  0.39820934  0.98900444  0.77386768  1  -0.104844  0  -0.079104  -0.077422  0  3.984732  0
C  C34  1  0.41196602  0.93196571  0.74412300  1  0.083158  0  -0.083724  -0.140987  0  3.983723  0
C  C35  1  0.51138033  0.90436312  0.68825815  1  0.429109  0  0.084283  0.076917  0  4.082072  0
C  C36  1  0.59656792  0.93600194  0.66369860  1  0.411107  0  0.104867  0.118849  0  4.042418  0
C  C37  1  0.59458237  0.99361152  0.69460565  1  0.682674  0  0.101222  0.165168  0  4.063532  0
C  C38  1  0.53743385  0.73107880  0.67064469  1  0.016333  0  -0.093422  -0.290409  0  3.95373  0
C  C39  1  0.50394331  0.76218722  0.64422175  1  0.371833  0  0.093286  0.220018  0  4.067009  0
C  C40  1  0.46401512  0.73631432  0.58666743  1  0.112694  0  -0.095806  -0.291645  0  3.947491  0
C  C41  1  0.45671306  0.67935242  0.55685645  1  0.422044  0  0.114057  0.312523  0  4.051548  0
C  C42  1  0.49392760  0.64611611  0.58122888  1  0.147084  0  -0.017861  -0.251388  0  3.924038  0
C  C43  1  0.53685623  0.67395090  0.63867831  1  0.519654  0  0.111773  0.307822  0  4.054876  0
C  C44  1  0.49509103  0.22907550  0.97911974  1  0.02324  0  -0.011832  -0.123839  0  3.968963  0
C  C45  1  0.39830645  0.28487796  0.01101845  1  -0.043515  0  -0.078834  -0.077383  0  3.983922  0
C  C46  1  0.41205239  0.31214721  0.06805676  1  0.029542  0  -0.083874  -0.141086  0  3.983656  0
C  C47  1  0.51142284  0.28387497  0.09563831  1  0.329917  0  0.08415  0.077194  0  4.081901  0
C  C48  1  0.59668638  0.22767404  0.06399033  1  0.59874  0  0.104938  0.118858  0  4.042702  0
C  C49  1  0.59470135  0.20099410  0.00638528  1  0.550431  0  0.101194  0.165045  0  4.062886  0
C  C50  1  0.53714386  0.43956988  0.26893806  1  0.10279  0  -0.093253  -0.290301  0  3.95371  0
C  C51  1  0.50376430  0.38202276  0.23782537  1  0.395567  0  0.093427  0.220072  0  4.067426  0
C  C52  1  0.46388780  0.35033639  0.26368184  1  -0.108865  0  -0.095892  -0.291676  0  3.948343  0
C  C53  1  0.45659255  0.37748139  0.32064191  1  0.546589  0  0.113918  0.312289  0  4.051881  0
C  C54  1  0.49370267  0.43510884  0.35389240  1  0.103221  0  -0.017807  -0.251365  0  3.923954  0
C  C55  1  0.53655460  0.46472178  0.32606256  1  0.401658  0  0.111778  0.308159  0  4.054353  0
N  N56  1  0.52034254  0.34621188  0.69304791  1  -0.39611  0  -0.143191  -0.099413  0  3.272311  0
N  N57  1  0.51144986  0.32067215  0.64070177  1  -0.520484  0  -0.142905  -0.12914  0  3.234021  0
N  N58  1  0.52038017  0.84683201  0.65379070  1  -0.411188  0  -0.143349  -0.099607  0  3.272854  0
N  N59  1  0.51154369  0.82004238  0.67933162  1  -0.562635  0  -0.142824  -0.129016  0  3.234598  0
N  N60  1  0.52043308  0.30693255  0.15316039  1  -0.411777  0  -0.143209  -0.099654  0  3.272128  0
N  N61  1  0.51142226  0.35927601  0.17998195  1  -0.522592  0  -0.143107  -0.129198  0  3.234364  0
O  O62  1  0.72313575  0.55861881  0.55576900  1  -1.23627  0  -0.228072  -0.585273  0  2.360854  0
O  O63  1  0.72305559  0.49714899  0.44140211  1  -1.242318  0  -0.227827  -0.584901  0  2.360679  0
O  O64  1  0.72298450  0.44424614  0.50286771  1  -1.234557  0  -0.227942  -0.584957  0  2.360847  0
O  O65  1  0.24988291  0.56267865  0.51287909  1  -1.238958  0  -0.226692  -0.584389  0  2.365788  0
O  O66  1  0.24978508  0.48713482  0.54983108  1  -1.23746  0  -0.226463  -0.583604  0  2.365756  0
O  O67  1  0.24974087  0.45018143  0.43731535  1  -1.239341  0  -0.226273  -0.583645  0  2.365799  0
O  O68  1  0.73161273  0.16831889  0.89144661  1  -1.243856  0  -0.233052  -0.59189  0  2.374485  0
O  O69  1  0.73162451  0.22315368  0.83167961  1  -1.237479  0  -0.232961  -0.591619  0  2.374183  0
O  O70  1  0.73145030  0.10855721  0.77684875  1  -1.240902  0  -0.232977  -0.591686  0  2.374688  0
O  O71  1  0.26038594  0.21604085  0.89603956  1  -1.249757  0  -0.232321  -0.588289  0  2.35379  0
O  O72  1  0.26019367  0.10396405  0.81997396  1  -1.250555  0  -0.232389  -0.588394  0  2.354145  0
O  O73  1  0.26028429  0.18001480  0.78396161  1  -1.247457  0  -0.232472  -0.588576  0  2.353927  0
F  F74  1  0.68208567  0.33122164  0.85280944  1  -0.613009  0  -0.087449  -0.101777  0  1.362494  0
F  F75  1  0.68761497  0.38977472  0.80130527  1  -0.610821  0  -0.083881  -0.099925  0  1.373101  0
F  F76  1  0.56899508  0.33562296  0.47971568  1  -0.637612  0  -0.088139  -0.120407  0  1.322454  0
F  F77  1  0.42153903  0.49867396  0.65280955  1  -0.633808  0  -0.08817  -0.120017  0  1.321913  0
F  F78  1  0.68185191  0.02159803  0.66878191  1  -0.617163  0  -0.087238  -0.101446  0  1.36331  0
F  F79  1  0.68767149  0.91152773  0.61024576  1  -0.61077  0  -0.083941  -0.100059  0  1.373142  0
F  F80  1  0.56922829  0.64410817  0.66438926  1  -0.623997  0  -0.088207  -0.120281  0  1.322758  0
F  F81  1  0.42189443  0.65410259  0.50133027  1  -0.618803  0  -0.087999  -0.119722  0  1.322006  0
F  F82  1  0.68197243  0.14716544  0.97837460  1  -0.614126  0  -0.087319  -0.101647  0  1.362596  0
F  F83  1  0.68781416  0.19868925  0.08843650  1  -0.614666  0  -0.083763  -0.099804  0  1.373533  0
F  F84  1  0.56884919  0.52029615  0.35592042  1  -0.622562  0  -0.088361  -0.120585  0  1.322288  0
F  F85  1  0.42193923  0.34720642  0.34588122  1  -0.620851  0  -0.087949  -0.119652  0  1.322297  0
