# generated using pymatgen
data_ZnH18C21N2ClO2
_symmetry_space_group_name_H-M   'P 1'
_cell_length_a   9.41785504
_cell_length_b   9.42903597
_cell_length_c   12.16692153
_cell_angle_alpha   97.94071290
_cell_angle_beta   108.86730571
_cell_angle_gamma   110.94735903
_symmetry_Int_Tables_number   1
_chemical_formula_structural   ZnH18C21N2ClO2
_chemical_formula_sum   'Zn2 H36 C42 N4 Cl2 O4'
_cell_volume   914.60606283
_cell_formula_units_Z   2
loop_
 _symmetry_equiv_pos_site_id
 _symmetry_equiv_pos_as_xyz
  1  'x, y, z'
loop_
 _atom_site_type_symbol
 _atom_site_label
 _atom_site_symmetry_multiplicity
 _atom_site_fract_x
 _atom_site_fract_y
 _atom_site_fract_z
 _atom_site_occupancy
 _atom_site_pbe_bader_spin_density
 _atom_site_pbe_cm5_charge
 _atom_site_pbe_ddec_charge
 _atom_site_pbe_ddec_spin_density
 _atom_site_pbe_ddec_sum_bond_order
 _atom_site_pbe_magmom
Zn  Zn0  1  0.97057263  0.58816232  0.82531550  1  0  0.62343  0.693265  0  2.490606  0
Zn  Zn1  1  0.02942720  0.41183401  0.17468764  1  0  0.623428  0.693232  0  2.490623  0
H  H2  1  0.67206255  0.38886133  0.47830054  1  0  0.097971  0.098838  0  1.044445  0
H  H3  1  0.32793658  0.61114337  0.52169431  1  0  0.09794  0.098753  0  1.044472  0
H  H4  1  0.64389390  0.52133472  0.84961805  1  0  0.114601  0.092146  0  1.053483  0
H  H5  1  0.35610648  0.47866282  0.15038207  1  0  0.114607  0.092173  0  1.053476  0
H  H6  1  0.71903964  0.69576659  0.68173004  1  0  0.114413  0.085233  0  1.018353  0
H  H7  1  0.28096683  0.30423444  0.31827774  1  0  0.114373  0.08519  0  1.018429  0
H  H8  1  0.65689936  0.15107506  0.81713278  1  0  0.096803  0.099472  0  1.043293  0
H  H9  1  0.34309866  0.84892966  0.18286097  1  0  0.096786  0.099451  0  1.043256  0
H  H10  1  0.05803897  0.99472859  0.18684339  1  0  0.10654  0.116388  0  1.005478  0
H  H11  1  0.94196298  0.00527489  0.81315778  1  0  0.106513  0.116363  0  1.005504  0
H  H12  1  0.62309427  0.72491384  0.47297075  1  0  0.104668  0.120806  0  1.063114  0
H  H13  1  0.37690888  0.27508485  0.52703348  1  0  0.104635  0.12076  0  1.063105  0
H  H14  1  0.56467134  0.91518175  0.88808561  1  0  0.09733  0.100243  0  1.01696  0
H  H15  1  0.43532892  0.08482297  0.11190623  1  0  0.097316  0.100205  0  1.016939  0
H  H16  1  0.05383885  0.68740430  0.44517541  1  0  0.106375  0.122197  0  1.02472  0
H  H17  1  0.94615933  0.31259088  0.55482390  1  0  0.106359  0.122164  0  1.02474  0
H  H18  1  0.13022108  0.85459693  0.03954344  1  0  0.107186  0.074447  0  1.051968  0
H  H19  1  0.86977979  0.14540419  0.96045474  1  0  0.107191  0.074459  0  1.051976  0
H  H20  1  0.59381992  0.35491147  0.25886988  1  0  0.097695  0.099992  0  1.019954  0
H  H21  1  0.40618253  0.64509561  0.74112524  1  0  0.097678  0.099967  0  1.019888  0
H  H22  1  0.54738813  0.65020368  0.98717967  1  0  0.101602  0.120563  0  1.021959  0
H  H23  1  0.45261449  0.34979383  0.01282429  1  0  0.101614  0.12054  0  1.021987  0
H  H24  1  0.95574570  0.96316601  0.35345454  1  0  0.086756  0.079448  0  1.001388  0
H  H25  1  0.04425364  0.03682675  0.64654973  1  0  0.086728  0.079456  0  1.001324  0
H  H26  1  0.77522188  0.95307914  0.37364895  1  0  0.090411  0.088156  0  0.991702  0
H  H27  1  0.22477791  0.04691956  0.62635445  1  0  0.090408  0.088124  0  0.991623  0
H  H28  1  0.60785254  0.85686004  0.15311579  1  0  0.092962  0.10094  0  1.000489  0
H  H29  1  0.39214797  0.14313034  0.84688687  1  0  0.092969  0.100949  0  1.00047  0
H  H30  1  0.78314810  0.03760109  0.19104620  1  0  0.09368  0.100604  0  1.010988  0
H  H31  1  0.21685066  0.96239287  0.80895642  1  0  0.093692  0.100625  0  1.011033  0
H  H32  1  0.63644996  0.65821185  0.27260312  1  0  0.097928  0.109709  0  0.991637  0
H  H33  1  0.36354370  0.34178568  0.72740273  1  0  0.097948  0.10976  0  0.991623  0
H  H34  1  0.82489445  0.66945348  0.26270106  1  0  0.09323  0.101769  0  1.00196  0
H  H35  1  0.17509535  0.33054053  0.73729932  1  0  0.093235  0.101786  0  1.001981  0
H  H36  1  0.13351897  0.65883695  0.65576802  1  0  0.108787  0.07363  0  1.051333  0
H  H37  1  0.86648411  0.34116652  0.34423261  1  0  0.108793  0.073671  0  1.051287  0
C  C38  1  0.83114498  0.70930028  0.44208961  1  0  0.021331  0.183685  0  3.919749  0
C  C39  1  0.16885427  0.29069724  0.55791352  1  0  0.021325  0.18365  0  3.919733  0
C  C40  1  0.60026299  0.15217790  0.58470200  1  0  -0.010902  -0.119003  0  3.9268  0
C  C41  1  0.39973839  0.84782680  0.41529177  1  0  -0.010895  -0.11911  0  3.926797  0
C  C42  1  0.60034309  0.27054062  0.41430905  1  0  -0.093364  -0.131832  0  3.967199  0
C  C43  1  0.39965604  0.72946408  0.58568581  1  0  -0.093351  -0.13175  0  3.967199  0
C  C44  1  0.55328122  0.13685447  0.45972320  1  0  -0.009249  0.041418  0  4.002898  0
C  C45  1  0.44671904  0.86315025  0.54027029  1  0  -0.009207  0.041528  0  4.002835  0
C  C46  1  0.79469300  0.83425758  0.09928201  1  0  0.02014  0.181064  0  3.921619  0
C  C47  1  0.20531132  0.16573874  0.90072142  1  0  0.020096  0.180997  0  3.921814  0
C  C48  1  0.72961388  0.62654256  0.92578526  1  0  0.04424  0.096385  0  3.946912  0
C  C49  1  0.27038757  0.37345734  0.07421704  1  0  0.044225  0.096295  0  3.946894  0
C  C50  1  0.69967800  0.31439771  0.67451398  1  0  0.204249  0.577091  0  4.226334  0
C  C51  1  0.30032118  0.68560462  0.32548062  1  0  0.204264  0.577209  0  4.22606  0
C  C52  1  0.79175176  0.69785321  0.62766760  1  0  0.041848  0.093089  0  3.961092  0
C  C53  1  0.20825139  0.30214548  0.37233663  1  0  0.041879  0.093096  0  3.960962  0
C  C54  1  0.58712947  0.03312930  0.75226734  1  0  -0.090289  -0.1264  0  3.971964  0
C  C55  1  0.41286739  0.96687781  0.24772475  1  0  -0.090385  -0.126502  0  3.971806  0
C  C56  1  0.96069764  0.89092982  0.11304489  1  0  -0.082211  -0.170944  0  3.916438  0
C  C57  1  0.03930382  0.10907009  0.88695658  1  0  -0.082191  -0.170901  0  3.916372  0
C  C58  1  0.54739654  0.01874387  0.62639152  1  0  -0.008496  0.049598  0  3.996879  0
C  C59  1  0.45260148  0.98126085  0.37360224  1  0  -0.008453  0.049687  0  3.996802  0
C  C60  1  0.73951607  0.71511878  0.51202750  1  0  -0.083865  -0.182391  0  3.915179  0
C  C61  1  0.26048597  0.28487991  0.48797810  1  0  -0.08388  -0.18236  0  3.915074  0
C  C62  1  0.53652804  0.90193537  0.79201319  1  0  -0.095528  -0.085654  0  4.018447  0
C  C63  1  0.46346940  0.09807055  0.20797972  1  0  -0.095493  -0.085518  0  4.018225  0
C  C64  1  0.97729575  0.69148248  0.49532119  1  0  -0.08418  -0.188315  0  3.920912  0
C  C65  1  0.02270405  0.30851624  0.50468138  1  0  -0.084171  -0.188243  0  3.920895  0
C  C66  1  0.00280710  0.81365565  0.03209111  1  0  0.044368  0.09427  0  3.96131  0
C  C67  1  0.99719207  0.18634665  0.96790924  1  0  0.044325  0.094187  0  3.961197  0
C  C68  1  0.55563405  0.25196936  0.29213545  1  0  -0.095221  -0.086559  0  4.021856  0
C  C69  1  0.44436675  0.74803654  0.70785830  1  0  -0.095177  -0.086456  0  4.021819  0
C  C70  1  0.67855550  0.69899604  0.00283423  1  0  -0.08494  -0.185264  0  3.930483  0
C  C71  1  0.32144546  0.30100030  0.99716755  1  0  -0.084906  -0.185148  0  3.930546  0
C  C72  1  0.81951859  0.89708112  0.31487434  1  0  -0.156866  -0.117445  0  3.897256  0
C  C73  1  0.18047901  0.10291522  0.68512906  1  0  -0.156864  -0.117358  0  3.897059  0
C  C74  1  0.74402060  0.91138128  0.18671827  1  0  -0.160187  -0.212836  0  3.934059  0
C  C75  1  0.25597704  0.08861269  0.81328488  1  0  -0.160218  -0.2129  0  3.934092  0
C  C76  1  0.77272145  0.72342147  0.31571522  1  0  -0.161397  -0.213979  0  3.924617  0
C  C77  1  0.22727167  0.27657488  0.68428790  1  0  -0.161352  -0.214053  0  3.924576  0
C  C78  1  0.02186732  0.67490666  0.61182807  1  0  0.042497  0.091982  0  3.956016  0
C  C79  1  0.97813194  0.32509087  0.38817260  1  0  0.042445  0.091833  0  3.955989  0
N  N80  1  0.88955372  0.68330817  0.93944463  1  0  -0.338166  -0.237787  0  3.602075  0
N  N81  1  0.11044719  0.31669055  0.06055658  1  0  -0.338131  -0.237704  0  3.602012  0
N  N82  1  0.93020667  0.67597157  0.67687832  1  0  -0.341547  -0.252724  0  3.601698  0
N  N83  1  0.06979429  0.32402476  0.32312510  1  0  -0.341451  -0.252531  0  3.6015  0
Cl  Cl84  1  0.24501481  0.67071212  0.92497965  1  0  -0.322945  -0.507889  0  1.135087  0
Cl  Cl85  1  0.75498611  0.32928657  0.07502484  1  0  -0.322953  -0.5079  0  1.135126  0
O  O86  1  0.62581805  0.39894475  0.68622886  1  0  -0.303247  -0.535231  0  2.183328  0
O  O87  1  0.37418279  0.60105876  0.31376710  1  0  -0.303239  -0.535305  0  2.183218  0
O  O88  1  0.85682670  0.35701155  0.73340987  1  0  -0.328438  -0.532258  0  2.272474  0
O  O89  1  0.14317140  0.64298839  0.26658748  1  0  -0.32846  -0.532284  0  2.272453  0
