# generated using pymatgen
data_MnH5C10N3O4
_symmetry_space_group_name_H-M   'P 1'
_cell_length_a   11.16925038
_cell_length_b   12.70557808
_cell_length_c   14.36144531
_cell_angle_alpha   90.00016664
_cell_angle_beta   109.63789740
_cell_angle_gamma   89.99983031
_symmetry_Int_Tables_number   1
_chemical_formula_structural   MnH5C10N3O4
_chemical_formula_sum   'Mn4 H20 C40 N12 O16'
_cell_volume   1919.51539460
_cell_formula_units_Z   4
loop_
 _symmetry_equiv_pos_site_id
 _symmetry_equiv_pos_as_xyz
  1  'x, y, z'
loop_
 _atom_site_type_symbol
 _atom_site_label
 _atom_site_symmetry_multiplicity
 _atom_site_fract_x
 _atom_site_fract_y
 _atom_site_fract_z
 _atom_site_occupancy
 _atom_site_pbe_bader_charge
 _atom_site_pbe_bader_spin_density
 _atom_site_pbe_cm5_charge
 _atom_site_pbe_ddec_charge
 _atom_site_pbe_ddec_spin_density
 _atom_site_pbe_ddec_sum_bond_order
 _atom_site_pbe_magmom
Mn  Mn0  1  0.38869286  0.41703048  0.46861082  1  1.47631  4.5417  0.619406  0.934014  4.68251  2.396228  4.425
Mn  Mn1  1  0.61130630  0.91703034  0.03138628  1  1.477811  4.540736  0.619432  0.934018  4.682528  2.396248  4.425
Mn  Mn2  1  0.61130864  0.58297001  0.53138870  1  1.477772  4.540735  0.619465  0.934078  4.682548  2.396196  4.425
Mn  Mn3  1  0.38869235  0.08296935  0.96861180  1  1.476198  4.541731  0.61938  0.933945  4.682518  2.396309  4.425
H  H4  1  0.87754185  0.38441264  0.44455253  1  0.095341  0.000545  0.107797  0.11685  4.9e-05  1.013481  0.0
H  H5  1  0.12245928  0.88441542  0.05544779  1  0.095313  0.000545  0.107812  0.116847  4.9e-05  1.01348  0.0
H  H6  1  0.12245681  0.61558234  0.55544485  1  0.095262  0.000545  0.107786  0.116804  4.9e-05  1.01346  0.0
H  H7  1  0.87754030  0.11558900  0.94455610  1  0.095125  0.000545  0.107814  0.11689  4.9e-05  1.013408  0.0
H  H8  1  0.87866712  0.13587579  0.23814940  1  0.083123  0.000541  0.108476  0.116778  7.3e-05  1.012023  0.0
H  H9  1  0.12133372  0.63587531  0.26184810  1  0.083172  0.000541  0.108495  0.1168  7.3e-05  1.012078  0.0
H  H10  1  0.12133346  0.86412154  0.76184709  1  0.083162  0.000541  0.108503  0.116817  7.3e-05  1.012054  0.0
H  H11  1  0.87866875  0.36412124  0.73815029  1  0.083159  0.000541  0.108482  0.116801  7.3e-05  1.012046  0.0
H  H12  1  0.52536149  0.25402910  0.25396548  1  0.172202  0.000478  0.11989  0.133111  -0.000334  0.98075  0.0
H  H13  1  0.47463617  0.75402766  0.24603427  1  0.172159  0.000478  0.119871  0.133039  -0.000334  0.980881  0.0
H  H14  1  0.47463622  0.74597059  0.74603234  1  0.17217  0.000478  0.11987  0.133035  -0.000334  0.980905  0.0
H  H15  1  0.52536057  0.24597046  0.75396608  1  0.172197  0.000478  0.119876  0.133086  -0.000334  0.980748  0.0
H  H16  1  0.07545027  0.42868233  0.39172236  1  0.147007  0.000388  0.156115  0.127273  4.3e-05  0.964656  0.0
H  H17  1  0.92454981  0.92868243  0.10827501  1  0.147009  0.000388  0.15611  0.127274  4.3e-05  0.964643  0.0
H  H18  1  0.92454744  0.57131737  0.60827407  1  0.147052  0.000388  0.156108  0.127278  4.3e-05  0.964581  0.0
H  H19  1  0.07545170  0.07131885  0.89172312  1  0.147031  0.000388  0.156131  0.12731  4.3e-05  0.964617  0.0
H  H20  1  0.07676013  0.09600876  0.38788598  1  0.151252  0.000824  0.150794  0.122337  0.000544  0.958556  0.0
H  H21  1  0.92324460  0.59600965  0.11211454  1  0.151236  0.000823  0.150778  0.122323  0.000544  0.95853  0.0
H  H22  1  0.92324327  0.90399094  0.61211474  1  0.151219  0.000823  0.150794  0.122347  0.000544  0.958573  0.0
H  H23  1  0.07675691  0.40399319  0.88788499  1  0.151192  0.000824  0.15078  0.12232  0.000544  0.958534  0.0
C  C24  1  0.62584646  0.39681453  0.40287103  1  1.587124  0.017443  0.227693  0.598409  0.017856  4.172762  0.015
C  C25  1  0.37415559  0.89680893  0.09713026  1  1.587932  0.017439  0.227705  0.598381  0.017855  4.173017  0.015
C  C26  1  0.37415694  0.60318989  0.59713039  1  1.587929  0.017439  0.227658  0.598305  0.017856  4.173115  0.015
C  C27  1  0.62584399  0.10319234  0.90287293  1  1.587413  0.01744  0.227771  0.598446  0.017855  4.172925  0.015
C  C28  1  0.69496581  0.32612888  0.35394051  1  0.071475  0.003193  -0.005814  -0.001376  0.001767  3.960425  0.002
C  C29  1  0.30503927  0.82613069  0.14606140  1  0.071602  0.003191  -0.005866  -0.001397  0.001766  3.960538  0.002
C  C30  1  0.30503949  0.67386846  0.64606072  1  0.071586  0.003191  -0.005845  -0.001389  0.001766  3.960603  0.002
C  C31  1  0.69496506  0.17387373  0.85394375  1  0.071533  0.003192  -0.005807  -0.001321  0.001767  3.960387  0.002
C  C32  1  0.82780191  0.32944935  0.38614334  1  -0.020612  0.006444  -0.083484  -0.18351  0.004847  3.96303  0.004
C  C33  1  0.17220126  0.82945297  0.11385807  1  -0.020488  0.006446  -0.083393  -0.183398  0.004849  3.962933  0.004
C  C34  1  0.17220054  0.67054642  0.61385713  1  -0.020481  0.006447  -0.083379  -0.183341  0.004849  3.962976  0.004
C  C35  1  0.82780117  0.17055145  0.88614658  1  -0.020468  0.006445  -0.083517  -0.183629  0.004847  3.962939  0.004
C  C36  1  0.89324808  0.26065421  0.34480551  1  0.239304  0.000215  0.084338  0.150637  -4e-06  4.069437  0.0
C  C37  1  0.10675052  0.76065736  0.15519382  1  0.239172  0.000214  0.08431  0.150552  -5e-06  4.069452  0.0
C  C38  1  0.10675058  0.73934155  0.65519257  1  0.239135  0.000213  0.084283  0.150558  -6e-06  4.069584  0.0
C  C39  1  0.89324812  0.23934628  0.84480773  1  0.238654  0.000215  0.08437  0.150748  -5e-06  4.069352  0.0
C  C40  1  0.82831142  0.18936974  0.27142218  1  -0.063188  0.006429  -0.082708  -0.182038  0.004897  3.96129  0.004
C  C41  1  0.17168833  0.68937217  0.22857587  1  -0.063066  0.006432  -0.082684  -0.182007  0.004899  3.961213  0.004
C  C42  1  0.17168725  0.81062523  0.72857520  1  -0.063026  0.006433  -0.0827  -0.182038  0.0049  3.961184  0.004
C  C43  1  0.82831128  0.31062753  0.77142315  1  -0.062511  0.006429  -0.082712  -0.182114  0.004897  3.961293  0.004
C  C44  1  0.69544293  0.18775324  0.23797622  1  0.062599  0.003306  -0.005087  0.000164  0.001822  3.957931  0.002
C  C45  1  0.30456251  0.68775701  0.26202542  1  0.062598  0.003305  -0.00519  -2e-05  0.001821  3.958015  0.002
C  C46  1  0.30456142  0.81224016  0.76202475  1  0.062722  0.003304  -0.00512  8.1e-05  0.001821  3.957858  0.002
C  C47  1  0.69544185  0.31224426  0.73797416  1  0.062481  0.003307  -0.005157  0.0001  0.001822  3.958034  0.002
C  C48  1  0.62883954  0.25590221  0.27942816  1  -0.078854  0.007387  -0.060246  -0.090201  0.005193  3.876092  0.004
C  C49  1  0.37116667  0.75590567  0.22057387  1  -0.079043  0.007387  -0.060187  -0.09006  0.005193  3.876202  0.004
C  C50  1  0.37116576  0.74409198  0.72057307  1  -0.07907  0.007387  -0.060211  -0.090094  0.005193  3.876239  0.004
C  C51  1  0.62883959  0.24409875  0.77942761  1  -0.078848  0.007387  -0.060207  -0.090139  0.005193  3.876014  0.004
C  C52  1  0.62671190  0.11312377  0.15620865  1  1.600499  0.017111  0.22594  0.596634  0.017569  4.176321  0.015
C  C53  1  0.37329182  0.61313314  0.34379443  1  1.600314  0.017114  0.22597  0.596823  0.017571  4.176141  0.015
C  C54  1  0.37329245  0.88686569  0.84379371  1  1.60033  0.017113  0.22596  0.596762  0.017572  4.176135  0.015
C  C55  1  0.62670872  0.38687285  0.65620693  1  1.60092  0.017112  0.226016  0.596656  0.017572  4.176277  0.015
C  C56  1  0.10725611  0.34755809  0.39895115  1  1.009413  0.018993  0.172201  0.093308  0.015713  3.872929  0.014
C  C57  1  0.89274322  0.84755824  0.10104859  1  1.009414  0.018992  0.172225  0.093285  0.015713  3.872881  0.014
C  C58  1  0.89274350  0.65244318  0.60104717  1  1.008931  0.018995  0.172219  0.093332  0.015714  3.87282  0.014
C  C59  1  0.10725543  0.15244303  0.89895157  1  1.008921  0.018995  0.172215  0.093263  0.015713  3.872956  0.014
C  C60  1  0.10985208  0.17679844  0.39613790  1  0.959008  0.0027  0.155627  0.070489  0.001974  3.93816  0.002
C  C61  1  0.89014958  0.67679861  0.10386341  1  0.959037  0.002701  0.15566  0.070494  0.001974  3.938128  0.002
C  C62  1  0.89014941  0.82320283  0.60386440  1  0.959009  0.002701  0.155622  0.070456  0.001974  3.938195  0.002
C  C63  1  0.10985001  0.32320266  0.89613770  1  0.959035  0.002701  0.15566  0.07049  0.001974  3.938167  0.002
N  N64  1  0.02909012  0.26203194  0.37833291  1  -1.266878  0.006133  -0.21347  -0.014365  0.003527  3.792382  0.003
N  N65  1  0.97091039  0.76203275  0.12166622  1  -1.266902  0.006133  -0.213507  -0.014281  0.003527  3.792206  0.003
N  N66  1  0.97091139  0.73796854  0.62166661  1  -1.266901  0.006133  -0.213479  -0.014362  0.003528  3.792277  0.003
N  N67  1  0.02908827  0.23796774  0.87833324  1  -1.266911  0.006133  -0.213496  -0.014334  0.003527  3.792421  0.003
N  N68  1  0.22692427  0.31570111  0.42701438  1  -0.748119  0.058887  -0.224899  -0.172185  0.033724  3.465009  0.007
N  N69  1  0.77307609  0.81570227  0.07298695  1  -0.748151  0.058885  -0.224894  -0.172163  0.033722  3.464962  0.007
N  N70  1  0.77307438  0.68430016  0.57298578  1  -0.7477  0.058886  -0.224909  -0.172234  0.033725  3.46493  0.007
N  N71  1  0.22692446  0.18429979  0.92701441  1  -0.747664  0.058886  -0.224929  -0.172203  0.033724  3.464915  0.007
N  N72  1  0.22925919  0.20730777  0.42565090  1  -0.718668  0.011147  -0.215758  -0.185479  0.007141  3.136127  0.008
N  N73  1  0.77074239  0.70730736  0.07435047  1  -0.718627  0.011147  -0.215746  -0.185484  0.007141  3.136025  0.008
N  N74  1  0.77074230  0.79269508  0.57435141  1  -0.718595  0.011147  -0.21572  -0.185417  0.007141  3.135962  0.008
N  N75  1  0.22925815  0.29269470  0.92565089  1  -0.718577  0.011146  -0.215746  -0.18545  0.007141  3.135988  0.008
O  O76  1  0.51368943  0.13780906  0.10406541  1  -1.189909  0.077538  -0.30397  -0.54859  0.052451  2.308503  0.036
O  O77  1  0.48631807  0.63780413  0.39592898  1  -1.189874  0.077526  -0.303952  -0.548638  0.052451  2.308507  0.036
O  O78  1  0.48631878  0.86219615  0.89592683  1  -1.189946  0.077531  -0.303953  -0.548605  0.052447  2.308553  0.036
O  O79  1  0.51368442  0.36218848  0.60406453  1  -1.18967  0.077535  -0.303971  -0.548589  0.05245  2.308327  0.036
O  O80  1  0.68799663  0.03237647  0.14524877  1  -1.189624  0.070544  -0.313524  -0.565513  0.048042  2.295841  0.036
O  O81  1  0.31199392  0.53238760  0.35476316  1  -1.189376  0.070554  -0.313592  -0.565669  0.048046  2.295546  0.036
O  O82  1  0.31199339  0.96761143  0.85476304  1  -1.189374  0.070555  -0.313547  -0.565588  0.048044  2.295522  0.036
O  O83  1  0.68799326  0.46761997  0.64524581  1  -1.190214  0.070557  -0.313558  -0.565509  0.048043  2.295904  0.036
O  O84  1  0.51287877  0.37058603  0.39481957  1  -1.184982  0.077816  -0.304926  -0.549488  0.052447  2.308358  0.036
O  O85  1  0.48710631  0.87057622  0.10516324  1  -1.185534  0.077817  -0.304907  -0.549416  0.052445  2.308692  0.036
O  O86  1  0.48710664  0.62942390  0.60516386  1  -1.185562  0.077819  -0.3049  -0.549407  0.052446  2.308758  0.036
O  O87  1  0.51287624  0.12942033  0.89481944  1  -1.18511  0.077821  -0.304969  -0.549515  0.052443  2.308547  0.036
O  O88  1  0.68674426  0.47592545  0.44966794  1  -1.194475  0.070695  -0.314444  -0.567289  0.048128  2.302551  0.036
O  O89  1  0.31325756  0.97593717  0.05033907  1  -1.194797  0.070691  -0.314436  -0.567302  0.048127  2.302258  0.036
O  O90  1  0.31326101  0.52406165  0.55033885  1  -1.194979  0.07073  -0.314444  -0.567297  0.048129  2.302313  0.036
O  O91  1  0.68673914  0.02407984  0.94967032  1  -1.194788  0.070715  -0.31445  -0.5673  0.048131  2.302466  0.036
