# generated using pymatgen
data_ZnH6(C5O2)2
_symmetry_space_group_name_H-M   'P 1'
_cell_length_a   7.50359007
_cell_length_b   15.39159067
_cell_length_c   15.39687609
_cell_angle_alpha   90.00308731
_cell_angle_beta   89.72764797
_cell_angle_gamma   90.15109372
_symmetry_Int_Tables_number   1
_chemical_formula_structural   ZnH6(C5O2)2
_chemical_formula_sum   'Zn4 H24 C40 O16'
_cell_volume   1778.19261812
_cell_formula_units_Z   4
loop_
 _symmetry_equiv_pos_site_id
 _symmetry_equiv_pos_as_xyz
  1  'x, y, z'
loop_
 _atom_site_type_symbol
 _atom_site_label
 _atom_site_symmetry_multiplicity
 _atom_site_fract_x
 _atom_site_fract_y
 _atom_site_fract_z
 _atom_site_occupancy
 _atom_site_pbe_bader_charge
 _atom_site_pbe_bader_spin_density
 _atom_site_pbe_cm5_charge
 _atom_site_pbe_ddec_charge
 _atom_site_pbe_ddec_spin_density
 _atom_site_pbe_ddec_sum_bond_order
 _atom_site_pbe_magmom
Zn  Zn0  1  0.33402299  0.99998363  0.50037492  1  1.300433  0  0.712872  0.932635  0  2.18123  0
Zn  Zn1  1  0.69234729  0.99734043  0.50260475  1  1.30153  0  0.713164  0.937667  0  2.172873  0
Zn  Zn2  1  0.69236819  0.50250671  0.99744228  1  1.299709  0  0.7132  0.937636  0  2.172837  0
Zn  Zn3  1  0.33402962  0.49901962  0.00127987  1  1.298846  0  0.712704  0.932775  0  2.182019  0
H  H4  1  0.88051452  0.80574081  0.30819187  1  0.121321  0  0.102364  0.103965  0  1.037405  0
H  H5  1  0.88046850  0.69369840  0.19174767  1  0.090945  0  0.102157  0.103822  0  1.037277  0
H  H6  1  0.17734109  0.65145146  0.23181360  1  0.031544  0  0.099381  0.112039  0  0.976713  0
H  H7  1  0.17837775  0.73449509  0.15110001  1  0.051332  0  0.0998  0.112279  0  0.976783  0
H  H8  1  0.17863850  0.84897433  0.26876324  1  0.058027  0  0.099643  0.112509  0  0.977112  0
H  H9  1  0.17704484  0.76590173  0.34944632  1  0.05197  0  0.099893  0.11242  0  0.977164  0
H  H10  1  0.88064719  0.19148632  0.69405791  1  0.089298  0  0.10234  0.103871  0  1.037726  0
H  H11  1  0.88060881  0.30790031  0.80613507  1  0.090006  0  0.102391  0.103945  0  1.038141  0
H  H12  1  0.17851158  0.34928581  0.76604065  1  0.053308  0  0.099748  0.112203  0  0.977158  0
H  H13  1  0.17742185  0.26854667  0.84905553  1  0.029595  0  0.099634  0.112325  0  0.977024  0
H  H14  1  0.17734768  0.15085589  0.73470353  1  0.050069  0  0.099842  0.112477  0  0.97682  0
H  H15  1  0.17865483  0.23152833  0.65161363  1  0.040693  0  0.099522  0.112389  0  0.976932  0
H  H16  1  0.72948993  0.19290657  0.30707109  1  0.087544  0  0.101776  0.104646  0  1.037509  0
H  H17  1  0.72945521  0.30717645  0.19277445  1  0.086432  0  0.10166  0.104524  0  1.037026  0
H  H18  1  0.02750719  0.26581073  0.15215623  1  0.061528  0  0.099792  0.111919  0  0.978445  0
H  H19  1  0.02721785  0.34775758  0.23404102  1  0.062009  0  0.099886  0.111891  0  0.978402  0
H  H20  1  0.02693658  0.23171361  0.35008294  1  0.052134  0  0.099508  0.111251  0  0.978024  0
H  H21  1  0.02740843  0.14976753  0.26821416  1  0.053052  0  0.099831  0.11156  0  0.977758  0
H  H22  1  0.12711074  0.80622050  0.69399831  1  0.097055  0  0.102322  0.103707  0  1.037059  0
H  H23  1  0.12693553  0.69197202  0.80816533  1  0.079217  0  0.102366  0.103821  0  1.037001  0
H  H24  1  0.82938840  0.65118356  0.76717044  1  0.066149  0  0.099523  0.11254  0  0.978061  0
H  H25  1  0.82897520  0.73316410  0.84905282  1  0.067718  0  0.099497  0.112423  0  0.977701  0
H  H26  1  0.82944369  0.84930054  0.73291788  1  0.064435  0  0.099893  0.113304  0  0.977228  0
H  H27  1  0.82982388  0.76736809  0.65099142  1  0.060571  0  0.099609  0.112856  0  0.977685  0
C  C28  1  0.41875961  0.88379868  0.61644244  1  1.53029  0  0.21783  0.603741  0  4.14389  0
C  C29  1  0.59233938  0.88216583  0.38629400  1  1.511516  0  0.218628  0.604693  0  4.143729  0
C  C30  1  0.44780734  0.11535168  0.38485500  1  1.502362  0  0.22006  0.606648  0  4.141043  0
C  C31  1  0.59248644  0.11373149  0.61789004  1  1.513741  0  0.218734  0.604802  0  4.143701  0
C  C32  1  0.44788537  0.38386122  0.11620958  1  1.531537  0  0.219439  0.607082  0  4.141542  0
C  C33  1  0.59225943  0.61749950  0.11411861  1  1.515016  0  0.218925  0.604494  0  4.144501  0
C  C34  1  0.41861253  0.61539718  0.88479772  1  1.505382  0  0.21844  0.604431  0  4.139434  0
C  C35  1  0.59235530  0.38584239  0.88262402  1  1.509783  0  0.219076  0.60521  0  4.142435  0
C  C36  1  0.59488630  0.68493718  0.18293683  1  -0.016867  0  -0.012126  -0.072075  0  3.9735  0
C  C37  1  0.59491773  0.81486655  0.31732465  1  -0.011394  0  -0.0127  -0.073647  0  3.97297  0
C  C38  1  0.43751716  0.71846287  0.21765018  1  -0.036722  0  -0.001682  0.066368  0  3.876934  0
C  C39  1  0.75499442  0.78124857  0.28267152  1  -0.116627  0  -0.084471  -0.100994  0  3.972986  0
C  C40  1  0.43751104  0.78161308  0.28270862  1  0.053569  0  -0.001287  0.068174  0  3.875915  0
C  C41  1  0.75498491  0.71837597  0.21738343  1  0.005514  0  -0.08461  -0.101427  0  3.973827  0
C  C42  1  0.23600652  0.71433933  0.21339077  1  -0.025924  0  -0.151401  -0.202582  0  3.877956  0
C  C43  1  0.23600883  0.78601357  0.28711830  1  0.005307  0  -0.152013  -0.203782  0  3.879582  0
C  C44  1  0.59500431  0.31700207  0.81519185  1  -0.016779  0  -0.012307  -0.072944  0  3.973142  0
C  C45  1  0.59507830  0.18266471  0.68522037  1  -0.010174  0  -0.012736  -0.072707  0  3.972803  0
C  C46  1  0.43763423  0.28245596  0.78181774  1  0.054327  0  -0.001868  0.066827  0  3.877056  0
C  C47  1  0.75515046  0.21713279  0.71869304  1  0.004115  0  -0.084681  -0.101875  0  3.973851  0
C  C48  1  0.43766594  0.21741485  0.71864694  1  -0.041348  0  -0.001042  0.067925  0  3.876133  0
C  C49  1  0.75511520  0.28239892  0.78158997  1  -0.082343  0  -0.084653  -0.100724  0  3.973733  0
C  C50  1  0.23613517  0.28691500  0.78614888  1  0.034905  0  -0.151832  -0.203114  0  3.879356  0
C  C51  1  0.23615450  0.21316647  0.71449653  1  -0.033211  0  -0.151501  -0.203507  0  3.878825  0
C  C52  1  0.44404374  0.31562057  0.18431706  1  -0.049436  0  -0.012484  -0.074064  0  3.974555  0
C  C53  1  0.44399022  0.18343486  0.31660549  1  0.031109  0  -0.012913  -0.074218  0  3.97466  0
C  C54  1  0.28682776  0.28129468  0.21859194  1  -0.035187  0  -0.001853  0.0654  0  3.880073  0
C  C55  1  0.60405787  0.21783574  0.28214270  1  0.054203  0  -0.084726  -0.099211  0  3.975329  0
C  C56  1  0.28676889  0.21711938  0.28283004  1  -0.060015  0  -0.002059  0.064885  0  3.880763  0
C  C57  1  0.60407772  0.28177886  0.21815840  1  -0.045791  0  -0.084954  -0.098897  0  3.976258  0
C  C58  1  0.08541043  0.28520714  0.21466689  1  -0.021571  0  -0.152244  -0.205015  0  3.883294  0
C  C59  1  0.08534614  0.21251683  0.28738879  1  -0.008824  0  -0.15082  -0.201782  0  3.880554  0
C  C60  1  0.41283961  0.68348855  0.81671105  1  -0.089286  0  -0.012817  -0.073565  0  3.974623  0
C  C61  1  0.41302182  0.81568659  0.68455692  1  -0.029715  0  -0.013153  -0.074819  0  3.975442  0
C  C62  1  0.57004654  0.71783916  0.78238684  1  0.080517  0  -0.001662  0.067927  0  3.882778  0
C  C63  1  0.25271273  0.78139549  0.71882980  1  -0.057651  0  -0.083862  -0.09973  0  3.969607  0
C  C64  1  0.57020277  0.78188571  0.71835635  1  -0.056379  0  -0.001582  0.068747  0  3.880335  0
C  C65  1  0.25263304  0.71722156  0.78296076  1  0.027515  0  -0.083954  -0.101385  0  3.971935  0
C  C66  1  0.77134034  0.71380630  0.78645223  1  -0.07056  0  -0.151601  -0.203374  0  3.882693  0
C  C67  1  0.77159660  0.78653313  0.71373597  1  0.015982  0  -0.152466  -0.205556  0  3.881529  0
O  O68  1  0.26990133  0.91366623  0.58675803  1  -1.129368  0  -0.320917  -0.528813  0  2.231597  0
O  O69  1  0.57207690  0.90881816  0.59121661  1  -1.166142  0  -0.305283  -0.562336  0  2.318589  0
O  O70  1  0.74331146  0.90893599  0.41676913  1  -1.125931  0  -0.320622  -0.530082  0  2.241717  0
O  O71  1  0.44076296  0.90956702  0.41096998  1  -1.166798  0  -0.305441  -0.559655  0  2.314565  0
O  O72  1  0.59800140  0.08869335  0.41142958  1  -1.174937  0  -0.311171  -0.566964  0  2.308607  0
O  O73  1  0.29487915  0.08762549  0.41278629  1  -1.124722  0  -0.315911  -0.524258  0  2.247576  0
O  O74  1  0.44090007  0.08925687  0.59061836  1  -1.167782  0  -0.305512  -0.560015  0  2.315259  0
O  O75  1  0.74345112  0.08308776  0.59096927  1  -1.125227  0  -0.320569  -0.530017  0  2.241264  0
O  O76  1  0.59810721  0.41094096  0.08903315  1  -1.173978  0  -0.310738  -0.566416  0  2.309039  0
O  O77  1  0.29498512  0.41127435  0.08903303  1  -1.125365  0  -0.315863  -0.525242  0  2.248656  0
O  O78  1  0.44066873  0.58970404  0.09017519  1  -1.167806  0  -0.305865  -0.560044  0  2.315107  0
O  O79  1  0.74323154  0.59101673  0.08304287  1  -1.126394  0  -0.320386  -0.529504  0  2.241971  0
O  O80  1  0.26975189  0.58517700  0.91520736  1  -1.129858  0  -0.321298  -0.529393  0  2.228303  0
O  O81  1  0.57190731  0.59073550  0.90929191  1  -1.171478  0  -0.305393  -0.562739  0  2.317115  0
O  O82  1  0.74331635  0.41681379  0.90891958  1  -1.124884  0  -0.320669  -0.530066  0  2.241108  0
O  O83  1  0.44075346  0.40991886  0.91057373  1  -1.166681  0  -0.305755  -0.560218  0  2.314519  0
