# generated using pymatgen
data_MnH12C14(NO2)2
_symmetry_space_group_name_H-M   'P 1'
_cell_length_a   4.51794711
_cell_length_b   8.72914845
_cell_length_c   15.37836869
_cell_angle_alpha   104.99503326
_cell_angle_beta   90.00005653
_cell_angle_gamma   89.99983520
_symmetry_Int_Tables_number   1
_chemical_formula_structural   MnH12C14(NO2)2
_chemical_formula_sum   'Mn2 H24 C28 N4 O8'
_cell_volume   585.83748165
_cell_formula_units_Z   2
loop_
 _symmetry_equiv_pos_site_id
 _symmetry_equiv_pos_as_xyz
  1  'x, y, z'
loop_
 _atom_site_type_symbol
 _atom_site_label
 _atom_site_symmetry_multiplicity
 _atom_site_fract_x
 _atom_site_fract_y
 _atom_site_fract_z
 _atom_site_occupancy
 _atom_site_pbe_cm5_charge
 _atom_site_pbe_ddec_charge
 _atom_site_pbe_ddec_spin_density
 _atom_site_pbe_ddec_sum_bond_order
 _atom_site_pbe_magmom
Mn  Mn0  1  0.00000172  0.50000069  0.50000045  1  0.606951  0.983817  -4.627488  2.345869  -4.427
Mn  Mn1  1  0.49999823  0.99999866  0.99999862  1  0.606948  0.983794  -4.627517  2.345832  -4.427
H  H2  1  0.19372388  0.77789597  0.48521352  1  0.305497  0.29123  -0.000688  0.948285  -0.001
H  H3  1  0.69372242  0.72209996  0.01478512  1  0.30552  0.291259  -0.000688  0.94824  -0.001
H  H4  1  0.80627578  0.22209995  0.51478346  1  0.305529  0.291249  -0.000688  0.948248  -0.001
H  H5  1  0.30627945  0.27789950  0.98521564  1  0.305528  0.291238  -0.000689  0.948255  -0.001
H  H6  1  0.40049947  0.73429521  0.56442441  1  0.30324  0.295304  -0.000475  0.967278  -0.001
H  H7  1  0.90049703  0.76570118  0.93557367  1  0.303257  0.295321  -0.000475  0.967215  -0.001
H  H8  1  0.59950462  0.26570427  0.43557439  1  0.303223  0.295293  -0.000475  0.967297  -0.001
H  H9  1  0.09950484  0.23429828  0.06442643  1  0.303235  0.295313  -0.000475  0.967273  -0.001
H  H10  1  0.25675946  0.81682067  0.72534818  1  0.107877  0.122673  8.4e-05  1.021329  0.0
H  H11  1  0.75675470  0.68318068  0.77465126  1  0.107888  0.12272  8.4e-05  1.021283  0.0
H  H12  1  0.74323799  0.18317881  0.27465063  1  0.107879  0.122669  8.4e-05  1.021305  0.0
H  H13  1  0.24324496  0.31682115  0.22535050  1  0.107909  0.122746  8.4e-05  1.021236  0.0
H  H14  1  0.76045213  0.93709399  0.51298776  1  0.10104  0.107057  -5.2e-05  1.033717  0.0
H  H15  1  0.26045255  0.56290260  0.98701162  1  0.101038  0.107034  -5.2e-05  1.033725  0.0
H  H16  1  0.23954974  0.06290667  0.48701123  1  0.101035  0.107045  -5.2e-05  1.033717  0.0
H  H17  1  0.73954932  0.43709330  0.01298860  1  0.101007  0.106995  -5.2e-05  1.03369  0.0
H  H18  1  0.48042024  0.14059241  0.62805499  1  0.097289  0.095539  -1.4e-05  1.037487  0.0
H  H19  1  0.98041486  0.35940797  0.87194364  1  0.097283  0.095474  -1.4e-05  1.03749  0.0
H  H20  1  0.51957721  0.85940825  0.37194334  1  0.097295  0.095518  -1.4e-05  1.037519  0.0
H  H21  1  0.01958038  0.64059149  0.12805711  1  0.097304  0.095528  -1.4e-05  1.037475  0.0
H  H22  1  0.58259515  0.17547669  0.79102046  1  0.098447  0.099957  0.000105  1.038377  0.0
H  H23  1  0.08258875  0.32453378  0.70897762  1  0.098462  0.099999  0.000105  1.038376  0.0
H  H24  1  0.41740008  0.82452634  0.20897888  1  0.098461  0.099976  0.000105  1.03838  0.0
H  H25  1  0.91741091  0.67546449  0.29102231  1  0.098451  0.1  0.000105  1.038366  0.0
C  C26  1  0.98844376  0.01774652  0.86528284  1  0.219087  0.577602  -0.031949  4.174099  -0.027
C  C27  1  0.48843623  0.48225622  0.63471615  1  0.21913  0.577713  -0.031952  4.173993  -0.027
C  C28  1  0.01155590  0.98225295  0.13471597  1  0.219106  0.577615  -0.031948  4.174053  -0.027
C  C29  1  0.51156785  0.51774441  0.36528608  1  0.219169  0.577707  -0.031955  4.173925  -0.027
C  C30  1  0.92546983  0.99748052  0.76733258  1  -0.019095  -0.031954  0.001121  3.987573  0.002
C  C31  1  0.42546749  0.50252770  0.73266728  1  -0.01912  -0.031933  0.00112  3.987584  0.002
C  C32  1  0.07452761  0.00251896  0.23266623  1  -0.019088  -0.03197  0.00112  3.987542  0.002
C  C33  1  0.57453217  0.49747414  0.26733253  1  -0.019083  -0.031886  0.00112  3.98741  0.002
C  C34  1  0.08659788  0.88621123  0.70284942  1  -0.085599  -0.182606  -0.009954  3.904864  -0.008
C  C35  1  0.58659136  0.61379038  0.79714870  1  -0.085607  -0.182697  -0.009954  3.904993  -0.008
C  C36  1  0.91340400  0.11378944  0.29714891  1  -0.085608  -0.1826  -0.009953  3.90487  -0.008
C  C37  1  0.41340830  0.38620908  0.20285270  1  -0.085706  -0.1828  -0.009954  3.905063  -0.008
C  C38  1  0.02895876  0.86502912  0.61126505  1  0.087998  0.280172  -0.0005  4.027497  -0.001
C  C39  1  0.52895466  0.63496545  0.88873331  1  0.087998  0.280116  -0.0005  4.027571  -0.001
C  C40  1  0.97104090  0.13497035  0.38873376  1  0.088015  0.280118  -0.000501  4.027543  -0.001
C  C41  1  0.47104278  0.36503282  0.11126856  1  0.088052  0.28014  -0.0005  4.027617  -0.001
C  C42  1  0.80776794  0.95626840  0.58456600  1  -0.10422  -0.206384  -0.011436  3.976245  -0.009
C  C43  1  0.30776822  0.54373050  0.91543309  1  -0.1042  -0.20633  -0.011435  3.976223  -0.009
C  C44  1  0.19222951  0.04373226  0.41543364  1  -0.1042  -0.206308  -0.011435  3.976221  -0.009
C  C45  1  0.69223144  0.45626895  0.08456832  1  -0.104194  -0.206255  -0.011434  3.976254  -0.009
C  C46  1  0.65071242  0.06907651  0.64906406  1  -0.09834  -0.084004  0.003102  4.042835  0.003
C  C47  1  0.15071036  0.43092674  0.85093427  1  -0.098364  -0.083951  0.003102  4.042858  0.003
C  C48  1  0.34928946  0.93092533  0.35093511  1  -0.098341  -0.08398  0.003102  4.042928  0.003
C  C49  1  0.84929152  0.56907154  0.14906566  1  -0.098381  -0.08405  0.003102  4.042859  0.003
C  C50  1  0.70713195  0.08955638  0.74041485  1  -0.0912  -0.105182  -0.013796  3.980615  -0.011
C  C51  1  0.20712968  0.41044797  0.75958430  1  -0.091192  -0.105201  -0.013796  3.980626  -0.011
C  C52  1  0.29286550  0.91044428  0.25958478  1  -0.091206  -0.105182  -0.013795  3.980735  -0.011
C  C53  1  0.79286777  0.58955149  0.24041711  1  -0.091174  -0.105165  -0.013796  3.980537  -0.011
N  N54  1  0.18721668  0.75012091  0.54575179  1  -0.592238  -0.596268  -0.032524  3.3779  -0.013
N  N55  1  0.68720997  0.74987461  0.95424611  1  -0.592267  -0.596277  -0.032524  3.377856  -0.013
N  N56  1  0.81278298  0.24987856  0.45424702  1  -0.592271  -0.59626  -0.032522  3.377864  -0.013
N  N57  1  0.31278748  0.25012366  0.04575447  1  -0.592255  -0.596237  -0.032521  3.377798  -0.013
O  O58  1  0.21493951  0.94651268  0.88563685  1  -0.309724  -0.564026  -0.050031  2.34215  -0.034
O  O59  1  0.71493489  0.55349110  0.61436229  1  -0.309754  -0.564104  -0.050032  2.342055  -0.034
O  O60  1  0.78506237  0.05348680  0.11436131  1  -0.309735  -0.564012  -0.050028  2.34213  -0.034
O  O61  1  0.28507141  0.44650952  0.38564124  1  -0.309737  -0.564075  -0.050032  2.342075  -0.034
O  O62  1  0.81221093  0.10328018  0.92324185  1  -0.323539  -0.591021  -0.039239  2.312375  -0.022
O  O63  1  0.31220588  0.39672163  0.57675825  1  -0.32355  -0.591069  -0.03924  2.312435  -0.022
O  O64  1  0.18778873  0.89671811  0.07675678  1  -0.323576  -0.591068  -0.039239  2.312384  -0.022
O  O65  1  0.68780263  0.60328020  0.42324286  1  -0.32358  -0.591078  -0.039241  2.312505  -0.022
