# generated using pymatgen
data_CdH15C17N6O5
_symmetry_space_group_name_H-M   'P 1'
_cell_length_a   10.33666671
_cell_length_b   14.43083723
_cell_length_c   16.68978827
_cell_angle_alpha   102.73647434
_cell_angle_beta   89.99795870
_cell_angle_gamma   110.99548899
_symmetry_Int_Tables_number   1
_chemical_formula_structural   CdH15C17N6O5
_chemical_formula_sum   'Cd4 H60 C68 N24 O20'
_cell_volume   2258.54821646
_cell_formula_units_Z   4
loop_
 _symmetry_equiv_pos_site_id
 _symmetry_equiv_pos_as_xyz
  1  'x, y, z'
loop_
 _atom_site_type_symbol
 _atom_site_label
 _atom_site_symmetry_multiplicity
 _atom_site_fract_x
 _atom_site_fract_y
 _atom_site_fract_z
 _atom_site_occupancy
 _atom_site_pbe_bader_charge
 _atom_site_pbe_bader_spin_density
 _atom_site_pbe_cm5_charge
 _atom_site_pbe_ddec_charge
 _atom_site_pbe_ddec_spin_density
 _atom_site_pbe_ddec_sum_bond_order
 _atom_site_pbe_magmom
Cd  Cd0  1  0.93824085  0.42641715  0.82049048  1  1.284384  0  0.771891  0.911604  0  2.147681  0
Cd  Cd1  1  0.51178704  0.57342497  0.67947369  1  1.283614  0  0.771974  0.910624  0  2.14977  0
Cd  Cd2  1  0.06174801  0.57358750  0.17951188  1  1.284315  0  0.771888  0.911547  0  2.147643  0
Cd  Cd3  1  0.48821947  0.42657438  0.32052224  1  1.283677  0  0.77196  0.910603  0  2.149695  0
H  H4  1  0.20727607  0.43250488  0.85380362  1  0.626587  0  0.305936  0.40309  0  0.898056  0
H  H5  1  0.77477270  0.56770011  0.64600292  1  0.625227  0  0.306272  0.402535  0  0.898466  0
H  H6  1  0.79271206  0.56749059  0.14619993  1  0.626513  0  0.305926  0.403053  0  0.898  0
H  H7  1  0.22522799  0.43229919  0.35399899  1  0.625278  0  0.30626  0.402553  0  0.89853  0
H  H8  1  0.15161798  0.45467286  0.94202797  1  0.655057  0  0.278102  0.371198  0  0.981294  0
H  H9  1  0.69690057  0.54547848  0.55779849  1  0.640745  0  0.278235  0.371406  0  0.980861  0
H  H10  1  0.84837245  0.54532720  0.05797409  1  0.654815  0  0.278142  0.371276  0  0.981179  0
H  H11  1  0.30310593  0.45452084  0.44220162  1  0.64077  0  0.278208  0.371373  0  0.9809  0
H  H12  1  0.61484044  0.07436926  0.15761859  1  0.076339  0  0.095932  0.089351  0  1.060716  0
H  H13  1  0.54080783  0.92569019  0.34236112  1  0.076908  0  0.096194  0.089811  0  1.060011  0
H  H14  1  0.38516203  0.92562782  0.84237449  1  0.076127  0  0.095968  0.089429  0  1.060519  0
H  H15  1  0.45917974  0.07430223  0.65764004  1  0.077029  0  0.09622  0.089866  0  1.060019  0
H  H16  1  0.67592887  0.93004606  0.18111347  1  0.048476  0  0.101555  0.098233  0  0.991891  0
H  H17  1  0.74624670  0.07010890  0.31886008  1  0.054888  0  0.101805  0.099073  0  0.991633  0
H  H18  1  0.32407378  0.06995330  0.81888127  1  0.048472  0  0.101534  0.09821  0  0.991938  0
H  H19  1  0.25374961  0.92987970  0.68114034  1  0.05481  0  0.10182  0.099127  0  0.99167  0
H  H20  1  0.51199635  0.75013095  0.12391012  1  0.095823  0  0.103953  0.108336  0  1.003901  0
H  H21  1  0.76212571  0.25002214  0.37599957  1  0.104439  0  0.103953  0.10803  0  1.00355  0
H  H22  1  0.48800177  0.24987676  0.87609284  1  0.095713  0  0.103983  0.108371  0  1.003642  0
H  H23  1  0.23787311  0.74996568  0.62400250  1  0.104564  0  0.10389  0.107986  0  1.003636  0
H  H24  1  0.29368035  0.71791986  0.04347353  1  0.062694  0  0.100976  0.098596  0  1.049445  0
H  H25  1  0.57602749  0.28215681  0.45651665  1  0.055291  0  0.101357  0.099179  0  1.049588  0
H  H26  1  0.70631549  0.28207943  0.95653077  1  0.062712  0  0.100981  0.098598  0  1.049431  0
H  H27  1  0.42397886  0.71783640  0.54348227  1  0.054927  0  0.101351  0.099191  0  1.04946  0
H  H28  1  0.10695961  0.84134840  0.04458473  1  0.079786  0  0.126895  0.117352  0  0.949913  0
H  H29  1  0.26595962  0.15870925  0.45533112  1  0.090194  0  0.127061  0.11778  0  0.950249  0
H  H30  1  0.89303547  0.15864937  0.95541807  1  0.079866  0  0.12692  0.117393  0  0.94994  0
H  H31  1  0.73404708  0.84129239  0.54466526  1  0.090166  0  0.127082  0.117783  0  0.950243  0
H  H32  1  0.19696449  0.91361303  0.97494814  1  0.076855  0  0.120625  0.105832  0  0.983892  0
H  H33  1  0.28361918  0.08645315  0.52499860  1  0.078868  0  0.120735  0.106443  0  0.984429  0
H  H34  1  0.80303637  0.08638856  0.02505541  1  0.07681  0  0.120625  0.105833  0  0.983904  0
H  H35  1  0.71637492  0.91354845  0.47500256  1  0.078514  0  0.120703  0.106411  0  0.984506  0
H  H36  1  0.48351826  0.12267057  0.05495355  1  0.116277  0  0.114767  0.096507  0  1.028319  0
H  H37  1  0.36084017  0.87734062  0.44498998  1  0.097392  0  0.115284  0.097575  0  1.026743  0
H  H38  1  0.51648052  0.87732877  0.94504357  1  0.116281  0  0.114769  0.096489  0  1.028276  0
H  H39  1  0.63915011  0.12265333  0.55501148  1  0.097609  0  0.115259  0.097537  0  1.026741  0
H  H40  1  0.30333993  0.05158878  0.03217959  1  0.073176  0  0.116712  0.101702  0  0.99062  0
H  H41  1  0.25200578  0.94863170  0.46774249  1  0.068265  0  0.11676  0.101864  0  0.991288  0
H  H42  1  0.69665691  0.94840670  0.96782157  1  0.073164  0  0.116691  0.101718  0  0.990562  0
H  H43  1  0.74798834  0.05136606  0.53226152  1  0.06838  0  0.116778  0.101891  0  0.991141  0
H  H44  1  0.20475860  0.62882498  0.77095940  1  0.238318  0  0.135981  0.122077  0  1.024905  0
H  H45  1  0.57656916  0.37129950  0.72883087  1  0.244186  0  0.136243  0.122392  0  1.024388  0
H  H46  1  0.79523554  0.37117284  0.22903683  1  0.238355  0  0.135883  0.121938  0  1.024925  0
H  H47  1  0.42342766  0.62869981  0.27117044  1  0.24419  0  0.136237  0.122422  0  1.024337  0
H  H48  1  0.98799988  0.64906568  0.98382888  1  0.199365  0  0.146601  0.127113  0  0.998492  0
H  H49  1  0.33895727  0.35081296  0.51615412  1  0.186877  0  0.146748  0.127517  0  0.998682  0
H  H50  1  0.01200351  0.35093516  0.01617273  1  0.199363  0  0.1466  0.127081  0  0.998531  0
H  H51  1  0.66104360  0.64918864  0.48384764  1  0.187135  0  0.146773  0.127555  0  0.998633  0
H  H52  1  0.17932723  0.17862955  0.29365621  1  0.1293  0  0.137105  0.104124  0  0.963648  0
H  H53  1  0.00077184  0.82165488  0.20633389  1  0.122293  0  0.13707  0.104203  0  0.963248  0
H  H54  1  0.82067131  0.82137512  0.70634315  1  0.129256  0  0.137096  0.104072  0  0.963664  0
H  H55  1  0.99922300  0.17835207  0.79366832  1  0.122275  0  0.137081  0.104221  0  0.963125  0
H  H56  1  0.56195437  0.25336963  0.18871268  1  0.186479  0  0.142658  0.112676  0  1.032411  0
H  H57  1  0.30885057  0.74705337  0.31111749  1  0.199847  0  0.142615  0.11235  0  1.032648  0
H  H58  1  0.43805197  0.74662357  0.81128684  1  0.186354  0  0.142661  0.112685  0  1.032432  0
H  H59  1  0.69114355  0.25294827  0.68887889  1  0.199879  0  0.142595  0.112293  0  1.032881  0
H  H60  1  0.78026332  0.41776376  0.55722768  1  0.115119  0  0.103214  0.101298  0  1.03312  0
H  H61  1  0.36258594  0.58229442  0.94277889  1  0.077908  0  0.103251  0.100883  0  1.032356  0
H  H62  1  0.21974179  0.58224245  0.44277139  1  0.115049  0  0.103258  0.101442  0  1.033095  0
H  H63  1  0.63741223  0.41770951  0.05721793  1  0.077911  0  0.103286  0.100955  0  1.032345  0
C  C64  1  0.32932165  0.87689707  0.05448146  1  0.013645  0  -0.01104  0.040939  0  3.93499  0
C  C65  1  0.45279367  0.12314967  0.44550455  1  -0.032565  0  -0.011195  0.041612  0  3.936533  0
C  C66  1  0.67067828  0.12310072  0.94551836  1  0.013708  0  -0.011026  0.040947  0  3.934873  0
C  C67  1  0.54720359  0.87684277  0.55449423  1  -0.032712  0  -0.011177  0.04169  0  3.936466  0
C  C68  1  0.41990951  0.97799713  0.08783057  1  -0.149069  0  -0.012379  0.041204  0  3.931044  0
C  C69  1  0.44232543  0.02207280  0.41217876  1  -0.032419  0  -0.012752  0.041169  0  3.932592  0
C  C70  1  0.58008943  0.02200447  0.91217000  1  -0.149071  0  -0.012393  0.041207  0  3.931117  0
C  C71  1  0.55767257  0.97792113  0.58782629  1  -0.032276  0  -0.01271  0.041294  0  3.932469  0
C  C72  1  0.54418890  0.99563693  0.13315728  1  0.039661  0  -0.094705  -0.131856  0  3.99212  0
C  C73  1  0.54897865  0.00445107  0.36687851  1  -0.069616  0  -0.09483  -0.132381  0  3.993033  0
C  C74  1  0.45581177  0.00436622  0.86684238  1  0.039869  0  -0.094739  -0.131959  0  3.992166  0
C  C75  1  0.45101817  0.99554823  0.63312460  1  -0.069673  0  -0.094781  -0.1324  0  3.992762  0
C  C76  1  0.57865005  0.91480086  0.14587611  1  -0.089803  0  -0.092921  -0.08447  0  4.032458  0
C  C77  1  0.66426284  0.08531957  0.35414561  1  -0.040064  0  -0.093299  -0.085692  0  4.03225  0
C  C78  1  0.42135242  0.08519619  0.85412117  1  -0.089844  0  -0.092851  -0.084384  0  4.032436  0
C  C79  1  0.33573651  0.91467512  0.64585959  1  -0.040104  0  -0.093358  -0.085811  0  4.032219  0
C  C80  1  0.48814382  0.81442315  0.11356756  1  0.058198  0  -0.088634  -0.067777  0  4.000071  0
C  C81  1  0.67404148  0.18569260  0.38640570  1  0.02867  0  -0.088037  -0.066534  0  3.998138  0
C  C82  1  0.51185436  0.18557693  0.88643211  1  0.058293  0  -0.088699  -0.067868  0  3.999721  0
C  C83  1  0.32595287  0.81429983  0.61359427  1  0.028136  0  -0.08794  -0.066405  0  3.998166  0
C  C84  1  0.36474452  0.79626439  0.06828799  1  -0.094391  0  -0.09436  -0.135971  0  3.988329  0
C  C85  1  0.56879037  0.20383916  0.43171026  1  -0.086486  0  -0.094618  -0.136503  0  3.987864  0
C  C86  1  0.63525075  0.20373568  0.93171347  1  -0.094387  0  -0.094392  -0.135987  0  3.988244  0
C  C87  1  0.43121420  0.79615629  0.56829569  1  -0.085545  0  -0.094695  -0.136686  0  3.987827  0
C  C88  1  0.19333553  0.85229712  0.00474339  1  0.32376  0  -0.032871  -0.127544  0  3.908435  0
C  C89  1  0.34133326  0.14771629  0.49517741  1  0.31418  0  -0.033439  -0.130492  0  3.911662  0
C  C90  1  0.80666478  0.14770142  0.99525777  1  0.323673  0  -0.032869  -0.127544  0  3.908554  0
C  C91  1  0.65866876  0.85228761  0.50482360  1  0.314789  0  -0.033415  -0.130465  0  3.911623  0
C  C92  1  0.39188584  0.07061070  0.07676129  1  0.292249  0  -0.042545  -0.136776  0  3.912797  0
C  C93  1  0.32146984  0.92952011  0.42317487  1  0.316592  0  -0.043337  -0.138872  0  3.912348  0
C  C94  1  0.60811583  0.92938863  0.92323763  1  0.292211  0  -0.042503  -0.13669  0  3.912645  0
C  C95  1  0.67852503  0.07047916  0.57683122  1  0.316447  0  -0.04333  -0.138887  0  3.912424  0
C  C96  1  0.17152181  0.65905841  0.82981411  1  0.9187  0  0.148465  0.144253  0  3.950121  0
C  C97  1  0.51303876  0.34102540  0.66999996  1  0.920604  0  0.14835  0.143998  0  3.948305  0
C  C98  1  0.82847368  0.34094016  0.17018346  1  0.918606  0  0.148534  0.144368  0  3.950153  0
C  C99  1  0.48696505  0.65897240  0.32999926  1  0.920643  0  0.148311  0.143887  0  3.948363  0
C  C100  1  0.05957242  0.66653429  0.93700030  1  0.977172  0  0.17168  0.101354  0  3.879921  0
C  C101  1  0.39326497  0.33344986  0.56294273  1  0.982275  0  0.170457  0.099664  0  3.88113  0
C  C102  1  0.94043021  0.33346503  0.06299922  1  0.977103  0  0.171637  0.101391  0  3.879887  0
C  C103  1  0.60673881  0.66655175  0.43705783  1  0.982057  0  0.170531  0.099692  0  3.881075  0
C  C104  1  0.26048165  0.17556830  0.25311790  1  0.985898  0  0.14524  0.150556  0  4.007702  0
C  C105  1  0.08501512  0.82471824  0.24685082  1  0.991366  0  0.145148  0.150922  0  4.006736  0
C  C106  1  0.73951962  0.82443410  0.74688042  1  0.986819  0  0.145239  0.150662  0  4.007601  0
C  C107  1  0.91497702  0.17528717  0.75315229  1  0.991415  0  0.145078  0.150766  0  4.006468  0
C  C108  1  0.45572058  0.21628216  0.20212026  1  0.99966  0  0.163527  0.093933  0  3.888799  0
C  C109  1  0.23964900  0.78408149  0.29773401  1  0.970701  0  0.163502  0.095238  0  3.887309  0
C  C110  1  0.54428072  0.78371644  0.79787492  1  0.999886  0  0.163593  0.09406  0  3.888884  0
C  C111  1  0.76034566  0.21592318  0.70226655  1  0.970521  0  0.163458  0.095246  0  3.887653  0
C  C112  1  0.12738369  0.52402342  0.54557498  1  -0.035235  0  -0.011902  -0.043617  0  3.954135  0
C  C113  1  0.60330728  0.47597230  0.95442563  1  -0.029797  0  -0.012732  -0.0463  0  3.957398  0
C  C114  1  0.87262686  0.47597818  0.45442678  1  -0.034976  0  -0.011905  -0.043514  0  3.954006  0
C  C115  1  0.39668547  0.52403240  0.04557015  1  -0.029384  0  -0.012732  -0.04636  0  3.957636  0
C  C116  1  0.00147923  0.47797283  0.57851611  1  -0.050514  0  -0.010778  -0.026273  0  3.934464  0
C  C117  1  0.52348497  0.52201146  0.92149617  1  -0.065101  0  -0.010375  -0.024323  0  3.935391  0
C  C118  1  0.99853211  0.52202649  0.42148401  1  -0.051515  0  -0.010723  -0.026234  0  3.934475  0
C  C119  1  0.47651992  0.47800011  0.07850275  1  -0.065754  0  -0.010318  -0.024214  0  3.935403  0
C  C120  1  0.87721323  0.45436613  0.53162675  1  -0.018961  0  -0.087414  -0.137002  0  3.998606  0
C  C121  1  0.42290147  0.54567280  0.96838312  1  0.027031  0  -0.086899  -0.135621  0  3.998887  0
C  C122  1  0.12279711  0.54563701  0.46837472  1  -0.018199  0  -0.087465  -0.137143  0  3.998687  0
C  C123  1  0.57709265  0.45432884  0.03161386  1  0.0281  0  -0.087017  -0.135846  0  3.998796  0
C  C124  1  0.26903713  0.55035835  0.58642592  1  1.575468  0  0.202287  0.570964  0  4.212322  0
C  C125  1  0.71858833  0.44960180  0.91362451  1  1.567381  0  0.202335  0.571377  0  4.214755  0
C  C126  1  0.73097187  0.44964403  0.41357420  1  1.576226  0  0.202172  0.570749  0  4.212516  0
C  C127  1  0.28140309  0.55039830  0.08637277  1  1.567682  0  0.202288  0.571236  0  4.214919  0
C  C128  1  0.98789358  0.45439928  0.66206681  1  1.572736  0  0.181363  0.551964  0  4.26226  0
C  C129  1  0.53340156  0.54548845  0.83791738  1  1.565304  0  0.179693  0.549078  0  4.266418  0
C  C130  1  0.01211351  0.54559927  0.33793256  1  1.572775  0  0.18121  0.551733  0  4.262328  0
C  C131  1  0.46660975  0.45451854  0.16208064  1  1.564587  0  0.179534  0.548984  0  4.266499  0
N  N132  1  0.15690287  0.75916091  0.93979761  1  -0.838998  0  -0.139045  0.157644  0  3.764229  0
N  N133  1  0.39807771  0.24086193  0.56012297  1  -0.841667  0  -0.138321  0.159898  0  3.762381  0
N  N134  1  0.84310037  0.24083381  0.06020281  1  -0.839017  0  -0.139041  0.157546  0  3.764393  0
N  N135  1  0.60192434  0.75913815  0.43987789  1  -0.841913  0  -0.138374  0.159892  0  3.762276  0
N  N136  1  0.23029831  0.75586376  0.87185890  1  -0.711863  0  -0.230117  -0.288948  0  3.12599  0
N  N137  1  0.47492381  0.24420488  0.62800587  1  -0.708151  0  -0.230618  -0.289746  0  3.125921  0
N  N138  1  0.76969970  0.24413405  0.12813852  1  -0.711868  0  -0.230091  -0.288861  0  3.12591  0
N  N139  1  0.52507650  0.75579366  0.37199529  1  -0.708102  0  -0.230558  -0.289694  0  3.125859  0
N  N140  1  0.06635544  0.60167847  0.86806981  1  -1.185292  0  -0.339611  -0.304618  0  3.45713  0
N  N141  1  0.46502465  0.39833850  0.63182595  1  -1.187961  0  -0.338765  -0.303357  0  3.456905  0
N  N142  1  0.93364547  0.39831932  0.13192941  1  -1.185118  0  -0.339584  -0.304622  0  3.457109  0
N  N143  1  0.53498029  0.60166157  0.36817492  1  -1.188116  0  -0.338826  -0.303367  0  3.456859  0
N  N144  1  0.36574044  0.12975784  0.15355190  1  -0.82684  0  -0.133945  0.177587  0  3.737263  0
N  N145  1  0.23617515  0.87052984  0.34636717  1  -0.819804  0  -0.133353  0.178503  0  3.734786  0
N  N146  1  0.63426413  0.87024148  0.84644762  1  -0.826695  0  -0.13396  0.177468  0  3.737203  0
N  N147  1  0.76382049  0.12947099  0.65363624  1  -0.819718  0  -0.133334  0.178443  0  3.734918  0
N  N148  1  0.23984569  0.10152560  0.18536158  1  -0.681387  0  -0.240397  -0.295113  0  3.071997  0
N  N149  1  0.13841555  0.89873682  0.31462718  1  -0.680543  0  -0.240148  -0.295458  0  3.068832  0
N  N150  1  0.76015348  0.89847451  0.81463449  1  -0.681846  0  -0.240428  -0.295163  0  3.072174  0
N  N151  1  0.86157505  0.10126552  0.68537772  1  -0.680874  0  -0.240072  -0.29532  0  3.068989  0
N  N152  1  0.39202737  0.24782205  0.26608707  1  -1.209096  0  -0.346951  -0.326686  0  3.452738  0
N  N153  1  0.14436336  0.75252006  0.23378053  1  -1.198922  0  -0.347372  -0.328665  0  3.451644  0
N  N154  1  0.60797604  0.75217497  0.73391320  1  -1.209668  0  -0.346987  -0.326763  0  3.452873  0
N  N155  1  0.85562841  0.24748463  0.76621705  1  -1.198757  0  -0.347388  -0.3286  0  3.451582  0
O  O156  1  0.35696366  0.52508937  0.54085046  1  -1.187991  0  -0.324085  -0.579177  0  2.199647  0
O  O157  1  0.83172264  0.47491506  0.95925349  1  -1.180009  0  -0.324118  -0.578688  0  2.200099  0
O  O158  1  0.64304804  0.47491452  0.45915115  1  -1.188437  0  -0.324085  -0.579096  0  2.19974  0
O  O159  1  0.16827381  0.52508736  0.04074065  1  -1.180208  0  -0.324085  -0.5786  0  2.200166  0
O  O160  1  0.30005247  0.59846956  0.66119231  1  -1.160762  0  -0.310918  -0.527884  0  2.253019  0
O  O161  1  0.70161764  0.40154957  0.83886228  1  -1.162208  0  -0.31081  -0.5276  0  2.253966  0
O  O162  1  0.69995073  0.40153281  0.33880780  1  -1.160756  0  -0.310855  -0.527853  0  2.25311  0
O  O163  1  0.29837803  0.59845131  0.16113395  1  -1.162022  0  -0.310825  -0.52755  0  2.253922  0
O  O164  1  0.88540492  0.46953433  0.69911558  1  -1.159419  0  -0.34339  -0.577471  0  2.175645  0
O  O165  1  0.41574711  0.53027681  0.80087911  1  -1.150226  0  -0.342483  -0.576025  0  2.177101  0
O  O166  1  0.11460256  0.53046499  0.30088334  1  -1.159609  0  -0.343275  -0.577291  0  2.175717  0
O  O167  1  0.58426936  0.46973858  0.19911935  1  -1.150071  0  -0.342468  -0.576036  0  2.176988  0
O  O168  1  0.07038193  0.42136172  0.69163532  1  -1.161304  0  -0.34018  -0.549246  0  2.11513  0
O  O169  1  0.64889009  0.57844946  0.80829700  1  -1.163269  0  -0.339572  -0.548451  0  2.116668  0
O  O170  1  0.92962323  0.57863684  0.30836285  1  -1.161141  0  -0.340161  -0.54919  0  2.114957  0
O  O171  1  0.35112314  0.42155750  0.19170341  1  -1.162853  0  -0.339423  -0.54835  0  2.116824  0
O  O172  1  0.12753640  0.40703114  0.88559290  1  -1.259001  0  -0.587458  -0.75909  0  2.050325  0
O  O173  1  0.72048244  0.59313850  0.61423774  1  -1.244146  0  -0.587748  -0.758345  0  2.050652  0
O  O174  1  0.87244997  0.59296663  0.11440991  1  -1.258642  0  -0.587496  -0.759124  0  2.050208  0
O  O175  1  0.27952251  0.40686158  0.38576312  1  -1.244299  0  -0.587701  -0.758328  0  2.05074  0
