# generated using pymatgen
data_ZnH16C20(NO2)2
_symmetry_space_group_name_H-M   'P 1'
_cell_length_a   10.21517375
_cell_length_b   15.37414230
_cell_length_c   18.25010917
_cell_angle_alpha   89.99999664
_cell_angle_beta   90.00000806
_cell_angle_gamma   91.05756592
_symmetry_Int_Tables_number   1
_chemical_formula_structural   ZnH16C20(NO2)2
_chemical_formula_sum   'Zn4 H64 C80 N8 O16'
_cell_volume   2865.68292043
_cell_formula_units_Z   4
loop_
 _symmetry_equiv_pos_site_id
 _symmetry_equiv_pos_as_xyz
  1  'x, y, z'
loop_
 _atom_site_type_symbol
 _atom_site_label
 _atom_site_symmetry_multiplicity
 _atom_site_fract_x
 _atom_site_fract_y
 _atom_site_fract_z
 _atom_site_occupancy
 _atom_site_pbe_bader_charge
 _atom_site_pbe_bader_spin_density
 _atom_site_pbe_cm5_charge
 _atom_site_pbe_ddec_charge
 _atom_site_pbe_ddec_spin_density
 _atom_site_pbe_ddec_sum_bond_order
 _atom_site_pbe_magmom
Zn  Zn0  1  0.90299169  0.96161781  0.30894008  1  1.243247  0  0.689729  0.753924  0  2.395212  0
Zn  Zn1  1  0.59700892  0.53838303  0.80893983  1  1.243246  0  0.68974  0.753947  0  2.395143  0
Zn  Zn2  1  0.09700908  0.03838296  0.69105943  1  1.243244  0  0.689714  0.753914  0  2.395192  0
Zn  Zn3  1  0.40299087  0.46161774  0.19105914  1  1.243233  0  0.689712  0.753906  0  2.395221  0
H  H4  1  0.64034432  0.74859519  0.26324665  1  0.12435  0  0.10083  0.109022  0  1.027159  0
H  H5  1  0.85965530  0.75140566  0.76324696  1  0.124349  0  0.100851  0.10904  0  1.027179  0
H  H6  1  0.35965643  0.25140493  0.73675341  1  0.124362  0  0.10084  0.109032  0  1.02716  0
H  H7  1  0.14034447  0.24859446  0.23675310  1  0.124345  0  0.10085  0.109048  0  1.027178  0
H  H8  1  0.23453385  0.68505386  0.29858286  1  0.07458  0  0.101166  0.104587  0  1.006329  0
H  H9  1  0.26546600  0.81494611  0.79858261  1  0.074576  0  0.101184  0.104621  0  1.006333  0
H  H10  1  0.76546686  0.31494496  0.70141720  1  0.074584  0  0.101174  0.10459  0  1.00632  0
H  H11  1  0.73453476  0.18505401  0.20141745  1  0.074582  0  0.101161  0.104578  0  1.006387  0
H  H12  1  0.20970734  0.82193457  0.37082626  1  0.048271  0  0.08881  0.082667  0  1.060047  0
H  H13  1  0.29029255  0.67806605  0.87082602  1  0.048283  0  0.088803  0.082662  0  1.059997  0
H  H14  1  0.79029244  0.17806555  0.62917435  1  0.048242  0  0.088824  0.082716  0  1.060058  0
H  H15  1  0.70970920  0.32193472  0.12917404  1  0.048258  0  0.088802  0.082655  0  1.060091  0
H  H16  1  0.40521831  0.92029211  0.39143984  1  0.094206  0  0.09849  0.097751  0  1.029636  0
H  H17  1  0.09478060  0.57970850  0.89144014  1  0.094174  0  0.098483  0.097748  0  1.029645  0
H  H18  1  0.59478144  0.07970735  0.60856022  1  0.094195  0  0.098494  0.097771  0  1.029594  0
H  H19  1  0.90521822  0.42029227  0.10855992  1  0.094177  0  0.098491  0.097736  0  1.029669  0
H  H20  1  0.13248682  0.03996712  0.39483052  1  0.155645  0  0.119143  0.103174  0  1.011989  0
H  H21  1  0.36751019  0.46003161  0.89482917  1  0.155591  0  0.119138  0.103135  0  1.011982  0
H  H22  1  0.86751096  0.96003170  0.60517009  1  0.15561  0  0.119143  0.103159  0  1.011964  0
H  H23  1  0.63248958  0.53996851  0.10517034  1  0.155613  0  0.119137  0.103153  0  1.011945  0
H  H24  1  0.27490803  0.98827422  0.49895645  1  0.142711  0  0.116101  0.139871  0  0.992175  0
H  H25  1  0.22508991  0.51172574  0.99895621  1  0.142681  0  0.116093  0.139857  0  0.992168  0
H  H26  1  0.72509076  0.01172590  0.50104361  1  0.142705  0  0.116102  0.139876  0  0.992165  0
H  H27  1  0.77490987  0.48827438  0.00104330  1  0.142684  0  0.116096  0.139861  0  0.992167  0
H  H28  1  0.00692896  0.76957397  0.52192234  1  0.079585  0  0.110661  0.117898  0  1.003618  0
H  H29  1  0.49307174  0.73042407  0.02192206  1  0.079605  0  0.110691  0.117948  0  1.003661  0
H  H30  1  0.99307077  0.23042485  0.47807772  1  0.079584  0  0.110691  0.117942  0  1.003688  0
H  H31  1  0.50692899  0.26957540  0.97807800  1  0.079593  0  0.110703  0.117955  0  1.003668  0
H  H32  1  0.87522404  0.83177719  0.42101174  1  0.12966  0  0.121315  0.095572  0  0.988995  0
H  H33  1  0.62477457  0.66822104  0.92101203  1  0.129678  0  0.1213  0.095546  0  0.989022  0
H  H34  1  0.12477472  0.16822163  0.57898777  1  0.129677  0  0.12132  0.095577  0  0.989009  0
H  H35  1  0.37522618  0.33177908  0.07898803  1  0.12969  0  0.121302  0.095551  0  0.989031  0
H  H36  1  0.34896002  0.84105098  0.54952657  1  0.033556  0  0.105167  0.113502  0  0.959728  0
H  H37  1  0.15103975  0.65894835  0.04952682  1  0.033547  0  0.105168  0.113473  0  0.959711  0
H  H38  1  0.65103974  0.15894849  0.45047294  1  0.033555  0  0.105169  0.113476  0  0.959717  0
H  H39  1  0.84896098  0.34105112  0.95047379  1  0.033541  0  0.105188  0.113503  0  0.95964  0
H  H40  1  0.25024590  0.87639518  0.62176065  1  0.123394  0  0.10544  0.127673  0  1.002483  0
H  H41  1  0.24975388  0.62360415  0.12176091  1  0.123377  0  0.105433  0.127635  0  1.00248  0
H  H42  1  0.74975387  0.12360494  0.37823886  1  0.123384  0  0.105425  0.12763  0  1.002494  0
H  H43  1  0.75024685  0.37639532  0.87823915  1  0.123386  0  0.105436  0.127649  0  1.002497  0
H  H44  1  0.20951705  0.70145488  0.54115840  1  0.050766  0  0.102219  0.10333  0  0.963824  0
H  H45  1  0.29048274  0.79854511  0.04115865  1  0.050779  0  0.102225  0.103335  0  0.963852  0
H  H46  1  0.79048176  0.29854589  0.45884166  1  0.050755  0  0.102218  0.103324  0  0.963819  0
H  H47  1  0.70951898  0.20145436  0.95884196  1  0.050759  0  0.102252  0.103371  0  0.963831  0
H  H48  1  0.11982369  0.73569601  0.61777218  1  0.057641  0  0.102692  0.104328  0  0.980671  0
H  H49  1  0.38017609  0.76430332  0.11777244  1  0.057637  0  0.102718  0.104371  0  0.980666  0
H  H50  1  0.88017510  0.26430411  0.38222733  1  0.05765  0  0.1027  0.104346  0  0.98064  0
H  H51  1  0.61982560  0.23569550  0.88222762  1  0.057668  0  0.102668  0.104309  0  0.980715  0
H  H52  1  0.18736977  0.57938140  0.64910899  1  0.101975  0  0.113819  0.122514  0  0.976583  0
H  H53  1  0.31263004  0.92061859  0.14910924  1  0.101977  0  0.113819  0.122515  0  0.976583  0
H  H54  1  0.81262902  0.42061872  0.35088998  1  0.101999  0  0.113832  0.12255  0  0.976568  0
H  H55  1  0.68736973  0.07938153  0.85089083  1  0.101984  0  0.113834  0.122535  0  0.976587  0
H  H56  1  0.34116621  0.50142889  0.73226959  1  0.148821  0  0.119366  0.10059  0  1.014081  0
H  H57  1  0.15883462  0.99857174  0.23226928  1  0.148817  0  0.119341  0.100556  0  1.014093  0
H  H58  1  0.65883258  0.49857123  0.26772992  1  0.149152  0  0.119371  0.100605  0  1.014075  0
H  H59  1  0.84116613  0.00142838  0.76773024  1  0.148818  0  0.119362  0.100589  0  1.014076  0
H  H60  1  0.60357155  0.70946700  0.73212220  1  0.160243  0  0.122736  0.100723  0  0.994787  0
H  H61  1  0.89642706  0.79053320  0.23212246  1  0.160228  0  0.122748  0.100763  0  0.994724  0
H  H62  1  0.39642626  0.29053312  0.26787786  1  0.160213  0  0.122743  0.100762  0  0.99471  0
H  H63  1  0.10357367  0.20946627  0.76787815  1  0.160224  0  0.122743  0.100762  0  0.994705  0
H  H64  1  0.46030523  0.79739628  0.65057912  1  0.118347  0  0.116863  0.128795  0  0.986724  0
H  H65  1  0.03969459  0.70260370  0.15057936  1  0.118351  0  0.116869  0.128807  0  0.986711  0
H  H66  1  0.53969259  0.20260384  0.34942149  1  0.118336  0  0.116861  0.128821  0  0.986728  0
H  H67  1  0.96030713  0.29739577  0.84942180  1  0.118347  0  0.116866  0.128834  0  0.98666  0
C  C68  1  0.65117969  0.89986430  0.34170591  1  1.574068  0  0.194775  0.567406  0  4.232683  0
C  C69  1  0.84881993  0.60013589  0.84170622  1  1.574069  0  0.194754  0.567342  0  4.232756  0
C  C70  1  0.34882006  0.10013517  0.65829416  1  1.574081  0  0.194736  0.567311  0  4.232567  0
C  C71  1  0.15117900  0.39986879  0.15829275  1  1.574332  0  0.194685  0.567342  0  4.232881  0
C  C72  1  0.53442468  0.84085792  0.32883968  1  0.001734  0  -0.024821  -0.038782  0  3.985398  0
C  C73  1  0.96557496  0.65914292  0.82883945  1  0.001753  0  -0.024765  -0.038749  0  3.985344  0
C  C74  1  0.46557704  0.15914155  0.67116093  1  0.001695  0  -0.024766  -0.038751  0  3.985317  0
C  C75  1  0.03442485  0.34085850  0.17116061  1  0.001699  0  -0.024774  -0.038836  0  3.985414  0
C  C76  1  0.54644427  0.76511972  0.28712979  1  -0.126088  0  -0.082345  -0.109739  0  3.944317  0
C  C77  1  0.95355536  0.73488113  0.78712956  1  -0.12609  0  -0.082357  -0.109714  0  3.944437  0
C  C78  1  0.45355647  0.23487975  0.71287136  1  -0.126103  0  -0.082348  -0.109714  0  3.944381  0
C  C79  1  0.04644539  0.26511899  0.21287050  1  -0.126084  0  -0.082367  -0.109757  0  3.944485  0
C  C80  1  0.43903441  0.70886733  0.27655396  1  -0.0097  0  -0.026211  -0.042205  0  3.994388  0
C  C81  1  0.06096545  0.79113329  0.77655369  1  -0.009484  0  -0.026205  -0.042216  0  3.994431  0
C  C82  1  0.56096342  0.29113344  0.72344719  1  -0.009465  0  -0.026234  -0.042258  0  3.994439  0
C  C83  1  0.93903822  0.20886618  0.22344582  1  -0.009493  0  -0.02623  -0.042156  0  3.994413  0
C  C84  1  0.31744123  0.72950990  0.30710994  1  -0.031243  0  -0.085901  -0.089529  0  3.970373  0
C  C85  1  0.18255864  0.77049072  0.80710968  1  -0.031502  0  -0.085923  -0.08957  0  3.970414  0
C  C86  1  0.68255855  0.27049022  0.69289012  1  -0.031475  0  -0.085892  -0.089503  0  3.970288  0
C  C87  1  0.81744209  0.22950875  0.19289038  1  -0.031472  0  -0.085885  -0.089544  0  3.970404  0
C  C88  1  0.30451089  0.80575128  0.34772504  1  -0.057934  0  -0.103554  -0.099159  0  4.040743  0
C  C89  1  0.19548801  0.69424933  0.84772533  1  -0.057928  0  -0.103546  -0.099142  0  4.040684  0
C  C90  1  0.69548890  0.19424949  0.65227393  1  -0.057892  0  -0.103561  -0.099199  0  4.04072  0
C  C91  1  0.80451274  0.30575079  0.15227363  1  -0.057859  0  -0.103526  -0.099104  0  4.040704  0
C  C92  1  0.41261148  0.86095995  0.35911675  1  -0.028143  0  -0.084852  -0.089344  0  3.970395  0
C  C93  1  0.08738937  0.63904002  0.85911704  1  -0.028109  0  -0.084878  -0.089374  0  3.970313  0
C  C94  1  0.58738732  0.13904017  0.64088221  1  -0.028104  0  -0.084884  -0.089378  0  3.970331  0
C  C95  1  0.91261336  0.36096075  0.14088138  1  -0.028122  0  -0.084917  -0.089367  0  3.970316  0
C  C96  1  0.45769474  0.62608073  0.23476682  1  1.532997  0  0.195289  0.557164  0  4.229066  0
C  C97  1  0.04230607  0.87391924  0.73476709  1  1.533016  0  0.195256  0.557123  0  4.229094  0
C  C98  1  0.54230599  0.37391874  0.76523324  1  1.532964  0  0.195273  0.557155  0  4.229041  0
C  C99  1  0.95769468  0.12608088  0.26523297  1  1.532996  0  0.195288  0.557155  0  4.229041  0
C  C100  1  0.10969131  0.98083608  0.42569990  1  0.410017  0  0.047107  0.089737  0  3.934463  0
C  C101  1  0.39030661  0.51916388  0.92569912  1  0.410012  0  0.047107  0.089779  0  3.934412  0
C  C102  1  0.89030747  0.01916339  0.57430126  1  0.410014  0  0.047099  0.08978  0  3.934408  0
C  C103  1  0.60969316  0.48083624  0.07430039  1  0.410011  0  0.04708  0.089748  0  3.934459  0
C  C104  1  0.18822607  0.95099770  0.48207984  1  -0.042298  0  -0.076084  -0.177107  0  3.915217  0
C  C105  1  0.31177283  0.54900161  0.98207906  1  -0.042326  0  -0.076111  -0.177157  0  3.9152  0
C  C106  1  0.81177371  0.04900242  0.51792077  1  -0.042283  0  -0.076096  -0.177139  0  3.915185  0
C  C107  1  0.68822693  0.45099786  0.01792046  1  -0.042324  0  -0.076108  -0.177141  0  3.915252  0
C  C108  1  0.15701440  0.87205084  0.51713114  1  -0.047014  0  0.02454  0.187316  0  3.901039  0
C  C109  1  0.34298533  0.62794720  0.01713085  1  -0.040075  0  0.024551  0.187353  0  3.900943  0
C  C110  1  0.84298436  0.12794798  0.48286947  1  -0.040086  0  0.024556  0.187333  0  3.900988  0
C  C111  1  0.65701541  0.37205227  0.98286921  1  -0.040076  0  0.024538  0.187334  0  3.901047  0
C  C112  1  0.04015791  0.82980486  0.49602332  1  0.021861  0  -0.086388  -0.195468  0  3.958301  0
C  C113  1  0.45984101  0.67019510  0.99602473  1  0.022061  0  -0.086401  -0.19554  0  3.958271  0
C  C114  1  0.95984091  0.17019591  0.50397510  1  0.021939  0  -0.08642  -0.195532  0  3.958292  0
C  C115  1  0.54015972  0.32980437  0.00397533  1  0.021936  0  -0.086402  -0.195523  0  3.958343  0
C  C116  1  0.96533927  0.86384160  0.43977602  1  0.462323  0  0.045391  0.087972  0  3.972171  0
C  C117  1  0.53466230  0.63615728  0.93977630  1  0.462026  0  0.045408  0.088034  0  3.972074  0
C  C118  1  0.03466145  0.13615722  0.56022404  1  0.462286  0  0.045385  0.087988  0  3.972142  0
C  C119  1  0.46533845  0.36384284  0.06022376  1  0.462149  0  0.045417  0.088054  0  3.972105  0
C  C120  1  0.24943918  0.83476158  0.57249081  1  -0.01275  0  -0.154454  -0.209904  0  3.929762  0
C  C121  1  0.25056059  0.66523775  0.07249107  1  -0.019667  0  -0.154403  -0.209759  0  3.929635  0
C  C122  1  0.75056059  0.16523854  0.42750870  1  -0.019679  0  -0.154436  -0.209805  0  3.929706  0
C  C123  1  0.74943916  0.33476172  0.92750899  1  -0.019672  0  -0.154434  -0.209838  0  3.929637  0
C  C124  1  0.21728426  0.74042020  0.59192577  1  -0.045826  0  -0.152153  -0.196939  0  3.97012  0
C  C125  1  0.28271552  0.75957914  0.09192602  1  -0.045828  0  -0.152206  -0.197034  0  3.970203  0
C  C126  1  0.78271552  0.25957992  0.40807430  1  -0.04586  0  -0.152145  -0.196957  0  3.970058  0
C  C127  1  0.71728521  0.24042033  0.90807459  1  -0.045868  0  -0.152185  -0.196984  0  3.970218  0
C  C128  1  0.31117030  0.69512402  0.64183287  1  -0.032696  0  0.020362  0.177248  0  3.937015  0
C  C129  1  0.18882947  0.80487466  0.14183311  1  -0.03267  0  0.020358  0.177227  0  3.936956  0
C  C130  1  0.68882849  0.30487610  0.35816719  1  -0.032611  0  0.020357  0.177307  0  3.936946  0
C  C131  1  0.81117126  0.19512481  0.85816750  1  -0.032609  0  0.020375  0.177285  0  3.936989  0
C  C132  1  0.27925425  0.61070164  0.66582122  1  -0.041267  0  -0.08268  -0.185805  0  3.956349  0
C  C133  1  0.22074557  0.88929834  0.16582091  1  -0.04128  0  -0.08268  -0.185812  0  3.956266  0
C  C134  1  0.72074357  0.38929848  0.33417884  1  -0.041286  0  -0.082756  -0.185944  0  3.956221  0
C  C135  1  0.77925518  0.11070178  0.83417860  1  -0.041243  0  -0.082731  -0.185889  0  3.956233  0
C  C136  1  0.36301473  0.56690053  0.71200725  1  0.444212  0  0.04708  0.092762  0  3.949916  0
C  C137  1  0.13698510  0.93309945  0.21200693  1  0.444209  0  0.047118  0.092844  0  3.949881  0
C  C138  1  0.63698407  0.43309959  0.28799226  1  0.443872  0  0.047116  0.092757  0  3.949829  0
C  C139  1  0.86301565  0.06690067  0.78799258  1  0.444213  0  0.047112  0.092791  0  3.949864  0
C  C140  1  0.50985402  0.68372396  0.71226643  1  0.40106  0  0.050748  0.096255  0  3.939442  0
C  C141  1  0.99014459  0.81627624  0.21226670  1  0.400822  0  0.050689  0.096168  0  3.939363  0
C  C142  1  0.49014379  0.31627616  0.28773309  1  0.401045  0  0.05075  0.096218  0  3.939339  0
C  C143  1  0.00985615  0.18372323  0.78773391  1  0.401144  0  0.050712  0.096191  0  3.939341  0
C  C144  1  0.42971623  0.73173430  0.66631108  1  -0.000322  0  -0.080938  -0.185065  0  3.932955  0
C  C145  1  0.07028360  0.76826633  0.16631132  1  -0.000318  0  -0.080946  -0.185071  0  3.932956  0
C  C146  1  0.57028158  0.26826582  0.33368898  1  -0.000294  0  -0.080938  -0.185133  0  3.932898  0
C  C147  1  0.92971811  0.23173314  0.83368984  1  -0.000433  0  -0.080964  -0.185164  0  3.932924  0
N  N148  1  0.00059777  0.93707955  0.40385948  1  -1.280527  0  -0.339011  -0.251647  0  3.629645  0
N  N149  1  0.49940011  0.56291912  0.90385926  1  -1.280376  0  -0.339009  -0.251672  0  3.629612  0
N  N150  1  0.99940099  0.06291927  0.59614003  1  -1.280539  0  -0.338994  -0.251689  0  3.629705  0
N  N151  1  0.50059966  0.43708100  0.09614026  1  -1.280395  0  -0.338986  -0.251691  0  3.629691  0
N  N152  1  0.47746850  0.60278287  0.73498027  1  -1.263261  0  -0.330028  -0.238305  0  3.562442  0
N  N153  1  0.02253233  0.89721775  0.23497994  1  -1.263017  0  -0.329994  -0.238282  0  3.56239  0
N  N154  1  0.52253029  0.39721725  0.26501980  1  -1.263267  0  -0.33002  -0.238217  0  3.562471  0
N  N155  1  0.97746940  0.10278237  0.76502012  1  -1.263286  0  -0.329985  -0.238223  0  3.562468  0
O  O156  1  0.75642740  0.87725916  0.30649023  1  -1.183389  0  -0.347906  -0.577727  0  2.346685  0
O  O157  1  0.74357221  0.62274103  0.80649053  1  -1.183399  0  -0.347918  -0.577699  0  2.346675  0
O  O158  1  0.24357137  0.12274031  0.69350928  1  -1.183384  0  -0.347915  -0.57768  0  2.346609  0
O  O159  1  0.25642854  0.37725909  0.19350953  1  -1.183355  0  -0.347899  -0.57771  0  2.34656  0
O  O160  1  0.64437966  0.96406636  0.38335826  1  -1.193932  0  -0.333307  -0.561909  0  2.10788  0
O  O161  1  0.85561999  0.53593447  0.88335802  1  -1.193911  0  -0.333283  -0.561865  0  2.107921  0
O  O162  1  0.35562109  0.03593376  0.61664126  1  -1.193944  0  -0.333276  -0.561857  0  2.107853  0
O  O163  1  0.14437785  0.46406630  0.11664368  1  -1.194215  0  -0.333222  -0.561814  0  2.108209  0
O  O164  1  0.35538468  0.57454843  0.23089067  1  -1.15452  0  -0.336108  -0.544074  0  2.313567  0
O  O165  1  0.14461615  0.92545220  0.73089041  1  -1.154537  0  -0.336126  -0.544095  0  2.313573  0
O  O166  1  0.64461509  0.42545169  0.76910939  1  -1.154515  0  -0.336108  -0.544075  0  2.313533  0
O  O167  1  0.85538658  0.07454857  0.26910911  1  -1.154502  0  -0.336074  -0.544072  0  2.313571  0
O  O168  1  0.56665926  0.60882197  0.20703165  1  -1.184368  0  -0.333108  -0.569093  0  2.133028  0
O  O169  1  0.93334033  0.89117823  0.70703140  1  -1.184357  0  -0.333074  -0.569063  0  2.133003  0
O  O170  1  0.43334050  0.39117750  0.79296787  1  -1.184339  0  -0.333111  -0.5691  0  2.13298  0
O  O171  1  0.06666044  0.10882254  0.29296811  1  -1.184379  0  -0.333123  -0.569089  0  2.132967  0
