# generated using pymatgen
data_MnH22C20N4O5
_symmetry_space_group_name_H-M   'P 1'
_cell_length_a   8.70356745
_cell_length_b   10.94900846
_cell_length_c   11.29850000
_cell_angle_alpha   95.91984235
_cell_angle_beta   107.95762115
_cell_angle_gamma   107.27440280
_symmetry_Int_Tables_number   1
_chemical_formula_structural   MnH22C20N4O5
_chemical_formula_sum   'Mn2 H44 C40 N8 O10'
_cell_volume   955.31604913
_cell_formula_units_Z   2
loop_
 _symmetry_equiv_pos_site_id
 _symmetry_equiv_pos_as_xyz
  1  'x, y, z'
loop_
 _atom_site_type_symbol
 _atom_site_label
 _atom_site_symmetry_multiplicity
 _atom_site_fract_x
 _atom_site_fract_y
 _atom_site_fract_z
 _atom_site_occupancy
 _atom_site_hle17_bader_charge
 _atom_site_hle17_bader_spin_density
 _atom_site_hle17_ddec_charge
 _atom_site_hle17_ddec_spin_density
 _atom_site_hle17_ddec_sum_bond_order
 _atom_site_hle17_magmom
 _atom_site_hse06_10hf_ddec_charge
 _atom_site_hse06_10hf_ddec_spin_density
 _atom_site_hse06_10hf_ddec_sum_bond_order
 _atom_site_hse06_10hf_magmom
 _atom_site_hse06_ddec_charge
 _atom_site_hse06_ddec_spin_density
 _atom_site_hse06_ddec_sum_bond_order
 _atom_site_hse06_magmom
 _atom_site_pbe_bader_charge
 _atom_site_pbe_bader_spin_density
 _atom_site_pbe_cm5_charge
 _atom_site_pbe_ddec_charge
 _atom_site_pbe_ddec_spin_density
 _atom_site_pbe_ddec_sum_bond_order
 _atom_site_pbe_magmom
Mn  Mn0  1  0.75229270  0.89824513  0.10291491  1  1.371473  1.002023  0.880217  1.167088  2.398659  1.002  0.760055  1.122762  2.947894  0.994  0.820039  1.112842  2.871922  0.977  1.358994  1.027981  0.591879  0.720634  1.142401  2.998299  1.022
Mn  Mn1  1  0.24804275  0.10130551  0.89656093  1  1.371663  -1.001252  0.881029  -1.166219  2.395311  -1.002  0.761346  -1.122318  2.943597  -0.994  0.821235  -1.112702  2.867681  -0.977  1.361756  -1.027048  0.592774  0.72251  -1.141406  2.99345  -1.021
H  H2  1  0.29157988  0.45628362  0.87333015  1  0.571175  0.000334  0.314772  0.000372  0.920154  0.0  0.293451  -0.00019  0.985263  0.0  0.302607  -0.000148  0.978181  0.0  0.525044  -0.000304  0.311473  0.287046  -0.000236  0.990011  0.0
H  H3  1  0.20807075  0.12275735  0.54052097  1  0.569678  -3.8e-05  0.315484  0.000256  0.935355  0.0  0.293227  -5.8e-05  1.00142  0.0  0.30255  -2.9e-05  0.994092  0.0  0.55292  -0.000125  0.309884  0.286708  -7.4e-05  1.006354  0.0
H  H4  1  0.70650218  0.54470549  0.12490194  1  0.568163  -0.000347  0.313716  -0.000389  0.921478  0.0  0.29255  0.000221  0.986447  0.0  0.301643  0.000177  0.979474  0.0  0.54636  0.000315  0.311299  0.286159  0.000269  0.99115  0.0
H  H5  1  0.79014890  0.87571027  0.46037447  1  0.579981  3.2e-05  0.315555  -0.000256  0.935586  0.0  0.292342  5.4e-05  1.002998  0.0  0.301546  2.7e-05  0.995773  0.0  0.552387  0.000122  0.308886  0.285925  6.8e-05  1.007843  0.0
H  H6  1  0.39185501  0.67309729  0.03842086  1  0.095688  0.001018  0.08723  0.00051  0.945298  0.001  0.094984  -0.000446  1.01497  0.0  0.098251  -0.000322  1.009447  0.0  0.140298  -0.000437  0.136099  0.092195  -0.000647  1.019666  0.0
H  H7  1  0.10827431  0.95628857  0.32742781  1  0.097106  -0.000763  0.083088  -0.00055  0.94644  -0.001  0.091665  -0.000135  1.015765  0.0  0.094391  -8.4e-05  1.011003  0.0  0.128449  -0.000291  0.135274  0.089075  -0.000354  1.020252  0.0
H  H8  1  0.60701184  0.32835108  0.95941866  1  0.086318  -0.001014  0.087357  -0.000506  0.946541  -0.001  0.095476  0.000443  1.015589  0.0  0.098694  0.00032  1.010154  0.0  0.139971  0.000448  0.135992  0.092678  0.00065  1.02028  0.0
H  H9  1  0.89047500  0.04178932  0.67378901  1  0.09004  0.00076  0.081719  0.000539  0.947626  0.001  0.090113  0.000131  1.017526  0.0  0.092938  8e-05  1.012571  0.0  0.123471  0.000278  0.134934  0.087501  0.000343  1.022042  0.0
H  H10  1  0.84340071  0.82275585  0.84118065  1  0.068886  -0.000343  0.119063  -0.00019  0.956536  0.0  0.12616  5e-05  1.019139  0.0  0.130455  2.9e-05  1.016371  0.0  0.115538  -5.8e-05  0.108443  0.12273  9.4e-05  1.021658  0.0
H  H11  1  0.65767235  0.16556604  0.18379527  1  0.064855  4.3e-05  0.117016  4.9e-05  0.956362  0.0  0.124168  6.3e-05  1.01953  0.0  0.128101  7e-06  1.017148  0.0  0.11307  4.5e-05  0.107853  0.121018  0.000115  1.021685  0.0
H  H12  1  0.15837611  0.17569904  0.15850056  1  0.072169  0.000341  0.119594  0.000189  0.954816  0.0  0.126466  -4.8e-05  1.017772  0.0  0.130756  -2.6e-05  1.014974  0.0  0.114494  5.6e-05  0.108598  0.12302  -8.9e-05  1.020286  0.0
H  H13  1  0.34372415  0.83441938  0.81517946  1  0.055157  -3.8e-05  0.117061  -5.3e-05  0.957965  0.0  0.12438  -6.7e-05  1.020802  0.0  0.128318  -1e-05  1.01847  0.0  0.114546  -4.2e-05  0.10773  0.121226  -0.000116  1.022949  0.0
H  H14  1  0.84705392  0.66573745  0.66736912  1  -0.000512  8.9e-05  0.082853  5.9e-05  0.996718  0.0  0.092116  -4.1e-05  1.060033  0.0  0.094126  -8e-06  1.060869  0.0  0.079848  -0.000103  0.091984  0.090111  -7.7e-05  1.060805  0.0
H  H15  1  0.65189610  0.34017324  0.34055809  1  -0.012411  -3.5e-05  0.081925  -1.2e-05  1.003374  0.0  0.091542  -1.4e-05  1.067003  0.0  0.093032  -3e-06  1.068611  0.0  0.072906  -3e-05  0.09208  0.090076  -2.5e-05  1.066914  0.0
H  H16  1  0.15439356  0.33188314  0.33287093  1  0.004293  -9e-05  0.082437  -5.8e-05  0.997949  0.0  0.091476  4.2e-05  1.061656  0.0  0.093468  1e-05  1.062493  0.0  0.05466  0.000112  0.091689  0.089493  7.7e-05  1.06236  0.0
H  H17  1  0.34942838  0.66052407  0.65775643  1  -0.010271  3.4e-05  0.081648  1.2e-05  1.003024  0.0  0.091529  1.5e-05  1.066265  0.0  0.093026  4e-06  1.067805  0.0  0.073672  2.8e-05  0.092175  0.090042  2.4e-05  1.066248  0.0
H  H18  1  0.63049743  0.44206824  0.58733005  1  -0.023186  -9.3e-05  0.085478  -6.7e-05  0.962147  0.0  0.098883  3e-06  1.01889  0.0  0.101406  -4e-06  1.018265  0.0  0.049943  -1.2e-05  0.097001  0.097044  -0.0  1.019494  0.0
H  H19  1  0.86570993  0.41561551  0.55952316  1  -0.018102  4.1e-05  0.084487  3.3e-05  0.961962  0.0  0.098141  5e-06  1.018206  0.0  0.100421  -0.0  1.017851  0.0  0.058365  -1.1e-05  0.096773  0.096444  -4e-06  1.018693  0.0
H  H20  1  0.36925973  0.55612715  0.41259521  1  -0.012648  9.3e-05  0.083722  6.5e-05  0.962568  0.0  0.097776  -3e-06  1.018685  0.0  0.100188  3e-06  1.018161  0.0  0.057525  1.1e-05  0.096525  0.095989  -1e-06  1.019253  0.0
H  H21  1  0.13411746  0.58454126  0.43927570  1  -0.024162  -4.1e-05  0.084519  -3.3e-05  0.962353  0.0  0.098309  -6e-06  1.018424  0.0  0.100592  -1e-06  1.018085  0.0  0.052477  9e-06  0.09656  0.096621  3e-06  1.018906  0.0
H  H22  1  0.40472622  0.36500535  0.68220072  1  0.07298  -3.8e-05  0.127572  0.000151  0.9773  0.0  0.134994  6.9e-05  1.037591  0.0  0.139098  5.7e-05  1.035188  0.0  0.114604  3.8e-05  0.105049  0.131939  9e-05  1.039561  0.0
H  H23  1  0.09193540  0.31488774  0.63293608  1  0.068037  -0.000193  0.124029  -0.000103  0.967275  0.0  0.13289  -4.7e-05  1.02724  0.0  0.136747  -3.5e-05  1.025168  0.0  0.11828  -9.5e-05  0.104706  0.129938  -7.2e-05  1.029015  0.0
H  H24  1  0.59356537  0.63473231  0.31678006  1  0.082206  3.6e-05  0.127725  -0.000152  0.979026  0.0  0.135083  -8.2e-05  1.039322  0.0  0.139276  -6.9e-05  1.036783  0.0  0.124587  -4.7e-05  0.105012  0.13202  -0.000105  1.041304  0.0
H  H25  1  0.90635609  0.68407536  0.36710281  1  0.069213  0.000201  0.124183  0.000102  0.965647  0.0  0.132904  6.1e-05  1.025817  0.0  0.136786  4.8e-05  1.02373  0.0  0.119983  0.000103  0.104806  0.12994  8.8e-05  1.027609  0.0
H  H26  1  0.32939721  0.85139420  0.30122216  1  -0.055158  -0.000223  0.093323  -0.000181  0.943807  0.0  0.111651  -0.000221  1.001936  0.0  0.11357  -9.8e-05  1.001038  0.0  0.032645  -0.000606  0.096916  0.109855  -0.000413  1.003355  0.0
H  H27  1  0.17118511  0.69818009  0.15734400  1  -0.042891  -0.000295  0.098427  -0.000215  0.938672  0.0  0.114611  -0.000372  0.997192  0.0  0.116723  -0.000176  0.996292  0.0  0.04404  -0.000949  0.098565  0.11289  -0.000622  0.998398  0.0
H  H28  1  0.67084019  0.15114502  0.69923095  1  -0.073771  0.000222  0.093483  0.000177  0.942021  0.0  0.112364  0.000227  1.000095  0.0  0.114266  0.000101  0.999229  0.0  0.053433  0.000614  0.096995  0.110596  0.000419  1.001456  0.0
H  H29  1  0.82817338  0.30167215  0.84535518  1  -0.046979  0.000247  0.0969  0.000181  0.938604  0.0  0.1129  0.000353  0.997949  0.0  0.115013  0.00017  0.997031  0.0  0.051664  0.000908  0.097559  0.111129  0.000596  0.999212  0.0
H  H30  1  0.41163909  0.01427022  0.28313122  1  -0.026062  1e-05  0.101668  2.6e-05  0.932025  0.0  0.117308  0.000241  0.992018  0.0  0.119865  0.00023  0.990782  0.0  0.062047  0.000193  0.099365  0.11487  0.000184  0.994005  0.0
H  H31  1  0.10255740  0.72235220  0.99968581  1  -0.048745  -0.000861  0.103317  -0.000654  0.936911  0.0  0.118326  -0.000303  0.997015  0.0  0.120934  -0.000172  0.995662  0.0  0.048482  -0.000439  0.101753  0.116133  -0.000338  0.998665  0.0
H  H32  1  0.58997037  0.98785676  0.71682238  1  -0.045185  3e-06  0.101051  -1.4e-05  0.932265  0.0  0.117694  -0.000254  0.991621  0.0  0.120279  -0.00024  0.990322  0.0  0.056352  -0.000202  0.099701  0.115205  -0.000189  0.99367  0.0
H  H33  1  0.89944429  0.27781045  0.00291366  1  -0.033256  0.000817  0.10438  0.000624  0.937274  0.0  0.118787  0.000293  0.997912  0.0  0.121433  0.000165  0.996598  0.0  0.04065  0.000439  0.101459  0.11652  0.000333  0.999577  0.0
H  H34  1  0.67401600  0.05118790  0.48216547  1  -0.073296  1e-05  0.06079  -1.3e-05  0.953567  0.0  0.077892  -3.6e-05  1.018909  0.0  0.077196  -2.3e-05  1.022431  0.0  0.010382  -1.6e-05  0.088035  0.078747  -3.8e-05  1.015704  0.0
H  H35  1  0.82796646  0.52309013  0.95290048  1  -0.048051  0.0  0.060967  -2.4e-05  0.953348  0.0  0.077925  -5.3e-05  1.019011  0.0  0.077123  -4.4e-05  1.022604  0.0  0.035028  -1.1e-05  0.088241  0.078883  -6.2e-05  1.015757  0.0
H  H36  1  0.32687541  0.95069720  0.51829617  1  -0.064846  -1e-05  0.060298  1.3e-05  0.953931  0.0  0.077672  3.7e-05  1.018818  0.0  0.076942  2.4e-05  1.022387  0.0  0.023295  1.9e-05  0.088004  0.078551  4.1e-05  1.015601  0.0
H  H37  1  0.17221870  0.47775700  0.04848718  1  -0.052683  -4e-06  0.061871  2e-05  0.952414  0.0  0.078997  5.3e-05  1.017791  0.0  0.078149  4.4e-05  1.021451  0.0  0.031851  1e-05  0.088743  0.07997  6e-05  1.014499  0.0
H  H38  1  0.57303030  0.89032028  0.49888369  1  -0.074017  6.7e-05  0.065764  2.4e-05  0.938193  0.0  0.086797  4.6e-05  0.99298  0.0  0.087368  3.2e-05  0.993819  0.0  0.011809  8.3e-05  0.093191  0.085798  7.8e-05  0.993423  0.0
H  H39  1  0.92527475  0.49691550  0.10686446  1  -0.075967  -9e-06  0.065122  -3.5e-05  0.934148  0.0  0.086169  6.6e-05  0.989483  0.0  0.086661  4.3e-05  0.990396  0.0  0.037966  0.000116  0.092776  0.085194  9.9e-05  0.989916  0.0
H  H40  1  0.42718404  0.11163729  0.50138809  1  -0.050924  -6.8e-05  0.064777  -2.8e-05  0.938124  0.0  0.085677  -4.9e-05  0.992944  0.0  0.086272  -3.4e-05  0.99375  0.0  0.022853  -8.4e-05  0.092674  0.084684  -7.9e-05  0.993359  0.0
H  H41  1  0.07380701  0.50312671  0.89434001  1  -0.095979  3e-06  0.065507  3e-05  0.934212  0.0  0.086425  -6.5e-05  0.989593  0.0  0.086873  -4.1e-05  0.990542  0.0  0.005422  -0.000116  0.092584  0.08545  -9.6e-05  0.990082  0.0
H  H42  1  0.64238202  0.04307014  0.93750871  1  0.651312  0.000114  0.422513  -0.000144  0.871788  0.0  0.393712  -0.003394  0.935754  -0.004  0.403776  -0.003368  0.921622  -0.004  0.64045  -0.003268  0.303111  0.38653  -0.003189  0.945588  -0.004
H  H43  1  0.84756063  0.06335964  0.96320714  1  0.676836  8.5e-05  0.422565  0.000111  0.873049  0.0  0.393783  0.00252  0.937379  0.003  0.403296  0.002338  0.923946  0.003  0.638309  0.002434  0.30473  0.387215  0.002446  0.946435  0.003
H  H44  1  0.35857869  0.95736767  0.06296546  1  0.646106  -8.7e-05  0.422672  0.000184  0.871609  0.0  0.393957  0.003435  0.935345  0.004  0.403988  0.003401  0.92124  0.004  0.6365  0.003449  0.303038  0.3868  0.003307  0.945162  0.004
H  H45  1  0.15341299  0.93692933  0.03749685  1  0.666537  -0.00016  0.422455  -0.00017  0.873952  0.0  0.393616  -0.002583  0.937944  -0.003  0.403121  -0.002389  0.924546  -0.003  0.648045  -0.002529  0.304601  0.387027  -0.002595  0.947027  -0.003
C  C46  1  0.44896349  0.65649848  0.96846399  1  1.038169  -0.021915  0.256757  -0.021033  3.631788  -0.015  0.185923  -0.007862  3.928961  -0.005  0.209854  -0.002328  3.930727  -0.001  0.978507  -0.012999  0.152459  0.168271  -0.013043  3.929064  -0.009
C  C47  1  0.05051476  0.02818889  0.34415054  1  1.048335  0.015195  0.258479  0.01515  3.64174  0.011  0.191675  0.003491  3.934904  0.003  0.214241  0.00608  3.939201  0.005  1.009079  7.9e-05  0.157308  0.174939  5e-06  3.933364  0.001
C  C48  1  0.55036635  0.34424779  0.02988441  1  1.049121  0.021891  0.252932  0.020993  3.633111  0.015  0.181592  0.007857  3.930464  0.005  0.205467  0.002351  3.93227  0.001  0.982053  0.013173  0.151284  0.163924  0.01324  3.930579  0.009
C  C49  1  0.94844624  0.97018570  0.65662491  1  1.050717  -0.015291  0.259525  -0.015267  3.644224  -0.011  0.192396  -0.003315  3.937123  -0.003  0.214848  -0.005855  3.941336  -0.005  1.012082  4.5e-05  0.15715  0.175863  6.2e-05  3.93558  -0.001
C  C50  1  0.74779166  0.72454664  0.80696262  1  0.026574  0.004409  -0.137069  0.004068  3.725791  0.003  -0.157573  -7e-05  3.978533  0.0  -0.158901  -0.000417  3.995403  0.0  -0.036577  -0.000181  -0.094691  -0.157361  -0.000127  3.969019  0.0
C  C51  1  0.75200187  0.19774232  0.28019049  1  0.034987  -0.001846  -0.131965  -0.001827  3.724709  -0.001  -0.15292  -6.2e-05  3.976361  0.0  -0.154447  -0.000253  3.994236  0.0  -0.056704  -3e-06  -0.092663  -0.152304  3e-06  3.965955  0.0
C  C52  1  0.25327007  0.27419613  0.19263417  1  -0.02148  -0.004387  -0.137475  -0.004047  3.727675  -0.003  -0.157823  8e-05  3.980506  0.0  -0.159099  0.000421  3.99735  0.0  -0.093386  0.000226  -0.094463  -0.157591  0.000156  3.970938  0.0
C  C53  1  0.24883234  0.80220196  0.71898025  1  0.043696  0.001826  -0.132965  0.001799  3.726463  0.001  -0.154167  5.4e-05  3.977883  0.0  -0.155733  0.000227  3.995746  0.0  -0.059161  1.7e-05  -0.093575  -0.153566  -3e-06  3.967529  0.0
C  C54  1  0.74872720  0.63580358  0.70955036  1  0.039409  -0.004133  -0.084943  -0.003778  3.786741  -0.003  -0.102035  -0.001009  4.042604  -0.001  -0.103563  -9.4e-05  4.06414  0.0  -0.049571  -0.002383  -0.108524  -0.101625  -0.002032  4.029909  -0.001
C  C55  1  0.75014176  0.29552263  0.36868779  1  0.041386  0.00179  -0.092803  0.001682  3.792319  0.001  -0.108183  1.1e-05  4.045972  0.0  -0.110532  0.000315  4.06911  0.0  -0.04532  -0.000548  -0.110274  -0.107154  -0.000465  4.031778  0.0
C  C56  1  0.25220172  0.36243979  0.29036680  1  0.057415  0.004104  -0.083922  0.003748  3.785405  0.003  -0.100909  0.000989  4.041305  0.001  -0.102419  8.7e-05  4.062744  0.0  -0.005787  0.002352  -0.107518  -0.100494  0.002015  4.02859  0.001
C  C57  1  0.25081899  0.70488091  0.63004999  1  0.031618  -0.001784  -0.090767  -0.001675  3.792365  -0.001  -0.106339  3e-06  4.046184  0.0  -0.108641  -0.000295  4.069332  0.0  -0.058163  0.00055  -0.109132  -0.10529  0.000468  4.031977  0.0
C  C58  1  0.62628314  0.50794351  0.66451293  1  -0.009691  0.003248  -0.082576  0.002967  3.813426  0.002  -0.097704  2.3e-05  4.069273  0.0  -0.099466  -0.000343  4.090664  0.0  -0.085591  0.000246  -0.104377  -0.096208  0.000183  4.054601  0.0
C  C59  1  0.87126826  0.33801601  0.49409114  1  0.036604  -0.001499  -0.077679  -0.001383  3.816362  -0.001  -0.092078  0.000431  4.069937  0.0  -0.09393  9.8e-05  4.092297  0.0  -0.03969  0.000895  -0.101999  -0.090476  0.000723  4.054522  0.001
C  C60  1  0.37370250  0.49062497  0.33520030  1  -0.041791  -0.003244  -0.080528  -0.002959  3.812603  -0.002  -0.096125  -4e-05  4.068625  0.0  -0.097785  0.000334  4.09003  0.0  -0.108955  -0.00026  -0.104272  -0.094706  -0.000197  4.054002  0.0
C  C61  1  0.12884223  0.66205459  0.50497611  1  0.047068  0.001476  -0.078518  0.001363  3.819423  0.001  -0.093161  -0.000439  4.073076  0.0  -0.095033  -0.000116  4.09545  0.0  -0.025847  -0.000907  -0.102485  -0.091534  -0.000734  4.057609  -0.001
C  C62  1  0.49785513  0.46418595  0.71499216  1  0.080732  -0.003252  -0.166215  -0.002944  3.755906  -0.002  -0.185374  -0.000506  4.01082  0.0  -0.18806  0.000125  4.028936  0.0  0.004871  -0.001528  -0.102716  -0.183761  -0.001288  3.998335  -0.001
C  C63  1  0.99970825  0.28452400  0.53568281  1  0.04927  0.001345  -0.166187  0.001194  3.757038  0.001  -0.185664  -0.000358  4.010322  0.0  -0.188588  -3.2e-05  4.028985  0.0  -0.015308  -0.001026  -0.102361  -0.183805  -0.00088  3.997428  -0.001
C  C64  1  0.50136766  0.53525306  0.28421622  1  0.072083  0.003246  -0.166885  0.002939  3.757651  0.002  -0.186209  0.000493  4.012611  0.0  -0.188951  -0.000133  4.030597  0.0  0.020985  0.001535  -0.102964  -0.184643  0.001292  4.000248  0.001
C  C65  1  0.99956569  0.71488465  0.46404334  1  0.037869  -0.001321  -0.168425  -0.001172  3.75992  -0.001  -0.187198  0.000386  4.013966  0.0  -0.190143  5.9e-05  4.032732  0.0  -0.031787  0.001071  -0.103459  -0.185343  0.000917  4.000987  0.001
C  C66  1  0.49765672  0.55305141  0.81289000  1  0.293321  0.000971  0.142064  0.000551  3.819104  0.001  0.133281  -0.000169  4.065582  0.0  0.137186  -0.000258  4.087226  0.0  0.333614  -0.000308  0.088118  0.131167  -0.000383  4.050317  0.0
C  C67  1  0.00090639  0.18635984  0.44688841  1  0.300217  -0.002135  0.14012  -0.001808  3.81922  -0.002  0.133771  0.000192  4.061942  0.0  0.137731  -6e-06  4.083799  0.0  0.319597  0.000237  0.088429  0.131612  0.000218  4.046548  0.0
C  C68  1  0.50170044  0.44690364  0.18598854  1  0.328693  -0.000973  0.141825  -0.000548  3.820105  -0.001  0.133323  0.000145  4.06617  0.0  0.137225  0.000235  4.087771  0.0  0.336871  0.000279  0.088227  0.131214  0.000354  4.050995  0.0
C  C69  1  0.99839932  0.81271882  0.55315774  1  0.305064  0.002167  0.14161  0.001838  3.818173  0.002  0.133172  -0.00021  4.062951  0.0  0.137014  -2.1e-05  4.084833  0.0  0.3236  -0.00027  0.087973  0.131122  -0.000244  4.04746  0.0
C  C70  1  0.62105446  0.68176146  0.86046927  1  0.318998  -0.007897  0.124136  -0.00739  3.783419  -0.007  0.130125  0.001599  4.02289  0.001  0.133106  0.002061  4.045358  0.002  0.327604  0.00083  0.084399  0.12788  0.001332  4.007975  0.001
C  C71  1  0.87863589  0.14100419  0.32066504  1  0.304178  0.00128  0.126174  0.000464  3.777079  0.001  0.131511  0.000286  4.014318  0.001  0.134617  0.000204  4.037111  0.001  0.334757  0.000893  0.085574  0.129096  0.000464  3.999232  0.001
C  C72  1  0.37917539  0.31788319  0.13861826  1  0.331229  0.007912  0.124362  0.007372  3.784638  0.007  0.130173  -0.001645  4.024006  -0.001  0.133031  -0.002091  4.046514  -0.002  0.360797  -0.000897  0.085353  0.127998  -0.001401  4.009062  -0.001
C  C73  1  0.12137892  0.85829675  0.67912567  1  0.304658  -0.001103  0.125365  -0.00028  3.778737  -0.001  0.131095  -0.000281  4.015848  -0.001  0.134244  -0.000193  4.038674  -0.001  0.34267  -0.000839  0.086088  0.128668  -0.000398  4.000781  -0.001
C  C74  1  0.55465279  0.89243246  0.25099684  1  1.487159  -0.005463  0.675241  -0.004643  3.825886  -0.004  0.6228  -0.004016  4.132789  -0.003  0.658508  -0.002524  4.126459  -0.002  1.523753  -0.006341  0.212822  0.596637  -0.0061  4.137412  -0.004
C  C75  1  0.95259050  0.76057323  0.10698171  1  1.459109  -0.000185  0.667998  -0.000542  3.813658  0.0  0.611759  -0.003197  4.123059  -0.002  0.648956  -0.000748  4.11657  0.0  1.483416  -0.007419  0.205855  0.584358  -0.006523  4.127348  -0.005
C  C76  1  0.44548560  0.10775467  0.74972517  1  1.491924  0.005572  0.6707  0.004761  3.827665  0.004  0.619437  0.004079  4.133936  0.003  0.655149  0.002526  4.127654  0.002  1.515889  0.006443  0.210278  0.593194  0.006253  4.138651  0.004
C  C77  1  0.04741383  0.24018478  0.89325218  1  1.478286  -0.000192  0.668328  0.000103  3.81019  0.0  0.612309  0.002726  4.120243  0.002  0.649249  0.000458  4.113776  0.0  1.495815  0.006739  0.205453  0.5851  0.005766  4.124575  0.004
C  C78  1  0.44907281  0.93443623  0.32047036  1  0.154861  -0.001174  -0.273894  -0.001535  3.704572  -0.001  -0.31519  -0.000562  3.961474  0.0  -0.320635  -0.000375  3.968621  0.0  -0.064572  -0.000597  -0.168591  -0.31129  -0.0008  3.957495  0.0
C  C79  1  0.05643086  0.68346041  0.07313930  1  0.197396  7e-05  -0.271398  -0.0001  3.704491  0.0  -0.310602  -0.00101  3.961617  0.0  -0.316303  -0.000768  3.968328  0.0  -0.015536  -0.001025  -0.167065  -0.306666  -0.00132  3.957709  0.0
C  C80  1  0.55170778  0.06756051  0.67985751  1  0.205406  0.001172  -0.270213  0.001532  3.702559  0.001  -0.313953  0.000562  3.961171  0.0  -0.319391  0.000387  3.968243  0.0  -0.048545  0.00061  -0.167548  -0.310021  0.000807  3.957194  0.0
C  C81  1  0.94395648  0.31680898  0.92886969  1  0.182756  1.6e-05  -0.270196  0.000174  3.700324  0.0  -0.309339  0.000982  3.958001  0.0  -0.315138  0.000748  3.964937  0.0  -0.023834  0.000986  -0.165924  -0.305273  0.001274  3.953924  0.0
C  C82  1  0.54842163  0.97528843  0.46394583  1  0.199784  -0.000104  -0.087799  -0.000189  3.709748  0.0  -0.125929  -0.000555  3.963782  -0.001  -0.126926  -0.000427  3.979474  0.0  0.02676  -0.000576  -0.168261  -0.124891  -0.000515  3.951774  0.0
C  C83  1  0.95236111  0.53721738  0.02722956  1  0.18019  0.000536  -0.084355  0.000483  3.698389  0.0  -0.12354  -0.000182  3.955477  0.0  -0.124371  -0.0001  3.970992  0.0  -0.023982  -0.000384  -0.166584  -0.122634  -0.000288  3.943655  0.0
C  C84  1  0.45225452  0.02683658  0.53641786  1  0.156178  0.000107  -0.088196  0.00019  3.709616  0.0  -0.125707  0.000574  3.964081  0.001  -0.126687  0.000441  3.979648  0.0  -0.009  0.000616  -0.168515  -0.124695  0.000541  3.952117  0.001
C  C85  1  0.04749795  0.46313818  0.97431740  1  0.186732  -0.000489  -0.087595  -0.000439  3.698035  0.0  -0.126324  0.000161  3.954601  0.0  -0.12714  8.9e-05  3.970244  0.0  -0.002721  0.000292  -0.167525  -0.125407  0.000211  3.942613  0.0
N  N86  1  0.39026578  0.54171593  0.88208270  1  -1.32902  -0.002545  -0.352752  -0.001776  3.41748  -0.001  -0.294803  -0.00072  3.663211  0.0  -0.312521  0.000123  3.673182  0.0  -1.284225  -0.002364  -0.38464  -0.283108  -0.001448  3.657095  -0.001
N  N87  1  0.10809901  0.11411962  0.45696200  1  -1.330769  0.004227  -0.355586  0.003495  3.428248  0.003  -0.297961  0.001251  3.671377  0.001  -0.316407  0.001461  3.682633  0.001  -1.312549  0.001137  -0.386448  -0.285692  0.000893  3.664145  0.001
N  N88  1  0.60853423  0.45895984  0.11631426  1  -1.337196  0.002625  -0.351163  0.001821  3.420049  0.001  -0.293134  0.000724  3.665015  0.001  -0.310732  -0.000107  3.674937  0.0  -1.314818  0.002451  -0.384615  -0.281585  0.001494  3.658957  0.001
N  N89  1  0.89053183  0.88435975  0.54374374  1  -1.337942  -0.004302  -0.353973  -0.003556  3.426233  -0.003  -0.29467  -0.001184  3.669506  -0.001  -0.312802  -0.001389  3.680701  -0.001  -1.307343  -0.001047  -0.384074  -0.282544  -0.000812  3.662224  -0.001
N  N90  1  0.58827429  0.74374823  0.96028033  1  -1.16906  -0.00163  -0.396995  -0.002895  3.248625  0.0  -0.347251  -0.007807  3.563242  -0.008  -0.368906  -0.00745  3.568829  -0.008  -1.182599  -0.008499  -0.368538  -0.333106  -0.00866  3.559253  -0.009
N  N91  1  0.91223663  0.03923551  0.25898721  1  -1.174328  -0.012277  -0.392698  -0.013043  3.244083  -0.015  -0.340647  -0.004272  3.549802  -0.012  -0.363822  -0.003689  3.557661  -0.012  -1.187505  -0.004298  -0.366726  -0.325258  -0.004849  3.544437  -0.012
N  N92  1  0.41182249  0.25642715  0.03843479  1  -1.161913  0.001866  -0.39318  0.003094  3.245376  0.0  -0.34365  0.007785  3.559963  0.008  -0.365116  0.007416  3.565524  0.008  -1.184172  0.008615  -0.368588  -0.329621  0.008756  3.555883  0.009
N  N93  1  0.08744934  0.95952294  0.74130223  1  -1.163762  0.012597  -0.393557  0.013262  3.246169  0.015  -0.340709  0.004154  3.550812  0.012  -0.363985  0.003545  3.558761  0.012  -1.182308  0.004132  -0.366655  -0.325367  0.004693  3.545386  0.012
O  O94  1  0.74878551  0.03102276  0.99240463  1  -1.300327  0.023404  -0.787188  0.020752  2.035283  0.013  -0.724111  0.012751  2.261614  0.004  -0.754286  0.010857  2.227526  0.002  -1.238164  0.018486  -0.559537  -0.699576  0.014316  2.283943  0.005
O  O95  1  0.25235348  0.97004567  0.00866525  1  -1.286251  -0.023211  -0.788291  -0.020451  2.035517  -0.013  -0.725373  -0.01303  2.261381  -0.004  -0.75546  -0.011127  2.227207  -0.002  -1.24431  -0.019176  -0.560589  -0.700962  -0.014875  2.283661  -0.005
O  O96  1  0.54095972  0.91670642  0.13894630  1  -1.186322  0.002537  -0.620588  0.001026  2.100748  -0.002  -0.547191  0.003375  2.359008  0.0  -0.583488  0.003195  2.34972  0.0  -1.160403  0.004061  -0.298957  -0.519765  0.003055  2.364043  -0.001
O  O97  1  0.96791940  0.87363921  0.07753652  1  -1.177619  -0.005272  -0.61288  -0.005862  2.08248  -0.009  -0.544162  -0.003145  2.342562  -0.008  -0.58028  -0.002412  2.333192  -0.007  -1.156216  -0.004785  -0.296821  -0.51683  -0.004034  2.3476  -0.009
O  O98  1  0.45948935  0.08233698  0.86136080  1  -1.185966  -0.002341  -0.617517  -0.000923  2.103555  0.002  -0.54491  -0.003067  2.361817  0.0  -0.581224  -0.00291  2.352582  0.0  -1.160778  -0.003795  -0.297756  -0.517592  -0.002788  2.36687  0.001
O  O99  1  0.03272912  0.12679468  0.92187006  1  -1.18828  0.0051  -0.613853  0.005678  2.079359  0.009  -0.545139  0.003061  2.339645  0.008  -0.581217  0.002342  2.330315  0.008  -1.161469  0.00473  -0.297046  -0.517955  0.003994  2.34464  0.009
O  O100  1  0.65865796  0.83808950  0.30347758  1  -1.218028  0.010386  -0.609582  0.009849  2.021066  0.005  -0.550834  0.003665  2.250274  0.003  -0.577875  0.002835  2.243823  0.002  -1.192384  0.005291  -0.292966  -0.530682  0.004645  2.254163  0.004
O  O101  1  0.84358482  0.71515296  0.15862401  1  -1.204435  -0.00049  -0.602172  -0.000701  1.994936  -0.001  -0.546115  0.009166  2.233615  0.008  -0.577173  0.008864  2.227369  0.007  -1.183742  0.010842  -0.286149  -0.521355  0.00908  2.235685  0.008
O  O102  1  0.34009873  0.16143959  0.69808784  1  -1.212194  -0.01118  -0.608481  -0.01052  2.019268  -0.006  -0.550052  -0.003487  2.248455  -0.003  -0.57737  -0.002679  2.242021  -0.002  -1.191996  -0.004993  -0.291393  -0.529527  -0.004426  2.252233  -0.004
O  O103  1  0.15490131  0.28658820  0.84082095  1  -1.20559  -5.9e-05  -0.603925  0.000187  1.99195  0.001  -0.547877  -0.009259  2.229425  -0.008  -0.578419  -0.008871  2.223159  -0.007  -1.183068  -0.011403  -0.287306  -0.523907  -0.009536  2.231943  -0.008
