# generated using pymatgen
data_Zn4H5C36I7Br6O13
_symmetry_space_group_name_H-M   'P 1'
_cell_length_a   18.15977787
_cell_length_b   18.16105277
_cell_length_c   18.31325929
_cell_angle_alpha   90.64114792
_cell_angle_beta   120.01455163
_cell_angle_gamma   119.33317209
_symmetry_Int_Tables_number   1
_chemical_formula_structural   Zn4H5C36I7Br6O13
_chemical_formula_sum   'Zn8 H10 C72 I14 Br12 O26'
_cell_volume   4288.54986181
_cell_formula_units_Z   2
loop_
 _symmetry_equiv_pos_site_id
 _symmetry_equiv_pos_as_xyz
  1  'x, y, z'
loop_
 _atom_site_type_symbol
 _atom_site_label
 _atom_site_symmetry_multiplicity
 _atom_site_fract_x
 _atom_site_fract_y
 _atom_site_fract_z
 _atom_site_occupancy
 _atom_site_pbe_bader_charge
 _atom_site_pbe_bader_spin_density
 _atom_site_pbe_cm5_charge
 _atom_site_pbe_ddec_charge
 _atom_site_pbe_ddec_spin_density
 _atom_site_pbe_ddec_sum_bond_order
 _atom_site_pbe_magmom
Zn  Zn0  1  0.90968829  0.95196458  0.54378148  1  1.302654  0  0.668348  0.967619  0  2.381844  0
Zn  Zn1  1  0.08862402  0.53766656  0.13534066  1  1.314053  0  0.672737  0.996669  0  2.269213  0
Zn  Zn2  1  0.09230659  0.95632565  0.54937761  1  1.313587  0  0.665131  0.984868  0  2.321378  0
Zn  Zn3  1  0.90971503  0.94907900  0.37248829  1  1.306541  0  0.674347  0.977131  0  2.355118  0
Zn  Zn4  1  0.91407088  0.54702589  0.96251886  1  1.328766  0  0.672889  0.985946  0  2.346362  0
Zn  Zn5  1  0.90453944  0.36849303  0.95170797  1  1.306899  0  0.673342  0.977062  0  2.32882  0
Zn  Zn6  1  0.08732281  0.12972417  0.54385148  1  1.32354  0  0.672938  1.000067  0  2.275266  0
Zn  Zn7  1  0.08737261  0.54518434  0.96162613  1  1.312778  0  0.660942  0.968534  0  2.397068  0
H  H8  1  0.59875149  0.73845735  0.39767699  1  0.136813  0  0.106173  0.123914  0  1.006334  0
H  H9  1  0.88734759  0.65025467  0.14535716  1  0.104375  0  0.115125  0.123334  0  0.973163  0
H  H10  1  0.88973891  0.75172248  0.23994407  1  0.076602  0  0.114919  0.123007  0  0.972277  0
H  H11  1  0.26401280  0.18864697  0.96467813  1  0.085672  0  0.111452  0.128562  0  0.972615  0
H  H12  1  0.29638576  0.31054950  0.06425471  1  0.113352  0  0.111631  0.12859  0  0.972218  0
H  H13  1  0.79984164  0.70663028  0.52182631  1  0.084823  0  0.107036  0.128287  0  0.997177  0
H  H14  1  0.98769389  0.24003759  0.05312581  1  0.114892  0  0.102289  0.124972  0  1.025517  0
H  H15  1  0.60501223  0.19647639  0.78051725  1  0.120431  0  0.109849  0.130028  0  0.994427  0
H  H16  1  0.82083971  0.50972766  0.70707165  1  0.103517  0  0.099087  0.117632  0  1.01004  0
H  H17  1  0.01809693  0.06519356  0.26106780  1  0.086828  0  0.097723  0.115854  0  1.033538  0
C  C18  1  0.98765414  0.12939360  0.35801985  1  1.614008  0  0.221863  0.612529  0  4.187518  0
C  C19  1  0.44758509  0.29253465  0.75248315  1  0.025802  0  0.00351  0.054693  0  3.912925  0
C  C20  1  0.95942972  0.71468672  0.19404357  1  -0.025698  0  -0.078737  -0.082466  0  3.983804  0
C  C21  1  0.13896395  0.17932592  0.84611604  1  -0.086333  0  -0.022682  0.052898  0  3.9142  0
C  C22  1  0.16989045  0.31140878  0.95959500  1  -0.05294  0  -0.01681  0.048887  0  3.9301  0
C  C23  1  0.21758611  0.21540634  0.93648388  1  0.05042  0  -0.09887  -0.119994  0  4.036442  0
C  C24  1  0.23496654  0.28344039  0.99285759  1  -0.039335  0  -0.096359  -0.122518  0  4.046604  0
C  C25  1  0.08974697  0.27882780  0.86557496  1  0.061114  0  -4.1e-05  0.031146  0  3.908975  0
C  C26  1  0.44240493  0.73272388  0.15371268  1  0.012376  0  0.005983  0.060945  0  3.884579  0
C  C27  1  0.07813865  0.21415308  0.80569489  1  0.019834  0  9.1e-05  0.034158  0  3.902688  0
C  C28  1  0.00703916  0.18924507  0.71106609  1  0.050283  0  -0.012016  -0.082286  0  3.895749  0
C  C29  1  0.01955807  0.30454864  0.82651910  1  0.023146  0  -0.013082  -0.083074  0  3.919604  0
C  C30  1  0.94333832  0.21898408  0.67654843  1  -0.041878  0  -0.015739  0.045623  0  3.940539  0
C  C31  1  0.94763098  0.27508889  0.73466093  1  -0.031669  0  -0.01627  0.043065  0  3.946625  0
C  C32  1  0.03973671  0.89281312  0.37332403  1  1.57852  0  0.214356  0.594458  0  4.215305  0
C  C33  1  0.03495497  0.66151300  0.15114507  1  1.577081  0  0.215836  0.597889  0  4.208943  0
C  C34  1  0.27687701  0.13885325  0.65538028  1  1.550042  0  0.207587  0.589198  0  4.216111  0
C  C35  1  0.27188891  0.62458792  0.13322393  1  1.601694  0  0.20471  0.583579  0  4.196172  0
C  C36  1  0.71853735  0.85914373  0.36248168  1  1.616918  0  0.219185  0.594623  0  4.213266  0
C  C37  1  0.54504196  0.81054156  0.21738093  1  0.085046  0  -0.002767  0.029654  0  3.948036  0
C  C38  1  0.72304893  0.36960799  0.85044439  1  1.554408  0  0.21982  0.596695  0  4.178133  0
C  C39  1  0.58351163  0.88655048  0.19081283  1  -0.048792  0  -0.023399  0.037495  0  3.909458  0
C  C40  1  0.58224385  0.44197282  0.77564307  1  -0.026206  0  -0.021887  0.037154  0  3.906843  0
C  C41  1  0.53444270  0.87896262  0.10101722  1  -0.125285  0  -0.065915  -0.035714  0  3.910844  0
C  C42  1  0.53353594  0.47809477  0.78381905  1  -0.18417  0  -0.063611  -0.034873  0  3.909512  0
C  C43  1  0.54837987  0.35155178  0.77229925  1  0.089686  0  0.000206  0.038288  0  3.922198  0
C  C44  1  0.45001198  0.79134919  0.03562677  1  -0.026596  0  -0.032288  0.031995  0  3.963948  0
C  C45  1  0.45070638  0.42408607  0.79225840  1  -0.020527  0  -0.029954  0.040536  0  3.956345  0
C  C46  1  0.60253558  0.80654342  0.30424969  1  -0.0406  0  -0.005721  -0.030817  0  3.9143  0
C  C47  1  0.60699411  0.31446333  0.78846517  1  0.068262  0  -0.011865  -0.055389  0  3.907983  0
C  C48  1  0.98960927  0.62618137  0.85382486  1  1.617876  0  0.220069  0.608296  0  4.204878  0
C  C49  1  0.55298977  0.74103314  0.33182758  1  0.023918  0  -0.090943  -0.135361  0  3.972036  0
C  C50  1  0.55801347  0.22243722  0.76458556  1  0.014976  0  -0.084994  -0.117155  0  3.955566  0
C  C51  1  0.44412083  0.67947905  0.27660439  1  -0.226576  0  -0.033901  0.064447  0  3.861515  0
C  C52  1  0.45008249  0.16296572  0.72187119  1  -0.27737  0  -0.041195  0.047954  0  3.879924  0
C  C53  1  0.38684206  0.67386460  0.18724935  1  -0.004176  0  -0.023747  -0.12056  0  3.887545  0
C  C54  1  0.39347668  0.19670530  0.71515940  1  0.087264  0  -0.01698  -0.096026  0  3.877916  0
C  C55  1  0.80556610  0.66442144  0.56322228  1  0.019288  0  -0.091041  -0.166313  0  3.932754  0
C  C56  1  0.99486566  0.20309578  0.09979441  1  0.055093  0  -0.095982  -0.177093  0  3.944386  0
C  C57  1  0.72278043  0.57580908  0.52902370  1  -0.100988  0  -0.021136  0.086176  0  3.967906  0
C  C58  1  0.00955363  0.13735606  0.08800687  1  -0.098041  0  -0.020673  0.082704  0  3.976057  0
C  C59  1  0.72891645  0.51814573  0.58038784  1  -0.230671  0  -0.056659  0.01367  0  3.911391  0
C  C60  1  0.01965090  0.08781916  0.14773983  1  -0.213333  0  -0.053956  0.016468  0  3.919312  0
C  C61  1  0.98583182  0.84498167  0.62485536  1  1.572762  0  0.22196  0.613096  0  4.191928  0
C  C62  1  0.97182493  0.34769130  0.12688441  1  1.616811  0  0.223799  0.61756  0  4.17727  0
C  C63  1  0.81576893  0.55376966  0.66764411  1  0.052004  0  -0.098287  -0.148683  0  3.950752  0
C  C64  1  0.40472212  0.71986736  0.06136402  1  -0.044655  0  -0.02299  0.017043  0  3.893184  0
C  C65  1  0.01171772  0.10431295  0.21645139  1  0.045709  0  -0.094976  -0.148186  0  3.944432  0
C  C66  1  0.90067213  0.64526339  0.70524457  1  0.031247  0  0.00036  0.076352  0  3.956899  0
C  C67  1  0.99224299  0.16883179  0.22802741  1  0.021784  0  0.000859  0.076148  0  3.947573  0
C  C68  1  0.89774996  0.70055899  0.65050369  1  0.065817  0  0.003577  0.085208  0  3.962065  0
C  C69  1  0.98501512  0.22028372  0.16917115  1  0.00496  0  0.001996  0.082845  0  3.949251  0
C  C70  1  0.40742359  0.33289042  0.77459315  1  -0.028917  0  -0.026196  0.012838  0  3.914992  0
C  C71  1  0.98925386  0.78784959  0.68353673  1  0.046861  0  -0.013664  -0.087668  0  3.916989  0
C  C72  1  0.96689171  0.28611271  0.18158746  1  0.006489  0  -0.01302  -0.088742  0  3.903703  0
C  C73  1  0.08036013  0.81869213  0.76697426  1  -0.17584  0  -0.050584  -0.00158  0  3.898848  0
C  C74  1  0.94897520  0.29555017  0.24536687  1  -0.185508  0  -0.051085  0.005482  0  3.89401  0
C  C75  1  0.08014956  0.76639265  0.82430691  1  -0.211955  0  -0.049706  -0.001389  0  3.889668  0
C  C76  1  0.95483956  0.24362766  0.30309935  1  -0.161272  0  -0.051975  -5.1e-05  0  3.886153  0
C  C77  1  0.99117498  0.68230017  0.79438026  1  0.017253  0  -0.01085  -0.077524  0  3.921053  0
C  C78  1  0.97901504  0.18342851  0.29613627  1  0.024936  0  -0.012955  -0.083472  0  3.907192  0
C  C79  1  0.24220653  0.96963794  0.37989067  1  -0.159064  0  -0.05557  -0.027144  0  3.840676  0
C  C80  1  0.23718289  0.85585429  0.26984001  1  -0.156282  0  -0.058568  -0.025884  0  3.841982  0
C  C81  1  0.33496234  0.98947961  0.39624373  1  -0.176051  0  -0.062419  -0.003646  0  3.882418  0
C  C82  1  0.33243351  0.93114223  0.34069184  1  -0.172466  0  -0.063567  -0.000411  0  3.889654  0
C  C83  1  0.14511771  0.82321563  0.26558153  1  0.01104  0  -0.003698  0.043737  0  3.900923  0
C  C84  1  0.14720120  0.88242965  0.32214907  1  0.022941  0  -0.003515  0.038728  0  3.907638  0
C  C85  1  0.99865206  0.13211580  0.64284718  1  1.615953  0  0.211129  0.600251  0  4.242382  0
C  C86  1  0.01597861  0.36312675  0.88146338  1  1.620672  0  0.210457  0.602761  0  4.254453  0
C  C87  1  0.05260961  0.85175069  0.31267621  1  -0.045621  0  -0.01198  -0.057717  0  3.92024  0
C  C88  1  0.04994830  0.73726966  0.20505623  1  0.017773  0  -0.009184  -0.051019  0  3.897414  0
C  C89  1  0.96079892  0.77165735  0.24708618  1  0.051528  0  -0.078583  -0.083193  0  3.984071  0
I  I90  1  0.61318172  0.37949826  0.52671678  1  0.146928  0  0.055617  -0.034756  0  1.536448  0
I  I91  1  0.22402868  0.80673815  0.15564812  1  0.175577  0  0.093993  0.01136  0  1.897751  0
I  I92  1  0.24042449  0.07594352  0.42526171  1  0.166571  0  0.111785  0.033049  0  1.742822  0
I  I93  1  0.47816371  0.10902296  0.49656362  1  0.15607  0  0.073743  0.001601  0  1.741676  0
I  I94  1  0.47007961  0.96060052  0.36044212  1  0.158455  0  0.069309  -0.002996  0  1.603863  0
I  I95  1  0.58372655  0.99170007  0.06199576  1  0.186669  0  0.082651  0.018842  0  1.510917  0
I  I96  1  0.58083108  0.60924446  0.78554958  1  0.187744  0  0.078974  0.007792  0  1.490967  0
I  I97  1  0.04396877  0.98830512  0.13403394  1  0.143904  0  0.072377  -0.019759  0  1.476551  0
I  I98  1  0.38709844  0.60462363  0.34477111  1  0.196944  0  0.103501  0.029972  0  1.456783  0
I  I99  1  0.38962392  0.02653858  0.67410474  1  0.170354  0  0.096226  0.016043  0  1.521057  0
I  I100  1  0.21801165  0.94077413  0.80620816  1  0.18259  0  0.101493  0.021385  0  1.725103  0
I  I101  1  0.90818781  0.38462943  0.25198300  1  0.141357  0  0.071203  -0.007313  0  1.465695  0
I  I102  1  0.21497932  0.81556460  0.95424845  1  0.175924  0  0.110073  0.046785  0  1.793157  0
I  I103  1  0.92347292  0.25327924  0.39799670  1  0.157673  0  0.07364  -0.009912  0  1.699886  0
Br  Br104  1  0.84839621  0.18289219  0.55044202  1  -0.019186  0  0.04808  -0.008196  0  1.602366  0
Br  Br105  1  0.68306412  0.50735174  0.75285187  1  -0.00545  0  0.060403  -0.014724  0  1.794813  0
Br  Br106  1  0.69280055  0.00092581  0.28200299  1  -0.017746  0  0.046105  -0.029018  0  1.702552  0
Br  Br107  1  0.40149315  0.77302024  0.91427751  1  -0.001506  0  0.036697  -0.029696  0  1.57653  0
Br  Br108  1  0.40096451  0.47640353  0.82810875  1  -0.00374  0  0.033801  -0.025688  0  1.530813  0
Br  Br109  1  0.30883038  0.60158104  0.97759195  1  0.010056  0  0.056261  0.001127  0  1.66272  0
Br  Br110  1  0.30855183  0.26275502  0.79780583  1  0.0074  0  0.054074  -0.024604  0  1.821713  0
Br  Br111  1  0.85540761  0.31092354  0.68709435  1  -0.00761  0  0.045707  -0.01626  0  1.504753  0
Br  Br112  1  0.60226078  0.53417258  0.41216937  1  -0.048879  0  0.018664  -0.064518  0  1.458526  0
Br  Br113  1  0.01276462  0.11351551  0.98900596  1  -0.041099  0  0.033804  -0.042138  0  1.515908  0
Br  Br114  1  0.11454107  0.07517663  0.78550614  1  -0.038463  0  0.047986  -0.037639  0  1.739202  0
Br  Br115  1  0.19531719  0.39155322  0.05104748  1  -0.036358  0  0.054236  -0.025915  0  1.592422  0
O  O116  1  0.00035874  0.99751513  0.50382410  1  -1.205844  0  -0.573482  -1.030456  0  2.507386  0
O  O117  1  0.95932059  0.62837793  0.06876797  1  -1.180367  0  -0.317848  -0.549704  0  2.378394  0
O  O118  1  0.96493206  0.90160201  0.33314694  1  -1.184977  0  -0.318048  -0.5541  0  2.377223  0
O  O119  1  0.06336868  0.17191731  0.44032223  1  -1.17383  0  -0.311344  -0.537759  0  2.33574  0
O  O120  1  0.03810948  0.59090522  0.86474209  1  -1.1666  0  -0.308398  -0.524619  0  2.3665  0
O  O121  1  0.03281612  0.85540934  0.58874674  1  -1.170264  0  -0.311566  -0.536936  0  2.340949  0
O  O122  1  0.04906843  0.42912024  0.17043526  1  -1.170183  0  -0.308436  -0.540079  0  2.355311  0
O  O123  1  0.99856365  0.49938224  0.00382496  1  -1.225533  0  -0.577192  -1.029474  0  2.514879  0
O  O124  1  0.91851892  0.04531148  0.32104622  1  -1.174129  0  -0.305792  -0.53487  0  2.374164  0
O  O125  1  0.93870525  0.61793320  0.88562200  1  -1.168263  0  -0.306314  -0.543872  0  2.352622  0
O  O126  1  0.93404936  0.87666357  0.61621254  1  -1.15659  0  -0.305456  -0.530038  0  2.334755  0
O  O127  1  0.90080442  0.31247042  0.04279645  1  -1.168026  0  -0.308424  -0.533393  0  2.299038  0
O  O128  1  0.06365604  0.17354827  0.62412831  1  -1.152091  0  -0.30986  -0.551235  0  2.386388  0
O  O129  1  0.07055086  0.44641491  0.89535931  1  -1.165619  0  -0.312922  -0.54641  0  2.445315  0
O  O130  1  0.09557561  0.90551540  0.45672884  1  -1.165915  0  -0.315836  -0.544296  0  2.373052  0
O  O131  1  0.08941136  0.63142442  0.19220788  1  -1.166965  0  -0.316103  -0.54958  0  2.334592  0
O  O132  1  0.23446018  0.17415555  0.60549152  1  -1.173295  0  -0.316995  -0.543628  0  2.353694  0
O  O133  1  0.22775917  0.64328954  0.06345384  1  -1.185242  0  -0.326437  -0.573869  0  2.48098  0
O  O134  1  0.76204029  0.86673274  0.32307123  1  -1.169298  0  -0.316172  -0.541818  0  2.337813  0
O  O135  1  0.76874674  0.44560091  0.90596868  1  -1.177816  0  -0.318805  -0.553304  0  2.379283  0
O  O136  1  0.22953770  0.05811411  0.65345759  1  -1.177728  0  -0.31801  -0.560908  0  2.471618  0
O  O137  1  0.22361123  0.57023257  0.16154087  1  -1.177719  0  -0.316997  -0.543964  0  2.440101  0
O  O138  1  0.76194308  0.88398863  0.44646235  1  -1.157106  0  -0.309376  -0.525347  0  2.354964  0
O  O139  1  0.92435025  0.04980189  0.60854675  1  -1.164055  0  -0.313076  -0.536094  0  2.398508  0
O  O140  1  0.76741075  0.33328312  0.84840957  1  -1.169651  0  -0.315918  -0.54175  0  2.324684  0
O  O141  1  0.95427226  0.32171428  0.90331273  1  -1.157978  0  -0.31232  -0.540719  0  2.366577  0
