# generated using pymatgen
data_Zn2H21C34(N4O3)2
_symmetry_space_group_name_H-M   'P 1'
_cell_length_a   14.92542902
_cell_length_b   14.84104971
_cell_length_c   14.87334266
_cell_angle_alpha   102.39291315
_cell_angle_beta   113.06691474
_cell_angle_gamma   112.42967506
_symmetry_Int_Tables_number   1
_chemical_formula_structural   Zn2H21C34(N4O3)2
_chemical_formula_sum   'Zn4 H42 C68 N16 O12'
_cell_volume   2532.07721817
_cell_formula_units_Z   2
loop_
 _symmetry_equiv_pos_site_id
 _symmetry_equiv_pos_as_xyz
  1  'x, y, z'
loop_
 _atom_site_type_symbol
 _atom_site_label
 _atom_site_symmetry_multiplicity
 _atom_site_fract_x
 _atom_site_fract_y
 _atom_site_fract_z
 _atom_site_occupancy
 _atom_site_pbe_bader_charge
 _atom_site_pbe_bader_spin_density
 _atom_site_pbe_cm5_charge
 _atom_site_pbe_ddec_charge
 _atom_site_pbe_ddec_spin_density
 _atom_site_pbe_ddec_sum_bond_order
 _atom_site_pbe_magmom
Zn  Zn0  1  0.11789384  0.97542131  0.13283636  1  1.195245  0  0.743545  0.609609  0  2.465456  0
Zn  Zn1  1  0.83845652  0.85093673  0.98170554  1  1.197261  0  0.749631  0.63126  0  2.438934  0
Zn  Zn2  1  0.86011921  0.99835307  0.84527437  1  1.209262  0  0.746986  0.637535  0  2.428816  0
Zn  Zn3  1  0.14047341  0.14072324  0.01174684  1  1.218682  0  0.734931  0.622803  0  2.495132  0
H  H4  1  0.58459361  0.11720191  0.93641058  1  0.082278  0  0.118928  0.122332  0  0.951287  0
H  H5  1  0.78462809  0.45557652  0.97562388  1  0.057727  0  0.096244  0.097651  0  1.011679  0
H  H6  1  0.13889822  0.27741185  0.47824698  1  0.056674  0  0.093894  0.091931  0  1.029501  0
H  H7  1  0.84588794  0.96160538  0.34147638  1  0.093699  0  0.097604  0.101468  0  1.03742  0
H  H8  1  0.11735296  0.64325401  0.26672699  1  0.065446  0  0.097933  0.101995  0  1.014801  0
H  H9  1  0.86748676  0.99230655  0.51821733  1  0.043615  0  0.093404  0.088501  0  1.028707  0
H  H10  1  0.12103440  0.47762802  0.25859044  1  0.058965  0  0.101637  0.105504  0  0.995133  0
H  H11  1  0.35726399  0.10464124  0.81884381  1  0.064412  0  0.109902  0.110964  0  0.958416  0
H  H12  1  0.64779160  0.40328572  0.37438589  1  0.107777  0  0.112103  0.120847  0  0.980003  0
H  H13  1  0.80439541  0.57605961  0.53498829  1  0.07572  0  0.114332  0.119629  0  0.970764  0
H  H14  1  0.83864913  0.07246004  0.65264321  1  0.097751  0  0.113501  0.09997  0  1.015359  0
H  H15  1  0.15767017  0.34446352  0.16608433  1  0.133939  0  0.117443  0.109636  0  0.999658  0
H  H16  1  0.85025877  0.66271204  0.85653668  1  0.124925  0  0.121427  0.119278  0  0.999669  0
H  H17  1  0.37415939  0.14970934  0.37896228  1  0.090239  0  0.116453  0.106297  0  1.018488  0
H  H18  1  0.16707735  0.01985111  0.82934225  1  0.093541  0  0.115778  0.106626  0  1.010798  0
H  H19  1  0.59864492  0.96714961  0.74877275  1  0.104669  0  0.116263  0.114728  0  1.020239  0
H  H20  1  0.19628266  0.83257855  0.01488373  1  0.102327  0  0.113247  0.100379  0  1.025858  0
H  H21  1  0.57698030  0.76614960  0.92070430  1  0.093727  0  0.111684  0.101646  0  1.051146  0
H  H22  1  0.20491072  0.22520376  0.83614457  1  0.109852  0  0.10964  0.097506  0  1.019147  0
H  H23  1  0.79113560  0.13021708  0.97237253  1  0.036223  0  0.109357  0.094141  0  1.032025  0
H  H24  1  0.77444807  0.61137970  0.00119789  1  0.118005  0  0.120961  0.118179  0  0.995159  0
H  H25  1  0.16622303  0.16497935  0.33129861  1  0.119652  0  0.109347  0.10276  0  1.046883  0
H  H26  1  0.21326366  0.72110031  0.84475382  1  0.066084  0  0.099649  0.101369  0  0.996915  0
H  H27  1  0.16107247  0.30854990  0.65896295  1  0.01838  0  0.09305  0.093207  0  1.008841  0
H  H28  1  0.35450557  0.70141132  0.81201301  1  0.044913  0  0.097564  0.09766  0  1.000053  0
H  H29  1  0.19205209  0.93226691  0.35015904  1  0.064526  0  0.104386  0.108057  0  0.992447  0
H  H30  1  0.40292686  0.02231348  0.46627451  1  0.06531  0  0.099981  0.099562  0  1.004731  0
H  H31  1  0.50733294  0.95671964  0.40233428  1  0.060038  0  0.100475  0.094402  0  0.995535  0
H  H32  1  0.40015284  0.79617188  0.22693068  1  0.065847  0  0.099902  0.094271  0  1.008984  0
H  H33  1  0.18869060  0.70256033  0.11421397  1  0.077308  0  0.104528  0.105651  0  0.991434  0
H  H34  1  0.76236790  0.79408565  0.14251505  1  0.050097  0  0.101745  0.10532  0  1.009845  0
H  H35  1  0.55990366  0.69256107  0.09013174  1  0.058492  0  0.099971  0.096733  0  0.992804  0
H  H36  1  0.78783468  0.29089824  0.96798901  1  0.033755  0  0.088256  0.084786  0  1.045765  0
H  H37  1  0.44939012  0.78555484  0.07368962  1  0.062602  0  0.097053  0.090354  0  1.010888  0
H  H38  1  0.54306680  0.98010196  0.11178165  1  0.066506  0  0.106067  0.110842  0  0.993088  0
H  H39  1  0.74658458  0.08145785  0.16750736  1  0.07726  0  0.107185  0.111354  0  0.985216  0
H  H40  1  0.57481121  0.23169013  0.75495259  1  0.620928  0  0.350288  0.386059  0  0.843706  0
H  H41  1  0.49186189  0.30310043  0.07111080  1  0.634803  0  0.325199  0.377375  0  0.894801  0
H  H42  1  0.53581926  0.65884446  0.72618706  1  0.60062  0  0.319693  0.356741  0  0.916921  0
H  H43  1  0.32197719  0.31903638  0.56845809  1  0.614298  0  0.334086  0.372292  0  0.882361  0
H  H44  1  0.69234315  0.87220084  0.53846355  1  0.616858  0  0.344969  0.380075  0  0.857277  0
H  H45  1  0.33030535  0.37781997  0.05549175  1  0.616358  0  0.352383  0.391225  0  0.840728  0
C  C46  1  0.05335857  0.76475486  0.15491742  1  0.435857  0  0.089134  0.097505  0  4.01079  0
C  C47  1  0.43251781  0.28293464  0.32863472  1  0.087608  0  -0.016944  -0.0296  0  4.025121  0
C  C48  1  0.98504103  0.08495327  0.29209345  1  -0.014794  0  -0.035386  -0.091756  0  4.035884  0
C  C49  1  0.17700903  0.81240337  0.22420391  1  -0.032735  0  -0.008758  0.051452  0  4.037927  0
C  C50  1  0.23841049  0.90338077  0.32324579  1  -0.052917  0  -0.092167  -0.140531  0  3.97988  0
C  C51  1  0.35663801  0.95425422  0.38774608  1  -0.053774  0  -0.090629  -0.073818  0  4.027655  0
C  C52  1  0.41486697  0.91611193  0.35279048  1  -0.076339  0  -0.09203  -0.084266  0  4.019021  0
C  C53  1  0.35453249  0.82572698  0.25431885  1  0.042774  0  -0.091794  -0.080379  0  4.033178  0
C  C54  1  0.23625753  0.77355345  0.19072592  1  -0.122311  0  -0.088845  -0.13216  0  3.991034  0
C  C55  1  0.76703106  0.94402161  0.15714945  1  -0.010067  0  -0.005673  0.054953  0  4.026939  0
C  C56  1  0.71344300  0.83405980  0.13468871  1  0.014692  0  -0.094764  -0.145853  0  3.992147  0
C  C57  1  0.59992753  0.77752433  0.10588242  1  -0.107805  0  -0.097079  -0.089341  0  4.050597  0
C  C58  1  0.79122515  0.68307999  0.70246400  1  0.060198  0  -0.024746  -0.053153  0  4.019391  0
C  C59  1  0.53851835  0.82986735  0.09770459  1  -0.069911  0  -0.096055  -0.096963  0  4.038227  0
C  C60  1  0.59093017  0.93911021  0.11923579  1  0.023001  0  -0.08498  -0.068253  0  3.993913  0
C  C61  1  0.70490233  0.99600894  0.14965286  1  -0.083424  0  -0.082564  -0.117861  0  3.947006  0
C  C62  1  0.51546183  0.10457817  0.77523746  1  1.528056  0  0.232364  0.592865  0  4.103059  0
C  C63  1  0.45627736  0.16183987  0.99233080  1  1.520944  0  0.230286  0.601586  0  4.085696  0
C  C64  1  0.58859218  0.56488899  0.69325849  1  1.517034  0  0.231197  0.590325  0  4.126498  0
C  C65  1  0.20439449  0.90876248  0.89977606  1  0.034628  0  -0.038362  -0.040806  0  4.090933  0
C  C66  1  0.39896353  0.37037250  0.49822986  1  1.517279  0  0.230538  0.577008  0  4.129639  0
C  C67  1  0.75043289  0.79110995  0.59442785  1  1.463293  0  0.230038  0.565253  0  4.141859  0
C  C68  1  0.40325438  0.35086924  0.17621761  1  1.436046  0  0.235509  0.560366  0  4.139999  0
C  C69  1  0.53977292  0.85976528  0.82494706  1  0.027887  0  -0.035918  -0.034839  0  4.092734  0
C  C70  1  0.35348572  0.96412814  0.85323395  1  -0.04078  0  -0.014103  0.000427  0  3.91323  0
C  C71  1  0.43333869  0.95296758  0.83403213  1  0.003831  0  -0.012136  0.007997  0  3.904982  0
C  C72  1  0.88788325  0.00332843  0.19063111  1  0.452782  0  0.094199  0.107628  0  3.985608  0
C  C73  1  0.27299830  0.88502231  0.86209742  1  0.021418  0  -0.005116  0.05357  0  4.047967  0
C  C74  1  0.44145790  0.86086488  0.82186501  1  0.008182  0  -0.006803  0.049117  0  4.046573  0
C  C75  1  0.27534235  0.78862231  0.84264262  1  -0.005775  0  -0.091911  -0.134339  0  3.98661  0
C  C76  1  0.35582948  0.77717620  0.82335447  1  -0.061958  0  -0.091623  -0.130471  0  3.995734  0
C  C77  1  0.50148681  0.07112789  0.85992213  1  -0.001968  0  -0.063243  -0.163347  0  3.810228  0
C  C78  1  0.40644642  0.08331083  0.87804176  1  0.003802  0  -0.065692  -0.161747  0  3.792001  0
C  C79  1  0.09220449  0.23187114  0.58920034  1  -0.005771  0  -0.104281  -0.147014  0  4.027193  0
C  C80  1  0.86007054  0.36771506  0.03504481  1  -0.027697  0  -0.102536  -0.136747  0  4.018465  0
C  C81  1  0.08018008  0.21414693  0.48774002  1  -0.03689  0  -0.103358  -0.150918  0  4.005796  0
C  C82  1  0.85847932  0.46131026  0.03898271  1  -0.047315  0  -0.100402  -0.136452  0  4.010551  0
C  C83  1  0.99207325  0.11624239  0.39608093  1  -0.013612  0  -0.009753  0.099015  0  4.032121  0
C  C84  1  0.95345749  0.56325439  0.11871466  1  -0.058378  0  -0.018465  0.07956  0  4.064296  0
C  C85  1  0.92745916  0.10649941  0.71222067  1  0.391446  0  0.001018  -0.05542  0  4.025448  0
C  C86  1  0.07013968  0.27795587  0.11281455  1  0.397794  0  0.012557  -0.033309  0  3.938202  0
C  C87  1  0.91377787  0.03906901  0.40959360  1  -0.054059  0  -0.097697  -0.130244  0  3.998677  0
C  C88  1  0.02319377  0.15725226  0.70456739  1  -0.006778  0  -0.042833  -0.049265  0  4.103234  0
C  C89  1  0.04511091  0.56609292  0.20033976  1  -0.005111  0  -0.098362  -0.134186  0  4.003288  0
C  C90  1  0.92560047  0.05678875  0.50968833  1  -0.089119  0  -0.098198  -0.128682  0  4.013553  0
C  C91  1  0.04693089  0.47223977  0.19595444  1  -0.0764  0  -0.097379  -0.137704  0  4.003647  0
C  C92  1  0.01585387  0.15259749  0.60245253  1  -0.013406  0  -0.016565  0.0819  0  4.053899  0
C  C93  1  0.95681673  0.37140889  0.10992781  1  0.006069  0  -0.013713  0.081607  0  4.056727  0
C  C94  1  0.96829839  0.27691508  0.08703627  1  -0.005641  0  -0.037687  -0.044591  0  4.077855  0
C  C95  1  0.63610358  0.43469247  0.43950869  1  -0.005436  0  -0.076864  -0.108401  0  3.962959  0
C  C96  1  0.72421610  0.53092417  0.53014450  1  0.058702  0  -0.071672  -0.091605  0  3.967025  0
C  C97  1  0.70978022  0.57343841  0.61349481  1  0.041828  0  0.004557  0.072025  0  3.990758  0
C  C98  1  0.52967788  0.37906902  0.42802245  1  -0.040547  0  0.004718  0.075796  0  4.000539  0
C  C99  1  0.60486529  0.51498052  0.60561276  1  -0.013016  0  -0.00445  -0.083093  0  3.891598  0
C  C100  1  0.51457400  0.41980144  0.51265277  1  -0.014345  0  -0.01067  -0.102426  0  3.925573  0
C  C101  1  0.84310434  0.71247373  0.81352866  1  0.330797  0  0.009778  -0.043164  0  3.95201  0
C  C102  1  0.36256083  0.18173950  0.31889194  1  0.426217  0  0.012549  -0.059001  0  3.970392  0
C  C103  1  0.16703942  0.98087192  0.88334270  1  0.398218  0  0.003759  -0.049468  0  3.963915  0
C  C104  1  0.61181385  0.92106351  0.79505429  1  0.412044  0  0.00923  -0.048332  0  3.961269  0
C  C105  1  0.80289576  0.77978567  0.69424110  1  0.489066  0  0.083486  -0.003043  0  3.982838  0
C  C106  1  0.37447092  0.27667668  0.22417368  1  0.445241  0  0.079825  -0.015305  0  4.006014  0
C  C107  1  0.17953266  0.88345586  0.97632362  1  0.386886  0  0.011465  -0.038243  0  3.944476  0
C  C108  1  0.59759711  0.81401893  0.87818743  1  0.364464  0  8.8e-05  -0.082209  0  4.019462  0
C  C109  1  0.11427245  0.18625827  0.80611223  1  0.366935  0  -0.00279  -0.067952  0  4.005391  0
C  C110  1  0.88315804  0.16926167  0.01322786  1  0.421554  0  0.000404  -0.052807  0  3.971307  0
C  C111  1  0.86502065  0.67097790  0.04973422  1  0.373102  0  0.008956  -0.054571  0  3.991455  0
C  C112  1  0.07593869  0.10724324  0.27520401  1  0.375409  0  0.006053  -0.038859  0  3.963247  0
C  C113  1  0.95749708  0.66090891  0.11061380  1  0.032267  0  -0.034117  -0.086138  0  4.06379  0
N  N114  1  0.01828739  0.82966151  0.12200918  1  -0.767722  0  -0.270159  -0.222013  0  3.5337  0
N  N115  1  0.27055392  0.12084547  0.21724048  1  -0.753026  0  -0.243208  -0.12975  0  3.521512  0
N  N116  1  0.88098405  0.81788799  0.86727585  1  -0.739197  0  -0.266418  -0.178745  0  3.548968  0
N  N117  1  0.12480191  0.99765264  0.94623139  1  -0.796249  0  -0.283683  -0.19695  0  3.62129  0
N  N118  1  0.70510185  0.91331090  0.82905992  1  -0.785828  0  -0.267179  -0.167773  0  3.544015  0
N  N119  1  0.85700630  0.85908995  0.79440848  1  -0.74037  0  -0.258845  -0.177726  0  3.560192  0
N  N120  1  0.27637375  0.17954844  0.15980230  1  -0.739284  0  -0.24463  -0.171597  0  3.486637  0
N  N121  1  0.92153111  0.97982577  0.12134316  1  -0.78599  0  -0.277278  -0.220577  0  3.595393  0
N  N122  1  0.13337736  0.93831235  0.00388503  1  -0.776937  0  -0.276325  -0.169001  0  3.620125  0
N  N123  1  0.69702519  0.84741100  0.88124824  1  -0.793042  0  -0.273405  -0.18136  0  3.557839  0
N  N124  1  0.07454455  0.15303935  0.86756257  1  -0.780525  0  -0.271847  -0.180193  0  3.535525  0
N  N125  1  0.93117947  0.11212155  0.99492123  1  -0.772249  0  -0.284649  -0.201657  0  3.6077  0
N  N126  1  0.90229950  0.77180699  0.05698449  1  -0.796542  0  -0.27344  -0.172049  0  3.586609  0
N  N127  1  0.03661054  0.04269309  0.17304325  1  -0.782287  0  -0.282924  -0.186567  0  3.625824  0
N  N128  1  0.95810001  0.10298925  0.80849040  1  -0.792422  0  -0.277372  -0.175237  0  3.561609  0
N  N129  1  0.04622939  0.17961398  0.05607098  1  -0.797958  0  -0.283167  -0.17225  0  3.637906  0
O  O130  1  0.48366010  0.04510835  0.68457252  1  -1.145083  0  -0.287192  -0.489759  0  2.089123  0
O  O131  1  0.53418441  0.61800953  0.66310451  1  -1.099725  0  -0.330717  -0.462779  0  2.227631  0
O  O132  1  0.31304648  0.35411163  0.42230950  1  -1.138549  0  -0.275854  -0.470154  0  2.109306  0
O  O133  1  0.39956741  0.34673792  0.58225684  1  -1.115294  0  -0.338882  -0.484324  0  2.222027  0
O  O134  1  0.62235565  0.56166874  0.78105208  1  -1.139157  0  -0.294916  -0.499648  0  2.101499  0
O  O135  1  0.72261336  0.73271635  0.50494782  1  -1.122933  0  -0.286941  -0.471243  0  2.064265  0
O  O136  1  0.72955457  0.87400855  0.61021290  1  -1.123772  0  -0.336759  -0.498437  0  2.278518  0
O  O137  1  0.49843463  0.41795620  0.20081591  1  -1.131364  0  -0.282456  -0.47829  0  2.084156  0
O  O138  1  0.56986460  0.21412332  0.81336114  1  -1.137082  0  -0.332845  -0.479562  0  2.217018  0
O  O139  1  0.30612935  0.33244539  0.09014963  1  -1.113085  0  -0.325977  -0.488423  0  2.314372  0
O  O140  1  0.49941082  0.14901530  0.07328737  1  -1.135173  0  -0.289119  -0.477732  0  2.056471  0
O  O141  1  0.45133209  0.25215113  0.99469687  1  -1.135026  0  -0.34901  -0.508036  0  2.21149  0
