# generated using pymatgen
data_AlH21C45(BrO)6
_symmetry_space_group_name_H-M   'P 1'
_cell_length_a   3.98642030
_cell_length_b   23.56281972
_cell_length_c   23.51674537
_cell_angle_alpha   60.07790271
_cell_angle_beta   87.80531608
_cell_angle_gamma   86.94403378
_symmetry_Int_Tables_number   1
_chemical_formula_structural   AlH21C45(BrO)6
_chemical_formula_sum   'Al1 H21 C45 Br6 O6'
_cell_volume   1911.61682133
_cell_formula_units_Z   1
loop_
 _symmetry_equiv_pos_site_id
 _symmetry_equiv_pos_as_xyz
  1  'x, y, z'
loop_
 _atom_site_type_symbol
 _atom_site_label
 _atom_site_symmetry_multiplicity
 _atom_site_fract_x
 _atom_site_fract_y
 _atom_site_fract_z
 _atom_site_occupancy
 _atom_site_pbe_bader_charge
 _atom_site_pbe_bader_spin_density
 _atom_site_pbe_cm5_charge
 _atom_site_pbe_ddec_charge
 _atom_site_pbe_ddec_spin_density
 _atom_site_pbe_ddec_sum_bond_order
 _atom_site_pbe_magmom
Al  Al0  1  0.03426865  0.49990868  0.49965853  1  2.504824  0  0.422618  1.603423  0  2.562365  0
H  H1  1  0.39044644  0.32617927  0.67420929  1  0.087528  0  0.11139  0.119175  0  0.969762  0
H  H2  1  0.37353187  0.25824952  0.79508343  1  0.077394  0  0.083172  0.087666  0  1.073592  0
H  H3  1  0.77180829  0.15476415  0.01857167  1  0.08777  0  0.099666  0.110713  0  1.014593  0
H  H4  1  0.61239420  0.80906627  0.26167167  1  0.041347  0  0.10079  0.110534  0  1.01258  0
H  H5  1  0.25198529  0.89231961  0.23556364  1  0.068909  0  0.103967  0.107044  0  0.997679  0
H  H6  1  0.23971009  0.01175252  0.17042837  1  0.098556  0  0.101253  0.102699  0  1.003352  0
H  H7  1  0.48821106  0.10236707  0.10927315  1  0.020471  0  0.099476  0.098955  0  1.028024  0
H  H8  1  0.43096991  0.67429277  0.50184445  1  0.113112  0  0.110441  0.11708  0  0.973124  0
H  H9  1  0.41566450  0.79467405  0.45012615  1  0.080919  0  0.082702  0.08809  0  1.07419  0
H  H10  1  0.76413692  0.01714797  0.32457805  1  0.082797  0  0.099615  0.111044  0  1.016932  0
H  H11  1  0.73185309  0.26377144  0.42447686  1  0.076637  0  0.100431  0.110908  0  1.012148  0
H  H12  1  0.30864456  0.23618509  0.37686101  1  0.070228  0  0.103365  0.106215  0  0.998278  0
H  H13  1  0.27739852  0.17135221  0.32207109  1  0.052618  0  0.101418  0.103414  0  1.00298  0
H  H14  1  0.52402676  0.10928499  0.28818934  1  0.073415  0  0.099553  0.099398  0  1.029196  0
H  H15  1  0.41130756  0.50017811  0.32495290  1  0.120493  0  0.110772  0.118609  0  0.972198  0
H  H16  1  0.40320955  0.44658670  0.25750349  1  0.111563  0  0.085562  0.089788  0  1.060934  0
H  H17  1  0.79761930  0.32132275  0.15422979  1  0.080463  0  0.099651  0.111153  0  1.015255  0
H  H18  1  0.64292424  0.42507867  0.81017013  1  0.089051  0  0.10067  0.111111  0  1.01134  0
H  H19  1  0.23055311  0.37513078  0.89134055  1  0.052963  0  0.103557  0.10702  0  0.996341  0
H  H20  1  0.21692508  0.32014207  0.01164297  1  0.068829  0  0.101254  0.103003  0  1.002708  0
H  H21  1  0.51448308  0.28776810  0.10219633  1  0.024283  0  0.099263  0.099081  0  1.026734  0
C  C22  1  0.52575301  0.45212653  0.60025242  1  1.575222  0  0.278452  0.672743  0  4.058933  0
C  C23  1  0.56024075  0.44756154  0.45122635  1  1.577837  0  0.279083  0.67342  0  4.058535  0
C  C24  1  0.51589633  0.60030974  0.44677886  1  1.609247  0  0.278791  0.672331  0  4.056574  0
C  C25  1  0.44470203  0.34753378  0.70452435  1  -0.034155  0  -0.078884  -0.069671  0  3.949165  0
C  C26  1  0.43911200  0.30920549  0.77247547  1  -0.000982  0  -0.097609  -0.131988  0  3.999187  0
C  C27  1  0.64546461  0.23387748  0.92324782  1  -0.059509  0  -0.011454  0.075702  0  3.928982  0
C  C28  1  0.64517876  0.20277752  0.99146416  1  -0.054935  0  -0.099243  -0.185011  0  3.985767  0
C  C29  1  0.55229493  0.71255905  0.34346958  1  -0.173821  0  -0.010105  0.104591  0  3.945243  0
C  C30  1  0.56199992  0.78044374  0.31422990  1  0.045794  0  -0.096948  -0.185111  0  3.961958  0
C  C31  1  0.37203693  0.91974477  0.25469504  1  -0.113782  0  -0.087848  -0.111097  0  3.987204  0
C  C32  1  0.36549069  0.98759610  0.21759817  1  0.020868  0  -0.093194  -0.131125  0  3.997692  0
C  C33  1  0.51560218  0.41408724  0.67365753  1  0.092554  0  -0.010681  -0.072641  0  3.942164  0
C  C34  1  0.51068255  0.33610578  0.81194261  1  0.089927  0  -0.009607  0.088323  0  3.992967  0
C  C35  1  0.50549629  0.29770919  0.88453385  1  3.2e-05  0  -0.009912  0.019084  0  3.967822  0
C  C36  1  0.49666260  0.23297126  0.02511420  1  -0.020004  0  -0.006959  0.081972  0  4.001988  0
C  C37  1  0.50045473  0.19892415  0.09755344  1  0.031298  0  -0.006159  0.082094  0  4.019015  0
C  C38  1  0.49723922  0.13036954  0.13458215  1  0.062875  0  -0.088407  -0.176056  0  3.924657  0
C  C39  1  0.46490979  0.70453451  0.44886405  1  0.018333  0  -0.077882  -0.065334  0  3.953621  0
C  C40  1  0.46185244  0.77227932  0.41978379  1  0.001402  0  -0.098869  -0.135772  0  4.003657  0
C  C41  1  0.64412036  0.92264198  0.34170932  1  -0.153155  0  -0.012658  0.074266  0  3.928173  0
C  C42  1  0.64402751  0.99071608  0.30445387  1  0.073791  0  -0.099166  -0.186008  0  3.986063  0
C  C43  1  0.65207341  0.34577567  0.44014616  1  -0.127055  0  -0.011429  0.100381  0  3.959305  0
C  C44  1  0.65689578  0.31553113  0.40214706  1  -0.068655  0  -0.097446  -0.188876  0  3.97272  0
C  C45  1  0.42119766  0.25443554  0.32811015  1  -0.043932  0  -0.087306  -0.109871  0  3.985915  0
C  C46  1  0.40540260  0.21753609  0.29726103  1  -0.039719  0  -0.093404  -0.132736  0  3.998697  0
C  C47  1  0.50795837  0.67346785  0.41135556  1  0.075327  0  -0.010397  -0.072763  0  3.937878  0
C  C48  1  0.51486126  0.81167738  0.35181613  1  -0.087968  0  -0.007915  0.091574  0  3.982372  0
C  C49  1  0.51372628  0.88415537  0.31779887  1  0.042142  0  -0.009988  0.015559  0  3.968656  0
C  C50  1  0.50500395  0.02488010  0.24166327  1  -0.011975  0  -0.007042  0.080987  0  3.997651  0
C  C51  1  0.50569454  0.09720274  0.20330879  1  -0.125781  0  -0.006577  0.082811  0  4.015911  0
C  C52  1  0.51726714  0.13426261  0.23480729  1  -0.051743  0  -0.087526  -0.174838  0  3.924735  0
C  C53  1  0.48189578  0.44824959  0.34634365  1  -0.086211  0  -0.078096  -0.068851  0  3.94973  0
C  C54  1  0.48085356  0.41823017  0.30833450  1  -0.007506  0  -0.096018  -0.129929  0  3.993259  0
C  C55  1  0.69092014  0.33934503  0.23373118  1  -0.096628  0  -0.013174  0.074123  0  3.935977  0
C  C56  1  0.68249984  0.30221895  0.20276919  1  -0.016575  0  -0.099792  -0.187124  0  3.987555  0
C  C57  1  0.58023428  0.44128310  0.71288273  1  -0.13668  0  -0.011412  0.099274  0  3.957973  0
C  C58  1  0.58109431  0.40291189  0.78103983  1  -0.036347  0  -0.097775  -0.187549  0  3.967999  0
C  C59  1  0.35443157  0.32687973  0.91948413  1  -0.148391  0  -0.087112  -0.111678  0  3.987042  0
C  C60  1  0.34772357  0.29591133  0.98752143  1  0.033331  0  -0.093414  -0.132817  0  4.000709  0
C  C61  1  0.56664327  0.41252381  0.41278983  1  0.087129  0  -0.011362  -0.074569  0  3.943717  0
C  C62  1  0.57078107  0.35137357  0.33556012  1  0.069018  0  -0.009208  0.088184  0  3.995658  0
C  C63  1  0.56409801  0.31651819  0.29791601  1  0.022658  0  -0.010522  0.017826  0  3.97427  0
C  C64  1  0.53738903  0.24077243  0.23355173  1  -0.003235  0  -0.006631  0.081838  0  3.997527  0
C  C65  1  0.52176334  0.20279937  0.19928079  1  0.018072  0  -0.006889  0.082404  0  4.016803  0
C  C66  1  0.51192265  0.23445789  0.13059405  1  -0.010603  0  -0.087725  -0.175613  0  3.92499  0
Br  Br67  1  0.78044864  0.29500657  0.52952007  1  -0.0603  0  0.020365  -0.067724  0  1.462193  0
Br  Br68  1  0.68719094  0.53094259  0.67393658  1  -0.059021  0  0.020126  -0.068781  0  1.46483  0
Br  Br69  1  0.62440105  0.67416166  0.28926794  1  -0.060899  0  0.016133  -0.074497  0  1.45356  0
Br  Br70  1  0.89350284  0.42224756  0.18346088  1  -0.082947  0  0.033465  -0.070978  0  1.534192  0
Br  Br71  1  0.86015424  0.18420414  0.88708770  1  -0.076749  0  0.034955  -0.070534  0  1.537024  0
Br  Br72  1  0.84440647  0.88704495  0.42601770  1  -0.077265  0  0.038859  -0.067025  0  1.552912  0
O  O73  1  0.28998874  0.57156084  0.43505927  1  -1.249211  0  -0.233282  -0.593738  0  2.383336  0
O  O74  1  0.28493445  0.49303161  0.57087802  1  -1.254969  0  -0.233803  -0.597089  0  2.39665  0
O  O75  1  0.32181977  0.43610851  0.49260296  1  -1.252489  0  -0.235017  -0.600905  0  2.397935  0
O  O76  1  0.74887241  0.57197270  0.48858661  1  -1.255246  0  -0.233075  -0.594238  0  2.376253  0
O  O77  1  0.78950591  0.48809211  0.43791420  1  -1.241613  0  -0.230376  -0.585258  0  2.359518  0
O  O78  1  0.77328363  0.43858766  0.57265870  1  -1.250971  0  -0.231524  -0.587819  0  2.364498  0
