# generated using pymatgen
data_Ag2H15C15N5O9
_symmetry_space_group_name_H-M   'P 1'
_cell_length_a   8.20275776
_cell_length_b   11.20823406
_cell_length_c   12.57139147
_cell_angle_alpha   117.06541039
_cell_angle_beta   97.00442684
_cell_angle_gamma   98.47256203
_symmetry_Int_Tables_number   1
_chemical_formula_structural   Ag2H15C15N5O9
_chemical_formula_sum   'Ag4 H30 C30 N10 O18'
_cell_volume   994.27801402
_cell_formula_units_Z   2
loop_
 _symmetry_equiv_pos_site_id
 _symmetry_equiv_pos_as_xyz
  1  'x, y, z'
loop_
 _atom_site_type_symbol
 _atom_site_label
 _atom_site_symmetry_multiplicity
 _atom_site_fract_x
 _atom_site_fract_y
 _atom_site_fract_z
 _atom_site_occupancy
 _atom_site_hle17_bader_spin_density
 _atom_site_hle17_ddec_charge
 _atom_site_hle17_ddec_spin_density
 _atom_site_hle17_ddec_sum_bond_order
 _atom_site_hle17_magmom
 _atom_site_hse06_10hf_bader_spin_density
 _atom_site_hse06_10hf_ddec_charge
 _atom_site_hse06_10hf_ddec_spin_density
 _atom_site_hse06_10hf_ddec_sum_bond_order
 _atom_site_hse06_10hf_magmom
 _atom_site_hse06_bader_spin_density
 _atom_site_hse06_ddec_charge
 _atom_site_hse06_ddec_spin_density
 _atom_site_hse06_ddec_sum_bond_order
 _atom_site_hse06_magmom
 _atom_site_pbe_bader_spin_density
 _atom_site_pbe_cm5_charge
 _atom_site_pbe_ddec_charge
 _atom_site_pbe_ddec_spin_density
 _atom_site_pbe_ddec_sum_bond_order
 _atom_site_pbe_magmom
Ag  Ag0  1  0.92995858  0.04348887  0.32520393  1  0  0.540308  0  1.466919  0  0  0.409993  0  1.902938  0  0  0.435146  0  1.857986  0  0  0.490929  0.39306  0  1.93366  0
Ag  Ag1  1  0.07004092  0.95651201  0.67479689  1  0  0.540281  0  1.466941  0  0  0.409994  0  1.90296  0  0  0.435147  0  1.85801  0  0  0.490914  0.393064  0  1.933678  0
Ag  Ag2  1  0.91462648  0.67135802  0.14317779  1  0  0.563428  0  1.326117  0  0  0.430944  0  1.761397  0  0  0.466709  0  1.708373  0  0  0.44985  0.405482  0  1.798635  0
Ag  Ag3  1  0.08537149  0.32864183  0.85682090  1  0  0.563435  0  1.326017  0  0  0.430965  0  1.761276  0  0  0.466733  0  1.708255  0  0  0.449842  0.405508  0  1.798517  0
H  H4  1  0.07200381  0.89127946  0.16209531  1  0  0.064403  0  1.046834  0  0  0.062037  0  1.148629  0  0  0.067968  0  1.139132  0  0  0.085352  0.05769  0  1.155338  0
H  H5  1  0.92799808  0.10872554  0.83790737  1  0  0.064404  0  1.046836  0  0  0.06202  0  1.148648  0  0  0.067959  0  1.139148  0  0  0.085346  0.057673  0  1.155359  0
H  H6  1  0.13859731  0.85012445  0.81378814  1  0  0.106073  0  0.964568  0  0  0.1076  0  1.045655  0  0  0.113598  0  1.037253  0  0  0.106439  0.103194  0  1.051663  0
H  H7  1  0.86140587  0.14987643  0.18621217  1  0  0.106055  0  0.96461  0  0  0.107602  0  1.04568  0  0  0.113602  0  1.037275  0  0  0.10643  0.103195  0  1.051692  0
H  H8  1  0.43888107  0.19874468  0.14781967  1  0  0.131365  0  0.942894  0  0  0.133721  0  1.015326  0  0  0.138229  0  1.010928  0  0  0.117459  0.130418  0  1.01857  0
H  H9  1  0.56111836  0.80126032  0.85218042  1  0  0.131425  0  0.942804  0  0  0.133786  0  1.015234  0  0  0.138294  0  1.010838  0  0  0.117489  0.130484  0  1.018477  0
H  H10  1  0.48084851  0.39181821  0.51567735  1  0  0.066336  0  0.92272  0  0  0.078534  0  0.984344  0  0  0.078969  0  0.983685  0  0  0.107151  0.078143  0  0.984872  0
H  H11  1  0.51915105  0.60817856  0.48432420  1  0  0.066352  0  0.922655  0  0  0.078541  0  0.984279  0  0  0.07897  0  0.983619  0  0  0.107166  0.07815  0  0.984808  0
H  H12  1  0.56943125  0.26288705  0.53487009  1  0  0.084841  0  0.940988  0  0  0.09313  0  1.008108  0  0  0.094455  0  1.006605  0  0  0.108947  0.092062  0  1.009286  0
H  H13  1  0.43056830  0.73710972  0.46513146  1  0  0.084791  0  0.941032  0  0  0.093096  0  1.008109  0  0  0.094413  0  1.006609  0  0  0.108931  0.092028  0  1.009288  0
H  H14  1  0.29696377  0.15533609  0.54431434  1  0  0.085438  0  0.938126  0  0  0.101048  0  0.999663  0  0  0.101074  0  1.000079  0  0  0.108531  0.100869  0  0.999536  0
H  H15  1  0.70303392  0.84466275  0.45568710  1  0  0.085461  0  0.938095  0  0  0.101049  0  0.999647  0  0  0.101076  0  1.000063  0  0  0.108535  0.10087  0  0.999519  0
H  H16  1  0.22260682  0.29916603  0.55249536  1  0  0.091  0  0.922042  0  0  0.106042  0  0.979918  0  0  0.10607  0  0.980416  0  0  0.11044  0.105872  0  0.979671  0
H  H17  1  0.77739303  0.70083177  0.44750504  1  0  0.091016  0  0.921991  0  0  0.106062  0  0.97986  0  0  0.106089  0  0.98036  0  0  0.110436  0.105888  0  0.979612  0
H  H18  1  0.53225396  0.34910151  0.92417184  1  0  0.077098  0  0.927954  0  0  0.088158  0  0.993532  0  0  0.088775  0  0.992725  0  0  0.107643  0.087576  0  0.994303  0
H  H19  1  0.46774647  0.65089835  0.07582864  1  0  0.077083  0  0.927889  0  0  0.088147  0  0.993479  0  0  0.088764  0  0.992672  0  0  0.107642  0.087563  0  0.994251  0
H  H20  1  0.69295961  0.25285735  0.88570071  1  0  0.073353  0  0.951868  0  0  0.084415  0  1.021758  0  0  0.084539  0  1.021305  0  0  0.104454  0.084234  0  1.022124  0
H  H21  1  0.30703989  0.74714355  0.11430410  1  0  0.073316  0  0.951955  0  0  0.084378  0  1.021857  0  0  0.084503  0  1.021406  0  0  0.104455  0.084195  0  1.022226  0
H  H22  1  0.50487828  0.07536769  0.69494667  1  0  0.090065  0  0.915405  0  0  0.103113  0  0.976757  0  0  0.104023  0  0.976211  0  0  0.105982  0.102292  0  0.97733  0
H  H23  1  0.49512584  0.92463217  0.30505728  1  0  0.090043  0  0.915405  0  0  0.103104  0  0.976778  0  0  0.103996  0  0.976253  0  0  0.105962  0.102283  0  0.977347  0
H  H24  1  0.37910650  0.19817026  0.72044781  1  0  0.089483  0  0.952636  0  0  0.106669  0  1.012573  0  0  0.107405  0  1.011909  0  0  0.109968  0.105948  0  1.013342  0
H  H25  1  0.62089791  0.80183062  0.27955180  1  0  0.089443  0  0.952658  0  0  0.106631  0  1.012616  0  0  0.107367  0  1.011951  0  0  0.109948  0.105906  0  1.013385  0
H  H26  1  0.65149603  0.56927214  0.71217553  1  0  0.07154  0  0.940304  0  0  0.078894  0  1.010092  0  0  0.080127  0  1.008414  0  0  0.104191  0.077894  0  1.011372  0
H  H27  1  0.34850165  0.43072669  0.28782352  1  0  0.071558  0  0.940289  0  0  0.078886  0  1.010096  0  0  0.08012  0  1.008419  0  0  0.104187  0.077888  0  1.011373  0
H  H28  1  0.81708045  0.47519235  0.68578643  1  0  0.080436  0  0.913165  0  0  0.091014  0  0.972996  0  0  0.09203  0  0.972067  0  0  0.109137  0.090142  0  0.973828  0
H  H29  1  0.18291875  0.52480751  0.31421235  1  0  0.080414  0  0.913213  0  0  0.091018  0  0.973003  0  0  0.092034  0  0.972077  0  0  0.109128  0.090145  0  0.973836  0
H  H30  1  0.78697278  0.44850136  0.86021972  1  0  0.073302  0  0.958055  0  0  0.088883  0  1.028177  0  0  0.089468  0  1.026435  0  0  0.102113  0.088312  0  1.029583  0
H  H31  1  0.21302858  0.55149747  0.13977961  1  0  0.073303  0  0.958079  0  0  0.08889  0  1.028184  0  0  0.089473  0  1.026447  0  0  0.102111  0.088318  0  1.029589  0
H  H32  1  0.63171717  0.54812525  0.89022418  1  0  0.085399  0  0.949701  0  0  0.096949  0  1.016104  0  0  0.098222  0  1.014943  0  0  0.103005  0.095818  0  1.017165  0
H  H33  1  0.36828150  0.45186843  0.10977287  1  0  0.0854  0  0.949689  0  0  0.096954  0  1.016085  0  0  0.098229  0  1.014924  0  0  0.10301  0.095823  0  1.017143  0
C  C34  1  0.25908077  0.05291009  0.16893898  1  0  -0.020542  0  3.780629  0  0  -0.00309  0  4.023784  0  0  -0.009758  0  4.044439  0  0  -0.004302  0.000938  0  4.009971  0
C  C35  1  0.74092207  0.94709388  0.83106415  1  0  -0.02061  0  3.780718  0  0  -0.003068  0  4.023786  0  0  -0.009727  0  4.044442  0  0  -0.004332  0.00096  0  4.009973  0
C  C36  1  0.13449912  0.93068618  0.10886485  1  0  -0.078524  0  3.705663  0  0  -0.108122  0  3.951116  0  0  -0.106108  0  3.969708  0  0  -0.068636  -0.109048  0  3.938541  0
C  C37  1  0.86550464  0.06931675  0.89113395  1  0  -0.078592  0  3.705703  0  0  -0.108218  0  3.951187  0  0  -0.106213  0  3.969768  0  0  -0.068702  -0.109144  0  3.938612  0
C  C38  1  0.09010901  0.85768045  0.98120294  1  0  -0.01578  0  3.768133  0  0  0.005111  0  4.000043  0  0  -0.002545  0  4.022872  0  0  -0.000625  0.009849  0  3.984625  0
C  C39  1  0.90989294  0.14232044  0.01879966  1  0  -0.015738  0  3.768071  0  0  0.005139  0  3.999941  0  0  -0.002515  0  4.022767  0  0  -0.000551  0.009879  0  3.984528  0
C  C40  1  0.17065114  0.90844826  0.91333175  1  0  -0.049038  0  3.63078  0  0  -0.087166  0  3.883519  0  0  -0.082465  0  3.898528  0  0  -0.05723  -0.089672  0  3.872991  0
C  C41  1  0.82935110  0.09155365  0.08666891  1  0  -0.048925  0  3.630724  0  0  -0.087086  0  3.883415  0  0  -0.0824  0  3.898454  0  0  -0.057193  -0.089591  0  3.872887  0
C  C42  1  0.29385814  0.03215399  0.97338760  1  0  -0.029452  0  3.778471  0  0  -0.009133  0  4.021824  0  0  -0.017971  0  4.045483  0  0  -0.006054  -0.004116  0  4.007013  0
C  C43  1  0.70614042  0.96784793  0.02661357  1  0  -0.029542  0  3.778458  0  0  -0.009132  0  4.021736  0  0  -0.017969  0  4.045403  0  0  -0.00606  -0.004115  0  4.006927  0
C  C44  1  0.34178864  0.10314678  0.10140415  1  0  -0.053505  0  3.597958  0  0  -0.099023  0  3.861607  0  0  -0.092618  0  3.874019  0  0  -0.062145  -0.103104  0  3.853476  0
C  C45  1  0.65821418  0.89685719  0.89859659  1  0  -0.053535  0  3.597975  0  0  -0.099122  0  3.861621  0  0  -0.092717  0  3.87403  0  0  -0.062181  -0.103201  0  3.853489  0
C  C46  1  0.29779967  0.13097258  0.30297341  1  0  0.431909  0  3.771412  0  0  0.39403  0  4.038553  0  0  0.41817  0  4.046095  0  0  0.238216  0.3777  0  4.033222  0
C  C47  1  0.70219889  0.86902935  0.69702855  1  0  0.432063  0  3.771085  0  0  0.394133  0  4.038273  0  0  0.418252  0  4.04584  0  0  0.238245  0.377803  0  4.032944  0
C  C48  1  0.46211851  0.28217137  0.48909057  1  0  0.077867  0  3.483047  0  0  0.022577  0  3.741863  0  0  0.029967  0  3.746616  0  0  -0.053213  0.017583  0  3.738677  0
C  C49  1  0.53788134  0.71782644  0.51091142  1  0  0.077895  0  3.483042  0  0  0.022643  0  3.741768  0  0  0.030054  0  3.746492  0  0  -0.053196  0.017645  0  3.738586  0
C  C50  1  0.28954395  0.22101183  0.50143388  1  0  -0.000458  0  3.614785  0  0  -0.057337  0  3.87448  0  0  -0.053026  0  3.886175  0  0  -0.070823  -0.060075  0  3.866569  0
C  C51  1  0.71045619  0.77898701  0.49856854  1  0  -0.000533  0  3.614843  0  0  -0.057392  0  3.874496  0  0  -0.053089  0  3.886189  0  0  -0.070865  -0.060127  0  3.866585  0
C  C52  1  0.37173579  0.09137580  0.90396866  1  0  0.420976  0  3.784555  0  0  0.380889  0  4.054493  0  0  0.404527  0  4.063667  0  0  0.233588  0.364926  0  4.04798  0
C  C53  1  0.62826213  0.90862818  0.09603329  1  0  0.420945  0  3.784706  0  0  0.380817  0  4.054668  0  0  0.40444  0  4.063862  0  0  0.233581  0.36485  0  4.048158  0
C  C54  1  0.55865444  0.24617731  0.88532516  1  0  0.07636  0  3.487881  0  0  0.019053  0  3.744256  0  0  0.026951  0  3.749785  0  0  -0.061075  0.013729  0  3.740411  0
C  C55  1  0.44134412  0.75382462  0.11467760  1  0  0.076418  0  3.487907  0  0  0.019105  0  3.744307  0  0  0.027001  0  3.749833  0  0  -0.061087  0.013772  0  3.740463  0
C  C56  1  0.44129718  0.14445959  0.76142136  1  0  -0.002236  0  3.613964  0  0  -0.059799  0  3.875547  0  0  -0.055484  0  3.885662  0  0  -0.073766  -0.0626  0  3.868816  0
C  C57  1  0.55870570  0.85554026  0.23857931  1  0  -0.002173  0  3.613981  0  0  -0.059796  0  3.87566  0  0  -0.055472  0  3.885778  0  0  -0.073725  -0.062581  0  3.868895  0
C  C58  1  0.95620663  0.73141325  0.91886501  1  0  0.444086  0  3.775679  0  0  0.40219  0  4.045871  0  0  0.427393  0  4.053715  0  0  0.23631  0.385007  0  4.040337  0
C  C59  1  0.04379561  0.26858865  0.08113406  1  0  0.443903  0  3.775808  0  0  0.40218  0  4.04585  0  0  0.427382  0  4.053691  0  0  0.236294  0.384987  0  4.040332  0
C  C60  1  0.76956447  0.55754078  0.75349036  1  0  0.08394  0  3.481018  0  0  0.028159  0  3.742865  0  0  0.036069  0  3.746664  0  0  -0.05731  0.022833  0  3.740418  0
C  C61  1  0.23043473  0.44245907  0.24650843  1  0  0.083887  0  3.481078  0  0  0.028158  0  3.742941  0  0  0.03606  0  3.746755  0  0  -0.0573  0.022831  0  3.740493  0
C  C62  1  0.75718415  0.54422561  0.86878012  1  0  -0.005501  0  3.629  0  0  -0.062818  0  3.886475  0  0  -0.05816  0  3.897633  0  0  -0.077715  -0.06573  0  3.878719  0
C  C63  1  0.24281598  0.45577321  0.13121912  1  0  -0.005483  0  3.628868  0  0  -0.062799  0  3.886369  0  0  -0.058134  0  3.897509  0  0  -0.077701  -0.065712  0  3.878616  0
N  N64  1  0.19436914  0.13410645  0.37378845  1  0  -0.426258  0  3.173281  0  0  -0.350765  0  3.475985  0  0  -0.374605  0  3.486677  0  0  -0.385115  -0.334835  0  3.468532  0
N  N65  1  0.80563129  0.86589341  0.62621283  1  0  -0.426313  0  3.173184  0  0  -0.350836  0  3.475925  0  0  -0.374671  0  3.486624  0  0  -0.385092  -0.334906  0  3.468473  0
N  N66  1  0.88616735  0.66225508  0.96687807  1  0  -0.454625  0  3.198091  0  0  -0.377623  0  3.510195  0  0  -0.404731  0  3.521422  0  0  -0.38663  -0.35922  0  3.502333  0
N  N67  1  0.11382759  0.33774273  0.03312274  1  0  -0.454562  0  3.198146  0  0  -0.377618  0  3.510198  0  0  -0.404724  0  3.521425  0  0  -0.386644  -0.359213  0  3.502343  0
N  N68  1  0.31590825  0.06292518  0.79217270  1  0  -0.434666  0  3.179624  0  0  -0.360039  0  3.486907  0  0  -0.383261  0  3.496694  0  0  -0.383762  -0.344412  0  3.480026  0
N  N69  1  0.68409247  0.93707571  0.20782901  1  0  -0.434607  0  3.179669  0  0  -0.359968  0  3.486992  0  0  -0.383181  0  3.496778  0  0  -0.383772  -0.344348  0  3.480108  0
N  N70  1  0.85329618  0.17039989  0.61078873  1  0  0.688811  0  4.139572  0  0  0.731815  0  4.407711  0  0  0.761096  0  4.415565  0  0  0.092076  0.712079  0  4.401768  0
N  N71  1  0.14670642  0.82959893  0.38921070  1  0  0.688743  0  4.139514  0  0  0.731785  0  4.407619  0  0  0.761068  0  4.415473  0  0  0.092039  0.712049  0  4.401678  0
N  N72  1  0.71790006  0.49202763  0.21784802  1  0  0.715368  0  4.121588  0  0  0.733257  0  4.427269  0  0  0.762571  0  4.433768  0  0  0.088246  0.71347  0  4.422208  0
N  N73  1  0.28209668  0.50797221  0.78214660  1  0  0.715262  0  4.121426  0  0  0.733165  0  4.427107  0  0  0.762478  0  4.433602  0  0  0.088283  0.713375  0  4.422044  0
O  O74  1  0.45634473  0.20734175  0.35688532  1  0  -0.274491  0  2.179096  0  0  -0.202112  0  2.400113  0  0  -0.222187  0  2.400007  0  0  -0.154587  -0.188203  0  2.399767  0
O  O75  1  0.54365418  0.79265709  0.64311621  1  0  -0.274503  0  2.178992  0  0  -0.202136  0  2.400036  0  0  -0.222206  0  2.399921  0  0  -0.154586  -0.188231  0  2.3997  0
O  O76  1  0.89681677  0.68594984  0.79899077  1  0  -0.292145  0  2.227012  0  0  -0.219374  0  2.45596  0  0  -0.240223  0  2.456848  0  0  -0.160288  -0.204979  0  2.455054  0
O  O77  1  0.10318302  0.31405207  0.20101049  1  0  -0.291989  0  2.226909  0  0  -0.219389  0  2.455907  0  0  -0.240239  0  2.456798  0  0  -0.160268  -0.204988  0  2.455003  0
O  O78  1  0.51631223  0.18871629  0.96532813  1  0  -0.289184  0  2.229821  0  0  -0.213194  0  2.455491  0  0  -0.23562  0  2.460968  0  0  -0.158591  -0.197577  0  2.451269  0
O  O79  1  0.48368475  0.81128872  0.03467496  1  0  -0.289186  0  2.229883  0  0  -0.213178  0  2.455557  0  0  -0.235598  0  2.461042  0  0  -0.158573  -0.197554  0  2.451329  0
O  O80  1  0.77086638  0.10770550  0.50146337  1  0  -0.446598  0  1.786079  0  0  -0.4337  0  2.013868  0  0  -0.448599  0  2.002888  0  0  -0.187236  -0.423302  0  2.021225  0
O  O81  1  0.22913376  0.89229333  0.49853508  1  0  -0.4465  0  1.786032  0  0  -0.433686  0  2.013875  0  0  -0.448581  0  2.002879  0  0  -0.187235  -0.42329  0  2.021233  0
O  O82  1  0.78140275  0.23019687  0.69806386  1  0  -0.479504  0  1.787393  0  0  -0.460942  0  2.00914  0  0  -0.479906  0  2.003472  0  0  -0.189828  -0.447554  0  2.012595  0
O  O83  1  0.21860078  0.76980092  0.30193523  1  0  -0.47948  0  1.787295  0  0  -0.460925  0  2.00905  0  0  -0.479879  0  2.003354  0  0  -0.189805  -0.447539  0  2.012506  0
O  O84  1  0.01104793  0.17415792  0.63462382  1  0  -0.493616  0  1.853664  0  0  -0.473677  0  2.114734  0  0  -0.493445  0  2.102569  0  0  -0.203509  -0.45985  0  2.122909  0
O  O85  1  0.98895407  0.82583883  0.36537234  1  0  -0.493647  0  1.853678  0  0  -0.473679  0  2.114704  0  0  -0.493447  0  2.102539  0  0  -0.203493  -0.459852  0  2.122879  0
O  O86  1  0.64119427  0.57377961  0.19798164  1  0  -0.520297  0  1.776486  0  0  -0.490729  0  2.010377  0  0  -0.510083  0  2.003009  0  0  -0.209599  -0.476909  0  2.015044  0
O  O87  1  0.35880639  0.42622539  0.80202014  1  0  -0.520202  0  1.776293  0  0  -0.490664  0  2.010193  0  0  -0.510015  0  2.002823  0  0  -0.209593  -0.476854  0  2.014891  0
O  O88  1  0.86602309  0.48847829  0.19569988  1  0  -0.490416  0  1.797335  0  0  -0.459406  0  2.03998  0  0  -0.480271  0  2.031942  0  0  -0.212073  -0.444492  0  2.04504  0
O  O89  1  0.13397365  0.51152156  0.80429473  1  0  -0.49046  0  1.797375  0  0  -0.459434  0  2.039992  0  0  -0.480304  0  2.031965  0  0  -0.212126  -0.44452  0  2.045053  0
O  O90  1  0.65108516  0.41815263  0.25855118  1  0  -0.456348  0  1.699839  0  0  -0.450169  0  1.906437  0  0  -0.462472  0  1.898967  0  0  -0.195909  -0.441424  0  1.911302  0
O  O91  1  0.34891164  0.58184309  0.74143859  1  0  -0.456317  0  1.699821  0  0  -0.450132  0  1.906404  0  0  -0.462435  0  1.898933  0  0  -0.195901  -0.441383  0  1.911268  0
