# generated using pymatgen
data_CdH16C18S3(NO)4
_symmetry_space_group_name_H-M   'P 1'
_cell_length_a   9.04964139
_cell_length_b   10.68303381
_cell_length_c   11.53180596
_cell_angle_alpha   78.18941238
_cell_angle_beta   86.59150158
_cell_angle_gamma   77.31364734
_symmetry_Int_Tables_number   1
_chemical_formula_structural   CdH16C18S3(NO)4
_chemical_formula_sum   'Cd2 H32 C36 S6 N8 O8'
_cell_volume   1064.50139270
_cell_formula_units_Z   2
loop_
 _symmetry_equiv_pos_site_id
 _symmetry_equiv_pos_as_xyz
  1  'x, y, z'
loop_
 _atom_site_type_symbol
 _atom_site_label
 _atom_site_symmetry_multiplicity
 _atom_site_fract_x
 _atom_site_fract_y
 _atom_site_fract_z
 _atom_site_occupancy
 _atom_site_hle17_bader_spin_density
 _atom_site_hle17_ddec_charge
 _atom_site_hle17_ddec_spin_density
 _atom_site_hle17_ddec_sum_bond_order
 _atom_site_hle17_magmom
 _atom_site_hse06_10hf_bader_spin_density
 _atom_site_hse06_10hf_ddec_charge
 _atom_site_hse06_10hf_ddec_spin_density
 _atom_site_hse06_10hf_ddec_sum_bond_order
 _atom_site_hse06_10hf_magmom
 _atom_site_hse06_bader_spin_density
 _atom_site_hse06_ddec_charge
 _atom_site_hse06_ddec_spin_density
 _atom_site_hse06_ddec_sum_bond_order
 _atom_site_hse06_magmom
 _atom_site_pbe_bader_spin_density
 _atom_site_pbe_cm5_charge
 _atom_site_pbe_ddec_charge
 _atom_site_pbe_ddec_spin_density
 _atom_site_pbe_ddec_sum_bond_order
 _atom_site_pbe_magmom
Cd  Cd0  1  0.62320811  0.90852279  0.88957001  1  0  1.110625  0  1.696068  0  0  0.913637  0  2.155075  0  0  0.973025  0  2.100407  0  0  0.768435  0.871776  0  2.192316  0
Cd  Cd1  1  0.37679568  0.09147943  0.11042784  1  0  1.110637  0  1.696075  0  0  0.913634  0  2.155081  0  0  0.973021  0  2.100413  0  0  0.768433  0.87177  0  2.192323  0
H  H2  1  0.95508582  0.52834637  0.78972316  1  0  0.144499  0  0.890975  0  0  0.166364  0  0.932663  0  0  0.169062  0  0.931288  0  0  0.119821  0.164467  0  0.933732  0
H  H3  1  0.04491619  0.47165397  0.21028120  1  0  0.144503  0  0.890966  0  0  0.166387  0  0.93264  0  0  0.169078  0  0.93126  0  0  0.119824  0.164486  0  0.933707  0
H  H4  1  0.03830251  0.65636490  0.71364391  1  0  0.112233  0  0.967998  0  0  0.122456  0  1.036786  0  0  0.124886  0  1.035479  0  0  0.096818  0.121218  0  1.03705  0
H  H5  1  0.96169841  0.34363540  0.28635705  1  0  0.112223  0  0.967986  0  0  0.122437  0  1.036803  0  0  0.124857  0  1.035496  0  0  0.096806  0.121195  0  1.037063  0
H  H6  1  0.91117095  0.16525606  0.08241171  1  0  0.150426  0  0.901245  0  0  0.168473  0  0.947834  0  0  0.171888  0  0.945329  0  0  0.116284  0.165916  0  0.949851  0
H  H7  1  0.08883694  0.83473837  0.91759097  1  0  0.150417  0  0.901284  0  0  0.168483  0  0.947848  0  0  0.171898  0  0.945343  0  0  0.116296  0.165925  0  0.949865  0
H  H8  1  0.98991064  0.99694423  0.11282543  1  0  0.14259  0  0.937073  0  0  0.150795  0  1.00317  0  0  0.154245  0  1.00068  0  0  0.109763  0.148255  0  1.005214  0
H  H9  1  0.01009172  0.00305019  0.88717576  1  0  0.142648  0  0.937064  0  0  0.150823  0  1.003176  0  0  0.154275  0  1.000683  0  0  0.109787  0.148284  0  1.00522  0
H  H10  1  0.75022962  0.77448483  0.14389741  1  0  0.087101  0  0.954769  0  0  0.091778  0  1.023876  0  0  0.094588  0  1.0208  0  0  0.116092  0.089671  0  1.026139  0
H  H11  1  0.24976775  0.22551643  0.85610178  1  0  0.087114  0  0.954756  0  0  0.091786  0  1.023869  0  0  0.094595  0  1.020794  0  0  0.116089  0.089679  0  1.026132  0
H  H12  1  0.73457169  0.59452895  0.30899322  1  0  0.105635  0  0.996464  0  0  0.107773  0  1.071512  0  0  0.111213  0  1.070498  0  0  0.099502  0.105444  0  1.072101  0
H  H13  1  0.26542729  0.40547032  0.69100369  1  0  0.10568  0  0.996388  0  0  0.107791  0  1.071469  0  0  0.111227  0  1.070457  0  0  0.099537  0.105466  0  1.072047  0
H  H14  1  0.37090951  0.51345391  0.12758098  1  0  0.111807  0  0.938483  0  0  0.125246  0  0.991061  0  0  0.12805  0  0.991252  0  0  0.108548  0.123184  0  0.991149  0
H  H15  1  0.62908914  0.48655125  0.87241564  1  0  0.111742  0  0.938535  0  0  0.125188  0  0.991096  0  0  0.128001  0  0.991291  0  0  0.108514  0.123125  0  0.991184  0
H  H16  1  0.40283702  0.70123461  0.96599702  1  0  0.07797  0  0.934193  0  0  0.090786  0  0.990778  0  0  0.092557  0  0.989627  0  0  0.116041  0.089514  0  0.991572  0
H  H17  1  0.59715988  0.29876861  0.03400180  1  0  0.07799  0  0.934212  0  0  0.090797  0  0.990793  0  0  0.092567  0  0.989644  0  0  0.116062  0.089526  0  0.991585  0
H  H18  1  0.42917418  0.46416494  0.38911154  1  0  0.077128  0  0.9544  0  0  0.093027  0  1.02276  0  0  0.093453  0  1.023904  0  0  0.090094  0.092762  0  1.021931  0
H  H19  1  0.57082218  0.53583142  0.61088780  1  0  0.077082  0  0.954447  0  0  0.093016  0  1.0228  0  0  0.093436  0  1.023944  0  0  0.090087  0.09275  0  1.021969  0
H  H20  1  0.49232232  0.35051619  0.29898768  1  0  0.107674  0  0.944865  0  0  0.123423  0  1.005214  0  0  0.125641  0  1.003686  0  0  0.100036  0.121837  0  1.006325  0
H  H21  1  0.50767911  0.64948210  0.70100932  1  0  0.107694  0  0.94482  0  0  0.123462  0  1.005184  0  0  0.125678  0  1.00365  0  0  0.100055  0.121875  0  1.006296  0
H  H22  1  0.70546728  0.44758478  0.44452618  1  0  0.073577  0  0.951876  0  0  0.090351  0  1.017262  0  0  0.091689  0  1.016456  0  0  0.091032  0.089495  0  1.01755  0
H  H23  1  0.29452898  0.55241650  0.55547392  1  0  0.07358  0  0.951859  0  0  0.090336  0  1.017244  0  0  0.091674  0  1.016434  0  0  0.091014  0.089479  0  1.017535  0
H  H24  1  0.75962594  0.32509250  0.36017053  1  0  0.068875  0  0.967394  0  0  0.086147  0  1.03566  0  0  0.086461  0  1.036108  0  0  0.087862  0.085939  0  1.035246  0
H  H25  1  0.24037404  0.67491170  0.63982796  1  0  0.06887  0  0.967386  0  0  0.086119  0  1.035655  0  0  0.086422  0  1.036108  0  0  0.087872  0.085916  0  1.035241  0
H  H26  1  0.47050904  0.19142157  0.45423536  1  0  0.119483  0  0.960791  0  0  0.125843  0  1.027858  0  0  0.129341  0  1.02669  0  0  0.105037  0.123356  0  1.028784  0
H  H27  1  0.52949300  0.80857872  0.54576468  1  0  0.119495  0  0.960739  0  0  0.125859  0  1.027797  0  0  0.129357  0  1.026628  0  0  0.105036  0.123372  0  1.028724  0
H  H28  1  0.46241643  0.02260294  0.63905059  1  0  0.083721  0  0.940922  0  0  0.091903  0  1.006841  0  0  0.094138  0  1.004811  0  0  0.112607  0.090265  0  1.008172  0
H  H29  1  0.53758157  0.97740030  0.36094992  1  0  0.083597  0  0.940987  0  0  0.091806  0  1.006882  0  0  0.094039  0  1.004858  0  0  0.112573  0.090168  0  1.008212  0
H  H30  1  0.79185089  0.14158508  0.79717292  1  0  0.083461  0  0.951424  0  0  0.092391  0  1.015673  0  0  0.094961  0  1.013161  0  0  0.113962  0.090443  0  1.017548  0
H  H31  1  0.20814489  0.85841816  0.20282768  1  0  0.083521  0  0.951433  0  0  0.092479  0  1.015641  0  0  0.095049  0  1.013129  0  0  0.113964  0.09053  0  1.017516  0
H  H32  1  0.81562052  0.31494087  0.61999864  1  0  0.104974  0  0.975243  0  0  0.112104  0  1.042783  0  0  0.114642  0  1.043073  0  0  0.099267  0.110184  0  1.042839  0
H  H33  1  0.18438216  0.68506135  0.37999925  1  0  0.104945  0  0.975351  0  0  0.112067  0  1.04289  0  0  0.114605  0  1.04318  0  0  0.099241  0.110148  0  1.042946  0
C  C34  1  0.81495235  0.72040808  0.78446138  1  0  0.662341  0  3.952508  0  0  0.618268  0  4.251313  0  0  0.651046  0  4.24706  0  0  0.173994  0.596233  0  4.252915  0
C  C35  1  0.18504898  0.27959512  0.21553638  1  0  0.662328  0  3.952388  0  0  0.61827  0  4.25118  0  0  0.65104  0  4.246926  0  0  0.174013  0.59623  0  4.25278  0
C  C36  1  0.93109666  0.62301052  0.72726920  1  0  -0.297899  0  3.647445  0  0  -0.331487  0  3.909135  0  0  -0.335735  0  3.913132  0  0  -0.150497  -0.328643  0  3.905616  0
C  C37  1  0.06890450  0.37698881  0.27273280  1  0  -0.297835  0  3.647277  0  0  -0.331473  0  3.90904  0  0  -0.335685  0  3.913  0  0  -0.150459  -0.328617  0  3.905506  0
C  C38  1  0.88252894  0.72162112  0.48568533  1  0  0.062981  0  3.789776  0  0  0.062173  0  4.101552  0  0  0.072326  0  4.114949  0  0  0.108805  0.054623  0  4.093005  0
C  C39  1  0.11747514  0.27837528  0.51431713  1  0  0.062986  0  3.789753  0  0  0.062171  0  4.101547  0  0  0.072323  0  4.114944  0  0  0.108809  0.054623  0  4.092998  0
C  C40  1  0.88158799  0.92620065  0.35232206  1  0  0.063613  0  3.817341  0  0  0.061278  0  4.128835  0  0  0.071729  0  4.143224  0  0  0.107853  0.054449  0  4.1192  0
C  C41  1  0.11840699  0.07379676  0.64768234  1  0  0.063641  0  3.817357  0  0  0.061348  0  4.128791  0  0  0.071799  0  4.14318  0  0  0.107889  0.054518  0  4.119159  0
C  C42  1  0.89074354  0.07045317  0.13098920  1  0  -0.298705  0  3.603213  0  0  -0.32946  0  3.859004  0  0  -0.334286  0  3.862656  0  0  -0.146815  -0.326437  0  3.856708  0
C  C43  1  0.10926056  0.92954321  0.86901239  1  0  -0.298738  0  3.603411  0  0  -0.329488  0  3.859168  0  0  -0.334316  0  3.862821  0  0  -0.146863  -0.326466  0  3.856875  0
C  C44  1  0.74648814  0.04311169  0.08769148  1  0  0.715177  0  3.891872  0  0  0.657775  0  4.207225  0  0  0.693029  0  4.199353  0  0  0.206176  0.633784  0  4.211721  0
C  C45  1  0.25351478  0.95688956  0.91230746  1  0  0.715101  0  3.892091  0  0  0.657766  0  4.207335  0  0  0.69302  0  4.199463  0  0  0.206176  0.633775  0  4.211832  0
C  C46  1  0.66669143  0.71513409  0.14268162  1  0  0.146051  0  3.698062  0  0  0.115597  0  3.947284  0  0  0.124191  0  3.965139  0  0  0.046237  0.110129  0  3.935165  0
C  C47  1  0.33330642  0.28486521  0.85731794  1  0  0.146093  0  3.698127  0  0  0.115639  0  3.947335  0  0  0.124234  0  3.965188  0  0  0.04626  0.11017  0  3.935217  0
C  C48  1  0.65641996  0.61212339  0.23636802  1  0  -0.171563  0  3.688408  0  0  -0.186737  0  3.931149  0  0  -0.196249  0  3.953689  0  0  -0.090783  -0.180719  0  3.916168  0
C  C49  1  0.34357766  0.38787690  0.76363136  1  0  -0.171646  0  3.688384  0  0  -0.186798  0  3.931094  0  0  -0.1963  0  3.953624  0  0  -0.090831  -0.180782  0  3.916115  0
C  C50  1  0.54826311  0.53678478  0.23495274  1  0  0.161033  0  3.701559  0  0  0.178063  0  3.935108  0  0  0.183798  0  3.957528  0  0  0.012491  0.174415  0  3.919787  0
C  C51  1  0.45173293  0.46321745  0.76504545  1  0  0.161023  0  3.70154  0  0  0.178115  0  3.935056  0  0  0.183841  0  3.957474  0  0  0.012522  0.174465  0  3.919735  0
C  C52  1  0.45542138  0.56998849  0.13515176  1  0  -0.183488  0  3.718428  0  0  -0.200572  0  3.967798  0  0  -0.209633  0  3.989916  0  0  -0.089399  -0.194763  0  3.952928  0
C  C53  1  0.54457846  0.43001176  0.86484492  1  0  -0.183387  0  3.718354  0  0  -0.200478  0  3.967677  0  0  -0.209554  0  3.989814  0  0  -0.089337  -0.19467  0  3.952805  0
C  C54  1  0.47254178  0.67428687  0.04491174  1  0  0.129372  0  3.743747  0  0  0.096853  0  3.999534  0  0  0.104619  0  4.019316  0  0  0.041592  0.091921  0  3.985988  0
C  C55  1  0.52745647  0.32571537  0.95508722  1  0  0.129333  0  3.743697  0  0  0.096824  0  3.999498  0  0  0.104589  0  4.019282  0  0  0.041559  0.091892  0  3.98595  0
C  C56  1  0.52756276  0.42684104  0.33517359  1  0  -0.170796  0  3.697397  0  0  -0.210423  0  3.938532  0  0  -0.212276  0  3.949634  0  0  -0.163649  -0.208998  0  3.930702  0
C  C57  1  0.47243462  0.57316021  0.66482473  1  0  -0.17073  0  3.697434  0  0  -0.210496  0  3.938665  0  0  -0.212326  0  3.949732  0  0  -0.163664  -0.209067  0  3.930832  0
C  C58  1  0.66551475  0.37004737  0.41379887  1  0  -0.146583  0  3.710015  0  0  -0.190203  0  3.954701  0  0  -0.191336  0  3.966555  0  0  -0.158868  -0.189295  0  3.946392  0
C  C59  1  0.33448397  0.62995291  0.58620046  1  0  -0.146589  0  3.710058  0  0  -0.190104  0  3.954683  0  0  -0.191245  0  3.96656  0  0  -0.158866  -0.189191  0  3.946349  0
C  C60  1  0.64582029  0.26778103  0.52107185  1  0  0.157491  0  3.707617  0  0  0.175489  0  3.941809  0  0  0.180836  0  3.964252  0  0  0.010572  0.172235  0  3.92655  0
C  C61  1  0.35418040  0.73222024  0.47892806  1  0  0.157439  0  3.707693  0  0  0.175435  0  3.941848  0  0  0.180782  0  3.964285  0  0  0.010562  0.172179  0  3.926595  0
C  C62  1  0.54473598  0.18398953  0.52765964  1  0  -0.182881  0  3.685106  0  0  -0.199208  0  3.933005  0  0  -0.208677  0  3.955582  0  0  -0.090603  -0.193177  0  3.917747  0
C  C63  1  0.45526069  0.81601466  0.47233813  1  0  -0.182942  0  3.685226  0  0  -0.199279  0  3.933134  0  0  -0.208748  0  3.95571  0  0  -0.090645  -0.193248  0  3.917878  0
C  C64  1  0.53968187  0.08935518  0.63004336  1  0  0.138443  0  3.70782  0  0  0.105021  0  3.962995  0  0  0.112947  0  3.98252  0  0  0.043408  0.100007  0  3.949328  0
C  C65  1  0.46031288  0.91064318  0.36995912  1  0  0.138619  0  3.708029  0  0  0.105167  0  3.963217  0  0  0.113092  0  3.982739  0  0  0.043472  0.100155  0  3.94955  0
C  C66  1  0.72406366  0.15546210  0.71872330  1  0  0.131912  0  3.730701  0  0  0.09791  0  3.987385  0  0  0.105589  0  4.007064  0  0  0.039834  0.092999  0  3.973906  0
C  C67  1  0.27593347  0.84454014  0.28127571  1  0  0.131818  0  3.730618  0  0  0.097777  0  3.9873  0  0  0.105456  0  4.006977  0  0  0.039786  0.092868  0  3.973823  0
C  C68  1  0.73581365  0.25196691  0.61995349  1  0  -0.183957  0  3.719425  0  0  -0.202304  0  3.970817  0  0  -0.21179  0  3.994518  0  0  -0.094297  -0.196197  0  3.95493  0
C  C69  1  0.26418593  0.74803437  0.38004647  1  0  -0.183903  0  3.719585  0  0  -0.202245  0  3.970971  0  0  -0.21173  0  3.99467  0  0  -0.094264  -0.196139  0  3.955087  0
S  S70  1  0.87882184  0.58267123  0.59326014  1  0  0.078944  0  2.529101  0  0  0.064734  0  2.89409  0  0  0.062906  0  2.890883  0  0  0.049728  0.066985  0  2.896071  0
S  S71  1  0.12118200  0.41732615  0.40674300  1  0  0.0789  0  2.529085  0  0  0.064703  0  2.894101  0  0  0.062864  0  2.890881  0  0  0.049687  0.066949  0  2.896076  0
S  S72  1  0.86537178  0.88215646  0.50616312  1  0  0.091272  0  2.50349  0  0  0.08946  0  2.835231  0  0  0.090756  0  2.837766  0  0  0.100669  0.086608  0  2.836541  0
S  S73  1  0.13462810  0.11783900  0.49384318  1  0  0.091355  0  2.503447  0  0  0.08955  0  2.835154  0  0  0.090847  0  2.83769  0  0  0.100707  0.086698  0  2.836464  0
S  S74  1  0.88708680  0.08521268  0.28397653  1  0  0.066154  0  2.510258  0  0  0.054892  0  2.86314  0  0  0.051821  0  2.861847  0  0  0.033825  0.057008  0  2.864564  0
S  S75  1  0.11291373  0.91478470  0.71602590  1  0  0.066143  0  2.510333  0  0  0.054864  0  2.863192  0  0  0.051796  0  2.861895  0  0  0.033815  0.05698  0  2.864622  0
N  N76  1  0.89479198  0.71170860  0.37327956  1  0  -0.232399  0  3.094663  0  0  -0.207704  0  3.384357  0  0  -0.215941  0  3.398084  0  0  -0.221528  -0.201805  0  3.375051  0
N  N77  1  0.10520855  0.28828876  0.62672199  1  0  -0.232376  0  3.094674  0  0  -0.207676  0  3.384369  0  0  -0.215911  0  3.398094  0  0  -0.221515  -0.201779  0  3.375064  0
N  N78  1  0.89273424  0.82794170  0.29706338  1  0  -0.211126  0  3.040027  0  0  -0.188128  0  3.324885  0  0  -0.197279  0  3.339175  0  0  -0.21971  -0.181415  0  3.314653  0
N  N79  1  0.10726027  0.17205766  0.70294065  1  0  -0.211272  0  3.040094  0  0  -0.18829  0  3.324944  0  0  -0.197443  0  3.339234  0  0  -0.219778  -0.181576  0  3.314713  0
N  N80  1  0.57604177  0.74682264  0.04829145  1  0  -0.354547  0  3.285872  0  0  -0.275114  0  3.552581  0  0  -0.297056  0  3.571848  0  0  -0.335181  -0.260229  0  3.539166  0
N  N81  1  0.42395426  0.25317961  0.95170847  1  0  -0.354543  0  3.285952  0  0  -0.275124  0  3.552689  0  0  -0.297067  0  3.571955  0  0  -0.335197  -0.260238  0  3.539272  0
N  N82  1  0.62771751  0.07484107  0.72404956  1  0  -0.340615  0  3.267075  0  0  -0.260635  0  3.53261  0  0  -0.282256  0  3.552346  0  0  -0.332773  -0.245981  0  3.518775  0
N  N83  1  0.37228405  0.92516118  0.27595011  1  0  -0.340608  0  3.266912  0  0  -0.260588  0  3.532416  0  0  -0.282212  0  3.552163  0  0  -0.332719  -0.245932  0  3.518571  0
O  O84  1  0.86393405  0.75611987  0.87070188  1  0  -0.63736  0  1.92489  0  0  -0.58179  0  2.156222  0  0  -0.61055  0  2.148118  0  0  -0.341609  -0.561454  0  2.160635  0
O  O85  1  0.13606578  0.24388041  0.12929739  1  0  -0.637361  0  1.924875  0  0  -0.581787  0  2.156185  0  0  -0.61055  0  2.148085  0  0  -0.341595  -0.561452  0  2.160599  0
O  O86  1  0.68133698  0.76005034  0.74498457  1  0  -0.646157  0  1.955808  0  0  -0.589282  0  2.195188  0  0  -0.616606  0  2.186929  0  0  -0.334331  -0.570054  0  2.199909  0
O  O87  1  0.31866420  0.23994895  0.25501398  1  0  -0.646167  0  1.955787  0  0  -0.589284  0  2.195152  0  0  -0.616607  0  2.186897  0  0  -0.334369  -0.570053  0  2.199873  0
O  O88  1  0.75999433  0.01315193  0.98577459  1  0  -0.651682  0  2.021492  0  0  -0.581098  0  2.285349  0  0  -0.611178  0  2.273461  0  0  -0.327832  -0.560144  0  2.292844  0
O  O89  1  0.24000882  0.98684835  0.01422454  1  0  -0.651652  0  2.021495  0  0  -0.581085  0  2.285301  0  0  -0.611163  0  2.273412  0  0  -0.32783  -0.560131  0  2.292796  0
O  O90  1  0.62913809  0.05433528  0.15281696  1  0  -0.656801  0  2.078986  0  0  -0.595877  0  2.354242  0  0  -0.624588  0  2.34256  0  0  -0.328511  -0.575826  0  2.361533  0
O  O91  1  0.37086506  0.94566500  0.84718217  1  0  -0.656773  0  2.079087  0  0  -0.59589  0  2.354328  0  0  -0.624603  0  2.342647  0  0  -0.328515  -0.575839  0  2.361618  0
