# generated using pymatgen
data_KH11(C2O3)3
_symmetry_space_group_name_H-M   'P 1'
_cell_length_a   6.10118406
_cell_length_b   8.82688206
_cell_length_c   10.02827821
_cell_angle_alpha   100.88608825
_cell_angle_beta   101.56540313
_cell_angle_gamma   90.11468808
_symmetry_Int_Tables_number   1
_chemical_formula_structural   KH11(C2O3)3
_chemical_formula_sum   'K2 H22 C12 O18'
_cell_volume   519.13431051
_cell_formula_units_Z   2
loop_
 _symmetry_equiv_pos_site_id
 _symmetry_equiv_pos_as_xyz
  1  'x, y, z'
loop_
 _atom_site_type_symbol
 _atom_site_label
 _atom_site_symmetry_multiplicity
 _atom_site_fract_x
 _atom_site_fract_y
 _atom_site_fract_z
 _atom_site_occupancy
 _atom_site_hle17_bader_spin_density
 _atom_site_hle17_ddec_charge
 _atom_site_hle17_ddec_spin_density
 _atom_site_hle17_ddec_sum_bond_order
 _atom_site_hle17_magmom
 _atom_site_hse06_10hf_bader_spin_density
 _atom_site_hse06_10hf_ddec_charge
 _atom_site_hse06_10hf_ddec_spin_density
 _atom_site_hse06_10hf_ddec_sum_bond_order
 _atom_site_hse06_10hf_magmom
 _atom_site_hse06_bader_spin_density
 _atom_site_hse06_ddec_charge
 _atom_site_hse06_ddec_spin_density
 _atom_site_hse06_ddec_sum_bond_order
 _atom_site_hse06_magmom
 _atom_site_pbe_bader_spin_density
 _atom_site_pbe_cm5_charge
 _atom_site_pbe_ddec_charge
 _atom_site_pbe_ddec_spin_density
 _atom_site_pbe_ddec_sum_bond_order
 _atom_site_pbe_magmom
K  K0  1  0.60972146  0.72547827  0.97232642  1  0  0.931182  0  0.445969  0  0  0.890575  0  0.621602  0  0  0.902699  0  0.60013  0  0  0.753487  0.881016  0  0.637672  0
K  K1  1  0.39029765  0.27452274  0.02767651  1  0  0.931191  0  0.445952  0  0  0.890603  0  0.621564  0  0  0.902727  0  0.600093  0  0  0.753486  0.881046  0  0.637635  0
H  H2  1  0.40484093  0.58369513  0.65778318  1  0  0.421835  0  0.8782  0  0  0.387515  0  0.952442  0  0  0.400623  0  0.933978  0  0  0.301813  0.378373  0  0.965267  0
H  H3  1  0.59515797  0.41630359  0.34221587  1  0  0.421793  0  0.878253  0  0  0.387475  0  0.952497  0  0  0.400582  0  0.934033  0  0  0.301809  0.378334  0  0.965317  0
H  H4  1  0.75036127  0.70435227  0.56324303  1  0  0.136211  0  0.908516  0  0  0.151107  0  0.960154  0  0  0.154243  0  0.958647  0  0  0.113696  0.148915  0  0.9612  0
H  H5  1  0.24963275  0.29564876  0.43675780  1  0  0.136275  0  0.908536  0  0  0.151102  0  0.960214  0  0  0.154248  0  0.958689  0  0  0.11368  0.148904  0  0.961255  0
H  H6  1  0.96116730  0.80094146  0.50637179  1  0  0.149225  0  0.92759  0  0  0.157053  0  0.990637  0  0  0.160941  0  0.988155  0  0  0.11306  0.154138  0  0.992849  0
H  H7  1  0.03883367  0.19906419  0.49363466  1  0  0.14931  0  0.927576  0  0  0.157114  0  0.990594  0  0  0.160999  0  0.988116  0  0  0.113079  0.154195  0  0.992796  0
H  H8  1  0.35734611  0.12164417  0.70326022  1  0  0.395128  0  0.908735  0  0  0.361353  0  0.989672  0  0  0.374746  0  0.976206  0  0  0.298289  0.351996  0  0.998657  0
H  H9  1  0.64265424  0.87835109  0.29674144  1  0  0.395079  0  0.908816  0  0  0.361309  0  0.989747  0  0  0.3747  0  0.976274  0  0  0.298275  0.351952  0  0.998732  0
H  H10  1  0.03854629  0.86121802  0.90859768  1  0  0.380426  0  0.877499  0  0  0.35245  0  0.960944  0  0  0.363429  0  0.947389  0  0  0.310547  0.344545  0  0.970803  0
H  H11  1  0.96145087  0.13877954  0.09139997  1  0  0.380401  0  0.877498  0  0  0.352414  0  0.960955  0  0  0.363398  0  0.947403  0  0  0.310544  0.344511  0  0.97081  0
H  H12  1  0.74896659  0.02685882  0.57903331  1  0  0.139217  0  0.922143  0  0  0.151288  0  0.982426  0  0  0.154135  0  0.981073  0  0  0.111864  0.149044  0  0.983601  0
H  H13  1  0.25104073  0.97314105  0.42096997  1  0  0.139213  0  0.922191  0  0  0.151284  0  0.982471  0  0  0.154131  0  0.981119  0  0  0.111859  0.149042  0  0.983646  0
H  H14  1  0.58225281  0.93025022  0.66443388  1  0  0.129504  0  0.931356  0  0  0.140923  0  0.994215  0  0  0.144081  0  0.992473  0  0  0.112112  0.13864  0  0.995422  0
H  H15  1  0.41774281  0.06974965  0.33556695  1  0  0.129504  0  0.931359  0  0  0.140953  0  0.994161  0  0  0.14411  0  0.992419  0  0  0.112136  0.13867  0  0.995371  0
H  H16  1  0.57084072  0.39704662  0.73825699  1  0  0.4359  0  0.862058  0  0  0.404761  0  0.923904  0  0  0.415443  0  0.908439  0  0  0.300888  0.397488  0  0.934437  0
H  H17  1  0.42915658  0.60295325  0.26174106  1  0  0.435885  0  0.86207  0  0  0.404741  0  0.923927  0  0  0.415422  0  0.908462  0  0  0.300878  0.397469  0  0.934458  0
H  H18  1  0.74345073  0.50549703  0.69305688  1  0  0.426578  0  0.87226  0  0  0.391614  0  0.942098  0  0  0.402551  0  0.926098  0  0  0.295661  0.384014  0  0.95319  0
H  H19  1  0.25654666  0.49450400  0.30693838  1  0  0.426571  0  0.872265  0  0  0.39162  0  0.942081  0  0  0.402554  0  0.926084  0  0  0.29567  0.38402  0  0.953171  0
H  H20  1  0.86673866  0.47359748  0.14184964  1  0  0.416077  0  0.884398  0  0  0.388723  0  0.942686  0  0  0.398212  0  0.928585  0  0  0.294636  0.381866  0  0.952989  0
H  H21  1  0.13325853  0.52640008  0.85814303  1  0  0.416084  0  0.884383  0  0  0.388702  0  0.942707  0  0  0.398191  0  0.928606  0  0  0.294632  0.381844  0  0.953009  0
H  H22  1  0.84245371  0.37854193  0.98898380  1  0  0.407538  0  0.901373  0  0  0.375001  0  0.969989  0  0  0.386242  0  0.953163  0  0  0.287355  0.366956  0  0.982035  0
H  H23  1  0.15755148  0.62144985  0.01101090  1  0  0.407659  0  0.901204  0  0  0.375126  0  0.969811  0  0  0.386366  0  0.952989  0  0  0.287441  0.367082  0  0.981858  0
C  C24  1  0.08092589  0.63295241  0.63027110  1  0  0.740543  0  3.750638  0  0  0.682216  0  4.064916  0  0  0.716021  0  4.055732  0  0  0.23999  0.659268  0  4.070736  0
C  C25  1  0.91907170  0.36705208  0.36972875  1  0  0.740611  0  3.750639  0  0  0.682273  0  4.064896  0  0  0.716075  0  4.055714  0  0  0.240013  0.65932  0  4.070715  0
C  C26  1  0.92161534  0.75513162  0.59339099  1  0  -0.361799  0  3.603201  0  0  -0.40537  0  3.846922  0  0  -0.412852  0  3.852253  0  0  -0.162189  -0.399816  0  3.843077  0
C  C27  1  0.07838209  0.24487057  0.40661045  1  0  -0.361992  0  3.60344  0  0  -0.40542  0  3.847044  0  0  -0.4129  0  3.852366  0  0  -0.162149  -0.399829  0  3.843145  0
C  C28  1  0.93084971  0.89011256  0.71939318  1  0  0.270167  0  3.601212  0  0  0.270461  0  3.845304  0  0  0.273749  0  3.857386  0  0  0.076228  0.267965  0  3.836877  0
C  C29  1  0.06914604  0.10988963  0.28060906  1  0  0.270115  0  3.601498  0  0  0.270413  0  3.845525  0  0  0.273692  0  3.857614  0  0  0.07625  0.267916  0  3.837093  0
C  C30  1  0.16159229  0.97455424  0.75617509  1  0  0.606595  0  3.822813  0  0  0.553364  0  4.133077  0  0  0.58515  0  4.125337  0  0  0.2258  0.531547  0  4.137966  0
C  C31  1  0.83842178  0.02544678  0.24383320  1  0  0.606705  0  3.822503  0  0  0.55347  0  4.132791  0  0  0.58526  0  4.125047  0  0  0.225909  0.53165  0  4.137685  0
C  C32  1  0.74122332  0.99631565  0.67956421  1  0  -0.359465  0  3.635943  0  0  -0.403148  0  3.879668  0  0  -0.409717  0  3.885626  0  0  -0.162359  -0.398243  0  3.87522  0
C  C33  1  0.25877564  0.00368422  0.32043704  1  0  -0.359472  0  3.63597  0  0  -0.403149  0  3.879768  0  0  -0.409714  0  3.885725  0  0  -0.162396  -0.398254  0  3.875335  0
C  C34  1  0.73610082  0.14640096  0.78161771  1  0  0.735251  0  3.786909  0  0  0.684341  0  4.089584  0  0  0.717647  0  4.081113  0  0  0.227691  0.661772  0  4.094677  0
C  C35  1  0.26390003  0.85360238  0.21838535  1  0  0.73536  0  3.786755  0  0  0.684354  0  4.089583  0  0  0.717657  0  4.081114  0  0  0.22769  0.661785  0  4.094677  0
O  O36  1  0.02044250  0.51614888  0.66911456  1  0  -0.60393  0  1.966073  0  0  -0.540484  0  2.172898  0  0  -0.563737  0  2.163033  0  0  -0.281843  -0.524963  0  2.180374  0
O  O37  1  0.97955314  0.48385099  0.33088328  1  0  -0.603953  0  1.966124  0  0  -0.540518  0  2.172968  0  0  -0.563768  0  2.163102  0  0  -0.281863  -0.525  0  2.18045  0
O  O38  1  0.28875573  0.66343135  0.62263024  1  0  -0.567168  0  2.061115  0  0  -0.513129  0  2.279815  0  0  -0.53685  0  2.262523  0  0  -0.326091  -0.496543  0  2.291256  0
O  O39  1  0.71124179  0.33657199  0.37736842  1  0  -0.567141  0  2.061164  0  0  -0.513121  0  2.279891  0  0  -0.536842  0  2.262598  0  0  -0.326107  -0.496537  0  2.291336  0
O  O40  1  0.29431747  0.96239584  0.86449463  1  0  -0.612879  0  1.978658  0  0  -0.579111  0  2.216617  0  0  -0.599422  0  2.207138  0  0  -0.349689  -0.565078  0  2.223228  0
O  O41  1  0.70568478  0.03760287  0.13550285  1  0  -0.61299  0  1.978218  0  0  -0.579207  0  2.216169  0  0  -0.599519  0  2.206686  0  0  -0.349789  -0.565172  0  2.222782  0
O  O42  1  0.20094023  0.05356202  0.66445627  1  0  -0.548928  0  2.12723  0  0  -0.4924  0  2.352971  0  0  -0.516825  0  2.341433  0  0  -0.319914  -0.475483  0  2.360691  0
O  O43  1  0.79906039  0.94643786  0.33554818  1  0  -0.548928  0  2.127251  0  0  -0.492433  0  2.353031  0  0  -0.516853  0  2.341483  0  0  -0.319966  -0.475516  0  2.360753  0
O  O44  1  0.90032270  0.83157936  0.83760330  1  0  -0.607693  0  2.054201  0  0  -0.568428  0  2.282074  0  0  -0.583082  0  2.270345  0  0  -0.461005  -0.557407  0  2.290152  0
O  O45  1  0.09967458  0.16842052  0.16240073  1  0  -0.60763  0  2.054224  0  0  -0.56836  0  2.282116  0  0  -0.583025  0  2.270377  0  0  -0.460969  -0.557343  0  2.290195  0
O  O46  1  0.90435810  0.20093733  0.87186745  1  0  -0.624042  0  1.941223  0  0  -0.567556  0  2.159887  0  0  -0.591434  0  2.150368  0  0  -0.313729  -0.551077  0  2.166606  0
O  O47  1  0.09563766  0.79906486  0.12813378  1  0  -0.624133  0  1.94111  0  0  -0.567618  0  2.159836  0  0  -0.591499  0  2.150317  0  0  -0.313747  -0.551138  0  2.166555  0
O  O48  1  0.54699282  0.21594997  0.76442347  1  0  -0.678857  0  2.033013  0  0  -0.61237  0  2.250716  0  0  -0.638723  0  2.238935  0  0  -0.354839  -0.59414  0  2.25818  0
O  O49  1  0.45300267  0.78404759  0.23557298  1  0  -0.678831  0  2.032973  0  0  -0.612298  0  2.250698  0  0  -0.638651  0  2.238917  0  0  -0.354801  -0.594067  0  2.258162  0
O  O50  1  0.59516053  0.50248964  0.71987081  1  0  -0.853453  0  1.872327  0  0  -0.798923  0  2.045965  0  0  -0.81855  0  2.01245  0  0  -0.613182  -0.78522  0  2.06871  0
O  O51  1  0.40483510  0.49751023  0.28012804  1  0  -0.853434  0  1.872349  0  0  -0.79891  0  2.045988  0  0  -0.818536  0  2.012477  0  0  -0.613189  -0.785207  0  2.068732  0
O  O52  1  0.77115171  0.45704634  0.04885749  1  0  -0.903147  0  1.80776  0  0  -0.86184  0  1.976483  0  0  -0.87873  0  1.945152  0  0  -0.718294  -0.849589  0  1.998867  0
O  O53  1  0.22884686  0.54294660  0.95113559  1  0  -0.903264  0  1.807618  0  0  -0.861905  0  1.976362  0  0  -0.878794  0  1.945031  0  0  -0.718358  -0.849656  0  1.998749  0
