# generated using pymatgen
data_CuH12C16(N5O)2
_symmetry_space_group_name_H-M   'P 1'
_cell_length_a   6.20288641
_cell_length_b   7.42198588
_cell_length_c   11.41313452
_cell_angle_alpha   99.42720788
_cell_angle_beta   91.28724910
_cell_angle_gamma   102.31956129
_symmetry_Int_Tables_number   1
_chemical_formula_structural   CuH12C16(N5O)2
_chemical_formula_sum   'Cu1 H12 C16 N10 O2'
_cell_volume   505.50339166
_cell_formula_units_Z   1
loop_
 _symmetry_equiv_pos_site_id
 _symmetry_equiv_pos_as_xyz
  1  'x, y, z'
loop_
 _atom_site_type_symbol
 _atom_site_label
 _atom_site_symmetry_multiplicity
 _atom_site_fract_x
 _atom_site_fract_y
 _atom_site_fract_z
 _atom_site_occupancy
 _atom_site_hle17_ddec_charge
 _atom_site_hle17_ddec_spin_density
 _atom_site_hle17_ddec_sum_bond_order
 _atom_site_hle17_magmom
 _atom_site_hse06_10hf_ddec_charge
 _atom_site_hse06_10hf_ddec_spin_density
 _atom_site_hse06_10hf_ddec_sum_bond_order
 _atom_site_hse06_10hf_magmom
 _atom_site_hse06_ddec_charge
 _atom_site_hse06_ddec_spin_density
 _atom_site_hse06_ddec_sum_bond_order
 _atom_site_hse06_magmom
 _atom_site_pbe_cm5_charge
 _atom_site_pbe_ddec_charge
 _atom_site_pbe_ddec_spin_density
 _atom_site_pbe_ddec_sum_bond_order
 _atom_site_pbe_magmom
Cu  Cu0  1  0.99996774  0.99999628  0.99999302  1  0.891348  0.714617  1.959628  0.523  0.87101  0.786773  2.359727  0.635  0.948232  0.849224  2.296976  0.713  0.826283  0.824535  0.741861  2.401863  0.581
H  H1  1  0.04477295  0.70914015  0.40299670  1  0.334936  4.8e-05  0.877938  0.0  0.325945  4.6e-05  0.925335  0.0  0.332603  3e-05  0.920714  0.0  0.318209  0.321221  5.8e-05  0.928697  0.0
H  H2  1  0.95522367  0.29084367  0.59698206  1  0.334995  5e-05  0.877844  0.0  0.325948  4.5e-05  0.925323  0.0  0.332605  3e-05  0.920706  0.0  0.318201  0.321219  5.8e-05  0.928683  0.0
H  H3  1  0.25705849  0.65366918  0.31646588  1  0.335237  -0.000114  0.921842  0.0  0.312271  -7.1e-05  0.99364  0.0  0.320054  -6.7e-05  0.987609  0.0  0.300421  0.306752  -8e-05  0.997937  0.0
H  H4  1  0.74297697  0.34632030  0.68353572  1  0.335073  -0.000115  0.921945  0.0  0.312187  -7.1e-05  0.993678  0.0  0.319969  -6.7e-05  0.987653  0.0  0.300414  0.306665  -8e-05  0.997964  0.0
H  H5  1  0.78764367  0.81105444  0.76228149  1  0.084198  0.001276  0.965504  0.002  0.091994  0.000977  1.029565  0.002  0.092792  0.000659  1.02898  0.001  0.119835  0.091107  0.00125  1.030503  0.002
H  H6  1  0.21235543  0.18890698  0.23770450  1  0.08429  0.001276  0.965396  0.002  0.092069  0.000977  1.029432  0.002  0.092876  0.000659  1.028827  0.001  0.119913  0.091188  0.001251  1.030363  0.002
H  H7  1  0.89995436  0.71689588  0.56015592  1  0.11828  0.000521  0.963453  0.0  0.126794  0.000523  1.025855  0.001  0.130383  0.000364  1.02375  0.0  0.111436  0.124223  0.000664  1.027428  0.001
H  H8  1  0.10008582  0.28308105  0.43983384  1  0.118326  0.000521  0.963557  0.0  0.126777  0.000523  1.026028  0.001  0.130363  0.000364  1.023929  0.0  0.111428  0.124212  0.000664  1.027603  0.001
H  H9  1  0.57762128  0.95244494  0.69301101  1  0.108231  0.000503  0.968818  0.001  0.113662  0.000532  1.037455  0.001  0.116446  0.000365  1.037005  0.0  0.10954  0.11146  0.000689  1.038338  0.001
H  H10  1  0.42240156  0.04755001  0.30702788  1  0.108226  0.000507  0.968857  0.001  0.113666  0.000532  1.037475  0.001  0.116439  0.000365  1.037018  0.0  0.109519  0.111477  0.000689  1.038319  0.001
H  H11  1  0.43154483  0.03401255  0.89507632  1  0.100892  0.001306  0.968121  0.002  0.104712  0.00105  1.038468  0.002  0.105688  0.000714  1.037251  0.001  0.120146  0.103905  0.001348  1.039398  0.002
H  H12  1  0.56842754  0.96596271  0.10493812  1  0.100898  0.001308  0.968122  0.002  0.104648  0.001049  1.038545  0.002  0.10562  0.000714  1.037336  0.001  0.120155  0.10385  0.001347  1.039485  0.002
C  C13  1  0.20563125  0.70449812  0.09174240  1  0.535094  -0.01502  3.947911  -0.007  0.508219  0.000146  4.228782  0.006  0.538651  -0.001828  4.236916  0.004  0.324668  0.487496  0.001601  4.222956  0.007
C  C14  1  0.79436909  0.29549967  0.90824842  1  0.535076  -0.015024  3.947591  -0.007  0.508222  0.000146  4.228478  0.006  0.538659  -0.001845  4.23661  0.004  0.324634  0.487496  0.0016  4.222653  0.007
C  C15  1  0.30593352  0.42056644  0.08317918  1  0.47433  -0.013235  3.983343  -0.01  0.445506  -0.002554  4.279893  -0.002  0.469833  -0.002454  4.291851  -0.002  0.287465  0.428959  -0.002642  4.271312  -0.002
C  C16  1  0.69406779  0.57946631  0.91682333  1  0.474164  -0.013226  3.98321  -0.01  0.445357  -0.002549  4.279741  -0.002  0.469681  -0.002479  4.291686  -0.002  0.2875  0.428816  -0.002639  4.271167  -0.002
C  C17  1  0.96114263  0.83971316  0.74275788  1  0.126273  -0.013484  3.693101  -0.009  0.098091  -0.002714  3.949074  -0.002  0.106527  -0.004842  3.968589  -0.003  0.048226  0.092458  -0.001139  3.936358  0.0
C  C18  1  0.03885986  0.16029304  0.25723387  1  0.126172  -0.013477  3.693082  -0.009  0.09809  -0.002714  3.948992  -0.002  0.10653  -0.004836  3.968508  -0.003  0.048164  0.092452  -0.001138  3.936293  0.0
C  C19  1  0.02847752  0.78625409  0.62932444  1  -0.134223  0.012423  3.699474  0.013  -0.157968  0.004545  3.947787  0.005  -0.163427  0.004114  3.967047  0.005  -0.080105  -0.154151  0.004907  3.934829  0.006
C  C20  1  0.97154150  0.21376613  0.37067247  1  -0.134164  0.012417  3.699714  0.013  -0.157969  0.004547  3.947942  0.005  -0.163443  0.004113  3.96721  0.005  -0.080093  -0.154159  0.004909  3.934998  0.006
C  C21  1  0.25468536  0.82374930  0.61021452  1  -0.00143  -0.015348  3.716681  -0.01  0.018114  -0.005307  3.943456  -0.003  0.017555  -0.006032  3.963436  -0.004  0.008509  0.018212  -0.004744  3.930249  -0.003
C  C22  1  0.74533716  0.17629050  0.38979243  1  -0.001619  -0.015323  3.71656  -0.01  0.018244  -0.005307  3.943073  -0.003  0.01771  -0.006029  3.963016  -0.004  0.008615  0.018347  -0.004744  3.929873  -0.003
C  C23  1  0.40167315  0.91723593  0.70627254  1  -0.106617  0.012758  3.685222  0.014  -0.129068  0.004641  3.929767  0.006  -0.134968  0.004186  3.9503  0.005  -0.072793  -0.125362  0.004982  3.916489  0.006
C  C24  1  0.59833403  0.08279402  0.29373934  1  -0.106761  0.012736  3.684996  0.014  -0.129294  0.004637  3.929495  0.006  -0.13518  0.004182  3.949997  0.005  -0.072866  -0.125581  0.004981  3.916237  0.006
C  C25  1  0.32263066  0.96432503  0.81751205  1  0.136726  -0.01388  3.654148  -0.009  0.108624  -0.00318  3.906552  -0.002  0.116603  -0.005292  3.926685  -0.004  0.054129  0.103403  -0.001609  3.893329  -0.001
C  C26  1  0.67734946  0.03568104  0.18249703  1  0.136733  -0.013881  3.653867  -0.009  0.108714  -0.003179  3.906276  -0.002  0.116684  -0.005287  3.926414  -0.003  0.054181  0.103477  -0.00161  3.893082  -0.001
C  C27  1  0.35050779  0.76278194  0.49363152  1  0.608739  0.000664  3.863558  0.001  0.566279  7.7e-05  4.148544  0.0  0.595025  2.7e-05  4.146545  0.0  0.240068  0.546899  0.000166  4.149259  0.0
C  C28  1  0.64948044  0.23723118  0.50636788  1  0.608915  0.000652  3.863702  0.001  0.566156  7.6e-05  4.149031  0.0  0.594898  2.7e-05  4.147028  0.0  0.240011  0.54677  0.000166  4.14975  0.0
N  N29  1  0.16602827  0.83978209  0.06277171  1  -0.59462  0.063352  3.004577  0.078  -0.579657  0.041364  3.324803  0.054  -0.610794  0.034555  3.326703  0.047  -0.41423  -0.559824  0.045753  3.324454  0.057
N  N30  1  0.83396404  0.16020308  0.93721943  1  -0.59479  0.063367  3.004739  0.078  -0.579877  0.041361  3.32508  0.054  -0.611018  0.034594  3.326973  0.048  -0.414374  -0.560036  0.045767  3.324721  0.057
N  N31  1  0.25436443  0.57170508  0.13966516  1  -0.465085  0.015032  3.306247  0.02  -0.411393  0.002301  3.555861  0.004  -0.434982  0.000597  3.557848  0.002  -0.307245  -0.394521  0.004347  3.553528  0.006
N  N32  1  0.74559609  0.42828136  0.86033638  1  -0.465051  0.01506  3.305527  0.02  -0.411399  0.002329  3.555212  0.004  -0.434986  0.000555  3.557202  0.002  -0.307258  -0.394546  0.004346  3.55288  0.006
N  N33  1  0.34723445  0.27546175  0.04382580  1  -0.57096  0.014581  2.67323  0.018  -0.56691  0.000995  2.943576  0.003  -0.586054  -0.000146  2.950185  0.002  -0.367318  -0.553843  0.002596  2.939205  0.004
N  N34  1  0.65277374  0.72454021  0.95619007  1  -0.570602  0.01454  2.673688  0.018  -0.566563  0.000977  2.944064  0.003  -0.585697  -0.000121  2.95066  0.002  -0.367216  -0.553507  0.00259  2.939703  0.004
N  N35  1  0.10523175  0.92542014  0.83479221  1  -0.278933  0.093357  3.323252  0.119  -0.228361  0.063979  3.604226  0.089  -0.260482  0.051328  3.630577  0.077  -0.331719  -0.208419  0.071546  3.58776  0.095
N  N36  1  0.89475544  0.07458877  0.16520934  1  -0.278848  0.093363  3.322979  0.119  -0.228375  0.063977  3.603989  0.089  -0.260496  0.051323  3.630347  0.077  -0.331786  -0.208434  0.071541  3.587536  0.095
N  N37  1  0.20564972  0.70235452  0.39793064  1  -0.687024  -0.000689  3.111164  -0.001  -0.649193  -0.00021  3.338982  0.0  -0.672464  -0.000286  3.335168  0.0  -0.564898  -0.632984  -0.000207  3.341414  0.0
N  N38  1  0.79435616  0.29765868  0.60206102  1  -0.686872  -0.000678  3.11123  -0.001  -0.648993  -0.000207  3.339094  0.0  -0.672267  -0.000287  3.335289  0.0  -0.564806  -0.632776  -0.000207  3.341513  0.0
O  O39  1  0.55123235  0.76613537  0.48911336  1  -0.569719  -0.001373  1.857807  -0.001  -0.533124  -0.000532  2.062685  0.0  -0.553067  -0.000597  2.056333  -0.001  -0.317458  -0.519211  -0.000419  2.066726  0.0
O  O40  1  0.44874917  0.23385817  0.51087684  1  -0.569834  -0.001371  1.857802  -0.001  -0.533154  -0.00053  2.062808  0.0  -0.553097  -0.000596  2.056455  -0.001  -0.317502  -0.519242  -0.000419  2.066854  0.0
