# generated using pymatgen
data_ZnH24C44(NF)6
_symmetry_space_group_name_H-M   'P 1'
_cell_length_a   9.17391760
_cell_length_b   19.43017716
_cell_length_c   19.43062871
_cell_angle_alpha   117.57007173
_cell_angle_beta   99.05178357
_cell_angle_gamma   99.05545043
_symmetry_Int_Tables_number   1
_chemical_formula_structural   ZnH24C44(NF)6
_chemical_formula_sum   'Zn3 H72 C132 N18 F18'
_cell_volume   2925.27717567
_cell_formula_units_Z   3
loop_
 _symmetry_equiv_pos_site_id
 _symmetry_equiv_pos_as_xyz
  1  'x, y, z'
loop_
 _atom_site_type_symbol
 _atom_site_label
 _atom_site_symmetry_multiplicity
 _atom_site_fract_x
 _atom_site_fract_y
 _atom_site_fract_z
 _atom_site_occupancy
 _atom_site_pbe_bader_charge
 _atom_site_pbe_bader_spin_density
 _atom_site_pbe_cm5_charge
 _atom_site_pbe_ddec_charge
 _atom_site_pbe_ddec_spin_density
 _atom_site_pbe_ddec_sum_bond_order
 _atom_site_pbe_magmom
Zn  Zn0  1  0.00000015  0.49999990  0.99999986  1  1.245162  0  0.69645  0.596139  0  2.600512  0
Zn  Zn1  1  0.50000007  0.50000001  0.49999974  1  1.245984  0  0.69617  0.59657  0  2.599849  0
Zn  Zn2  1  0.00000008  0.99999993  0.50000031  1  1.246572  0  0.696216  0.595666  0  2.601542  0
H  H3  1  0.68020894  0.34831000  0.11869153  1  0.065069  0  0.101187  0.119672  0  1.02149  0
H  H4  1  0.33192766  0.77037779  0.65169298  1  0.111335  0  0.101121  0.11982  0  1.022079  0
H  H5  1  0.56149289  0.88128241  0.22959785  1  0.097316  0  0.101028  0.118958  0  1.021744  0
H  H6  1  0.31979261  0.65169061  0.88130884  1  0.065055  0  0.10117  0.119652  0  1.021489  0
H  H7  1  0.66807168  0.22962282  0.34830723  1  0.111354  0  0.101129  0.119837  0  1.022069  0
H  H8  1  0.43850724  0.11871760  0.77040214  1  0.097318  0  0.101023  0.118952  0  1.021737  0
H  H9  1  0.96574097  0.40480811  0.21354704  1  0.084236  0  0.098831  0.117961  0  1.03853  0
H  H10  1  0.56089896  0.80878081  0.59518007  1  0.109892  0  0.0989  0.118513  0  1.038564  0
H  H11  1  0.75213740  0.78643667  0.19126716  1  0.10135  0  0.098674  0.117708  0  1.03947  0
H  H12  1  0.03426057  0.59519251  0.78645333  1  0.084229  0  0.09882  0.117934  0  1.038559  0
H  H13  1  0.43909977  0.19121860  0.40481953  1  0.109884  0  0.098893  0.118518  0  1.038536  0
H  H14  1  0.24786274  0.21356334  0.80873334  1  0.101345  0  0.09868  0.117714  0  1.03946  0
H  H15  1  0.49103039  0.58487763  0.23410286  1  0.080371  0  0.100888  0.119889  0  1.018191  0
H  H16  1  0.90614799  0.64924207  0.41513471  1  0.063369  0  0.100896  0.120111  0  1.017882  0
H  H17  1  0.25685525  0.76588974  0.35078690  1  0.079452  0  0.100643  0.119553  0  1.01895  0
H  H18  1  0.50896945  0.41512178  0.76589683  1  0.080411  0  0.100891  0.119888  0  1.018174  0
H  H19  1  0.09385215  0.35075794  0.58486476  1  0.063357  0  0.100916  0.120132  0  1.017853  0
H  H20  1  0.74314489  0.23411027  0.64921361  1  0.079446  0  0.10064  0.11955  0  1.018954  0
H  H21  1  0.58622000  0.65130333  0.14901287  1  0.109619  0  0.096822  0.10954  0  1.060742  0
H  H22  1  0.93491423  0.49774146  0.34870797  1  0.080286  0  0.09688  0.109768  0  1.058999  0
H  H23  1  0.43725201  0.85098331  0.50227676  1  0.102031  0  0.096653  0.108979  0  1.060895  0
H  H24  1  0.41378124  0.34869668  0.85098669  1  0.109645  0  0.096776  0.109454  0  1.060773  0
H  H25  1  0.06508591  0.50225856  0.65129202  1  0.080286  0  0.096886  0.109791  0  1.058959  0
H  H26  1  0.56274783  0.14901610  0.49772345  1  0.102037  0  0.096657  0.10898  0  1.060881  0
H  H27  1  0.37279612  0.40690160  0.18524833  1  0.093108  0  0.107124  0.122281  0  0.993347  0
H  H28  1  0.96589463  0.77835484  0.59302370  1  0.084282  0  0.107122  0.122282  0  0.993103  0
H  H29  1  0.18744637  0.81468998  0.22162565  1  0.094998  0  0.107381  0.123048  0  0.993326  0
H  H30  1  0.62720292  0.59309842  0.81475158  1  0.093113  0  0.107137  0.122298  0  0.993322  0
H  H31  1  0.03410471  0.22164577  0.40697652  1  0.084291  0  0.107113  0.122262  0  0.993109  0
H  H32  1  0.81255266  0.18531003  0.77837375  1  0.095005  0  0.10738  0.123047  0  0.993349  0
H  H33  1  0.25021781  0.57574705  0.43809403  1  0.078238  0  0.113154  0.0843  0  1.00681  0
H  H34  1  0.67441838  0.86238123  0.42423214  1  0.093589  0  0.112934  0.08388  0  1.007573  0
H  H35  1  0.81204699  0.56187646  0.13766856  1  0.095065  0  0.113221  0.084417  0  1.006514  0
H  H36  1  0.74978314  0.42425236  0.56190523  1  0.078213  0  0.113152  0.08431  0  1.006829  0
H  H37  1  0.32558035  0.13761818  0.57576747  1  0.093924  0  0.112947  0.083903  0  1.007578  0
H  H38  1  0.18795204  0.43812355  0.86233135  1  0.095053  0  0.113221  0.084429  0  1.006514  0
H  H39  1  0.47339604  0.40762471  0.31316137  1  0.092226  0  0.110329  0.074611  0  1.029355  0
H  H40  1  0.06576063  0.90554769  0.59231544  1  0.09808  0  0.110829  0.07489  0  1.030307  0
H  H41  1  0.16011480  0.68681324  0.09444467  1  0.087642  0  0.110771  0.075921  0  1.029365  0
H  H42  1  0.52660270  0.59237470  0.68683875  1  0.092207  0  0.11034  0.07463  0  1.029315  0
H  H43  1  0.93423951  0.09445232  0.40768455  1  0.098413  0  0.110834  0.074891  0  1.030335  0
H  H44  1  0.83988534  0.31318678  0.90555532  1  0.087641  0  0.110772  0.075921  0  1.029363  0
H  H45  1  0.13679521  0.58087082  0.31485129  1  0.088371  0  0.107479  0.119253  0  0.994215  0
H  H46  1  0.55592089  0.73398377  0.41910747  1  0.102491  0  0.107047  0.118654  0  0.993071  0
H  H47  1  0.82191518  0.68513342  0.26605085  1  0.041582  0  0.10737  0.11929  0  0.992948  0
H  H48  1  0.86320633  0.41912980  0.68514857  1  0.08837  0  0.107488  0.119255  0  0.994209  0
H  H49  1  0.44407925  0.26601624  0.58089201  1  0.102494  0  0.107032  0.118624  0  0.993083  0
H  H50  1  0.17808466  0.31486599  0.73394885  1  0.041581  0  0.107375  0.119288  0  0.992929  0
H  H51  1  0.58455962  0.23131563  0.95633126  1  0.048618  0  0.105004  0.109633  0  0.987884  0
H  H52  1  0.35335777  0.72509610  0.76875380  1  0.030557  0  0.105053  0.10937  0  0.987316  0
H  H53  1  0.62819729  0.04362028  0.27492533  1  0.057979  0  0.105366  0.110427  0  0.987139  0
H  H54  1  0.41544052  0.76868438  0.04366873  1  0.048632  0  0.105003  0.109648  0  0.987879  0
H  H55  1  0.64664187  0.27490512  0.23124620  1  0.030289  0  0.105035  0.109355  0  0.987279  0
H  H56  1  0.37180285  0.95637973  0.72507466  1  0.057978  0  0.105374  0.110426  0  0.987134  0
H  H57  1  0.33675754  0.14968519  0.94713388  1  0.084238  0  0.1082  0.114706  0  0.984709  0
H  H58  1  0.18707077  0.79749440  0.85033025  1  0.095693  0  0.107976  0.114296  0  0.984302  0
H  H59  1  0.38953074  0.05280696  0.20249374  1  0.090554  0  0.108161  0.11418  0  0.983976  0
H  H60  1  0.66324260  0.85031483  0.05286611  1  0.084246  0  0.108219  0.114737  0  0.984652  0
H  H61  1  0.81292856  0.20250622  0.14966997  1  0.095749  0  0.107976  0.114301  0  0.98431  0
H  H62  1  0.61046940  0.94719305  0.79750573  1  0.090576  0  0.108149  0.114156  0  0.983958  0
H  H63  1  0.14903573  0.35409795  0.00771470  1  0.10622  0  0.103524  0.108733  0  1.040192  0
H  H64  1  0.79503293  0.65361232  0.64588796  1  0.112389  0  0.102931  0.107401  0  1.039744  0
H  H65  1  0.14123277  0.99227909  0.34637756  1  0.116768  0  0.103119  0.107872  0  1.040831  0
H  H66  1  0.85096552  0.64590206  0.99228589  1  0.106211  0  0.103508  0.108718  0  1.040203  0
H  H67  1  0.20496690  0.34638709  0.35411173  1  0.112394  0  0.102922  0.107409  0  1.039752  0
H  H68  1  0.85876627  0.00772093  0.65362286  1  0.116783  0  0.103101  0.107861  0  1.040844  0
H  H69  1  0.39374719  0.43414037  0.01429092  1  0.077207  0  0.10019  0.106232  0  1.037269  0
H  H70  1  0.95975219  0.58015306  0.56590755  1  0.089675  0  0.100678  0.10682  0  1.036505  0
H  H71  1  0.37942038  0.98576369  0.41985984  1  0.08142  0  0.100072  0.105878  0  1.037767  0
H  H72  1  0.60625375  0.56585904  0.98570886  1  0.077187  0  0.100204  0.10626  0  1.037208  0
H  H73  1  0.04024795  0.41984695  0.43409193  1  0.089683  0  0.100679  0.106809  0  1.036493  0
H  H74  1  0.62057835  0.01423572  0.58013977  1  0.081421  0  0.100077  0.105864  0  1.03778  0
C  C75  1  0.78273378  0.40200105  0.04999535  1  0.385796  0  0.08938  0.173849  0  4.051932  0
C  C76  1  0.38081313  0.64802463  0.59802127  1  0.447082  0  0.08885  0.173134  0  4.052019  0
C  C77  1  0.73258153  0.94996970  0.35199478  1  0.40526  0  0.089598  0.17486  0  4.050599  0
C  C78  1  0.21726636  0.59799897  0.95000464  1  0.385808  0  0.089399  0.173914  0  4.05191  0
C  C79  1  0.61918671  0.35197478  0.40197893  1  0.446797  0  0.088907  0.173287  0  4.051893  0
C  C80  1  0.26741891  0.05003092  0.64800499  1  0.405251  0  0.089634  0.1749  0  4.050673  0
C  C81  1  0.78009046  0.38084840  0.11242483  1  -0.067899  0  -0.107518  -0.18651  0  3.980714  0
C  C82  1  0.39925206  0.73159091  0.61917019  1  -0.106184  0  -0.107129  -0.185334  0  3.980611  0
C  C83  1  0.66760999  0.88754973  0.26841049  1  -0.087723  0  -0.106984  -0.184652  0  3.97836  0
C  C84  1  0.21990968  0.61915161  0.88757465  1  -0.067908  0  -0.107514  -0.186517  0  3.98073  0
C  C85  1  0.60074728  0.26840970  0.38083054  1  -0.106184  0  -0.107198  -0.185456  0  3.980697  0
C  C86  1  0.33238985  0.11244968  0.73158869  1  -0.087735  0  -0.107003  -0.18469  0  3.97844  0
C  C87  1  0.92545183  0.41052212  0.16135718  1  -0.071435  0  -0.105755  -0.177015  0  3.96989  0
C  C88  1  0.51489319  0.75087429  0.58946695  1  -0.102293  0  -0.106018  -0.17896  0  3.970008  0
C  C89  1  0.76405312  0.83861217  0.24916655  1  -0.063141  0  -0.105706  -0.177637  0  3.970502  0
C  C90  1  0.07454972  0.58947849  0.83864268  1  -0.071453  0  -0.105701  -0.176914  0  3.969954  0
C  C91  1  0.48510665  0.24912512  0.41053172  1  -0.102466  0  -0.105968  -0.178901  0  3.969982  0
C  C92  1  0.23594812  0.16138784  0.75083353  1  -0.063137  0  -0.105694  -0.177591  0  3.97046  0
C  C93  1  0.01796776  0.45007297  0.12927026  1  0.386724  0  0.090893  0.180572  0  4.044114  0
C  C94  1  0.56794997  0.67923524  0.54991497  1  0.438104  0  0.091222  0.181848  0  4.042885  0
C  C95  1  0.88866587  0.87072276  0.32081342  1  0.416664  0  0.090673  0.180964  0  4.04136  0
C  C96  1  0.98203378  0.54992764  0.87073012  1  0.386709  0  0.090852  0.180489  0  4.044258  0
C  C97  1  0.43204796  0.32076477  0.45008486  1  0.438273  0  0.091266  0.181908  0  4.042939  0
C  C98  1  0.11133567  0.12927785  0.67918696  1  0.416655  0  0.090646  0.180897  0  4.041423  0
C  C99  1  0.17450600  0.49109168  0.16403322  1  0.035025  0  0.000573  -0.079033  0  3.912055  0
C  C100  1  0.68351770  0.67297087  0.50892257  1  0.044021  0  -0.000214  -0.080476  0  3.913814  0
C  C101  1  0.01051309  0.83597804  0.32708983  1  -0.012564  0  0.000254  -0.080234  0  3.910664  0
C  C102  1  0.82549584  0.50890953  0.83596745  1  0.03503  0  0.000603  -0.078938  0  3.911991  0
C  C103  1  0.31648053  0.32702975  0.49107807  1  0.044028  0  -0.000241  -0.080483  0  3.913804  0
C  C104  1  0.98948816  0.16402197  0.67291024  1  -0.012559  0  0.000247  -0.080241  0  3.910696  0
C  C105  1  0.26957158  0.53109926  0.13607136  1  0.478948  0  0.089905  0.182819  0  4.047845  0
C  C106  1  0.73853252  0.60498583  0.46892377  1  0.442825  0  0.090018  0.182987  0  4.051218  0
C  C107  1  0.13352000  0.86394004  0.39506080  1  0.471395  0  0.089233  0.182175  0  4.050909  0
C  C108  1  0.73042917  0.46890196  0.86392872  1  0.478939  0  0.089884  0.182746  0  4.047856  0
C  C109  1  0.26146792  0.39501478  0.53107652  1  0.442826  0  0.090013  0.182995  0  4.051076  0
C  C110  1  0.86648044  0.13606057  0.60493950  1  0.47139  0  0.089212  0.182154  0  4.050917  0
C  C111  1  0.42695408  0.57775770  0.17815784  1  -0.091592  0  -0.109638  -0.190441  0  3.97935  0
C  C112  1  0.84923125  0.60043246  0.42227374  1  -0.076068  0  -0.109881  -0.191256  0  3.982612  0
C  C113  1  0.24875691  0.82182607  0.39959520  1  -0.086652  0  -0.109111  -0.190236  0  3.981623  0
C  C114  1  0.57304747  0.42224292  0.82184253  1  -0.091589  0  -0.109666  -0.190434  0  3.979385  0
C  C115  1  0.15076919  0.39956815  0.57772706  1  -0.076054  0  -0.109874  -0.191243  0  3.982498  0
C  C116  1  0.75124323  0.17817394  0.60040531  1  -0.086772  0  -0.109105  -0.19025  0  3.981633  0
C  C117  1  0.47564659  0.61109874  0.13459723  1  -0.101059  0  -0.108514  -0.186093  0  3.984495  0
C  C118  1  0.86459678  0.52353034  0.38891860  1  -0.056125  0  -0.108707  -0.18644  0  3.983253  0
C  C119  1  0.34112150  0.86539705  0.47648283  1  -0.076923  0  -0.108539  -0.185629  0  3.983441  0
C  C120  1  0.52435495  0.38890187  0.86540314  1  -0.101081  0  -0.108464  -0.186031  0  3.984497  0
C  C121  1  0.13540336  0.47646967  0.61108191  1  -0.05614  0  -0.108691  -0.186418  0  3.983196  0
C  C122  1  0.65887834  0.13460236  0.52351686  1  -0.076799  0  -0.108526  -0.185581  0  3.983401  0
C  C123  1  0.34811732  0.58532185  0.06588791  1  0.42879  0  0.088731  0.175374  0  4.044633  0
C  C124  1  0.76283110  0.48056149  0.41467770  1  0.424544  0  0.090175  0.177131  0  4.041303  0
C  C125  1  0.28237640  0.93414992  0.51946127  1  0.428187  0  0.08955  0.176437  0  4.043337  0
C  C126  1  0.65188312  0.41467877  0.93411187  1  0.428493  0  0.08877  0.175439  0  4.044606  0
C  C127  1  0.23716823  0.51943912  0.58532251  1  0.42455  0  0.090132  0.177039  0  4.041281  0
C  C128  1  0.71762264  0.06585009  0.48053864  1  0.428155  0  0.089522  0.176369  0  4.043332  0
C  C129  1  0.65315258  0.38729118  0.99015304  1  0.030741  0  -0.00221  -0.083643  0  3.926649  0
C  C130  1  0.26595442  0.60287884  0.61272776  1  -0.032193  0  -0.00255  -0.08414  0  3.927225  0
C  C131  1  0.66283726  0.00982037  0.39711886  1  0.005533  0  -0.001917  -0.083734  0  3.927529  0
C  C132  1  0.34684866  0.61270883  0.00984704  1  0.030725  0  -0.002212  -0.083666  0  3.926661  0
C  C133  1  0.73404492  0.39712177  0.38727297  1  -0.031898  0  -0.002523  -0.084157  0  3.927187  0
C  C134  1  0.33716398  0.99017965  0.60288122  1  0.005531  0  -0.001909  -0.083735  0  3.927511  0
C  C135  1  0.24516462  0.49348358  0.23974359  1  -0.065918  0  0.013204  0.128706  0  4.006369  0
C  C136  1  0.75174757  0.74624931  0.50643848  1  -0.024988  0  0.0126  0.128355  0  4.004638  0
C  C137  1  0.00545051  0.76021484  0.25377564  1  -0.023943  0  0.013034  0.129408  0  4.004829  0
C  C138  1  0.75483551  0.50651643  0.76025588  1  -0.066034  0  0.013204  0.128689  0  4.006376  0
C  C139  1  0.24825116  0.25375010  0.49356112  1  -0.025011  0  0.012554  0.128257  0  4.00483  0
C  C140  1  0.99454963  0.23978518  0.74622435  1  -0.023923  0  0.013019  0.129395  0  4.004828  0
C  C141  1  0.34403571  0.44569801  0.24031071  1  0.000425  0  -0.083477  -0.173056  0  3.93471  0
C  C142  1  0.89836643  0.79462096  0.55420976  1  0.011368  0  -0.083511  -0.173091  0  3.933092  0
C  C143  1  0.10361138  0.75964416  0.20536693  1  0.006281  0  -0.083453  -0.173655  0  3.936527  0
C  C144  1  0.65596443  0.55430200  0.75968877  1  0.000581  0  -0.083501  -0.1731  0  3.934662  0
C  C145  1  0.10163260  0.20537905  0.44579066  1  0.011349  0  -0.083456  -0.172994  0  3.933077  0
C  C146  1  0.89638765  0.24035585  0.79463350  1  0.006215  0  -0.083439  -0.173665  0  3.936529  0
C  C147  1  0.27406958  0.53887942  0.38068328  1  0.435637  0  0.043379  0.094109  0  3.966851  0
C  C148  1  0.73520205  0.84181246  0.46105458  1  0.522956  0  0.043573  0.094418  0  3.966299  0
C  C149  1  0.89333291  0.61928299  0.15821008  1  0.482544  0  0.043565  0.094329  0  3.964277  0
C  C150  1  0.72593056  0.46112059  0.61931569  1  0.435601  0  0.043455  0.094196  0  3.966857  0
C  C151  1  0.26479668  0.15818695  0.53894452  1  0.522622  0  0.043583  0.094395  0  3.966259  0
C  C152  1  0.10666723  0.38071702  0.84179042  1  0.482744  0  0.043533  0.094264  0  3.964248  0
C  C153  1  0.39966844  0.44594175  0.31130391  1  0.486173  0  0.045033  0.101173  0  3.955967  0
C  C154  1  0.95373547  0.86538038  0.55399173  1  0.478048  0  0.044563  0.100393  0  3.957381  0
C  C155  1  0.08826049  0.68867173  0.13463003  1  0.491274  0  0.044115  0.099172  0  3.957984  0
C  C156  1  0.60033029  0.55405766  0.68869519  1  0.486185  0  0.045049  0.10121  0  3.95593  0
C  C157  1  0.04626327  0.13461903  0.44600788  1  0.47769  0  0.044534  0.100355  0  3.957374  0
C  C158  1  0.91173964  0.31132828  0.86536996  1  0.491465  0  0.044105  0.099178  0  3.957997  0
C  C159  1  0.21155855  0.54177456  0.31226435  1  0.039129  0  -0.088188  -0.192347  0  3.958787  0
C  C160  1  0.66985479  0.77047546  0.45815527  1  -0.115825  0  -0.086824  -0.19072  0  3.955325  0
C  C161  1  0.89928905  0.68772016  0.22954399  1  -0.021137  0  -0.087838  -0.192979  0  3.955231  0
C  C162  1  0.78844159  0.45822545  0.68773512  1  0.038793  0  -0.088205  -0.192355  0  3.958721  0
C  C163  1  0.33014425  0.22952456  0.54184412  1  -0.115766  0  -0.086814  -0.190684  0  3.955266  0
C  C164  1  0.10071108  0.31227985  0.77045600  1  -0.021309  0  -0.087829  -0.192935  0  3.955187  0
C  C165  1  0.50591782  0.33822720  0.98533631  1  0.001502  0  -0.001395  0.091472  0  3.998055  0
C  C166  1  0.16785949  0.64712732  0.66181781  1  0.008274  0  -0.001738  0.0911  0  3.998716  0
C  C167  1  0.52050331  0.01465442  0.35286844  1  0.009966  0  -0.002298  0.089755  0  3.999832  0
C  C168  1  0.49408312  0.66177221  0.01466347  1  0.001478  0  -0.001336  0.091539  0  3.998041  0
C  C169  1  0.83214065  0.35287269  0.33818270  1  0.008262  0  -0.001732  0.091105  0  3.998703  0
C  C170  1  0.47949653  0.98534499  0.64713126  1  0.00997  0  -0.002306  0.089712  0  3.99979  0
C  C171  1  0.48856958  0.25799531  0.96733495  1  -0.03416  0  -0.087343  -0.129561  0  3.962107  0
C  C172  1  0.23065436  0.70938730  0.74204204  1  -0.018675  0  -0.086749  -0.127762  0  3.95876  0
C  C173  1  0.52117624  0.03261102  0.29061199  1  -0.044352  0  -0.087006  -0.130031  0  3.960364  0
C  C174  1  0.51143136  0.74200410  0.03266482  1  -0.034149  0  -0.087399  -0.129677  0  3.962117  0
C  C175  1  0.76934608  0.29061332  0.25795877  1  -0.018401  0  -0.086748  -0.12776  0  3.958712  0
C  C176  1  0.47882360  0.96738839  0.70938770  1  -0.044354  0  -0.08701  -0.130002  0  3.960364  0
C  C177  1  0.35007955  0.21222662  0.96242933  1  -0.007691  0  -0.085234  -0.084139  0  3.993001  0
C  C178  1  0.13789539  0.75024358  0.78779100  1  0.032169  0  -0.085869  -0.085452  0  3.98968  0
C  C179  1  0.38754143  0.03750754  0.24974949  1  0.007699  0  -0.085718  -0.08328  0  3.989785  0
C  C180  1  0.64992029  0.78777279  0.03757036  1  -0.007814  0  -0.085223  -0.084111  0  3.992858  0
C  C181  1  0.86210365  0.24975643  0.21220891  1  0.032102  0  -0.085862  -0.085473  0  3.989737  0
C  C182  1  0.61245841  0.96249187  0.75025021  1  0.007679  0  -0.085708  -0.08327  0  3.989775  0
C  C183  1  0.22721216  0.24674639  0.97660644  1  -0.037561  0  -0.033732  -0.109693  0  4.037001  0
C  C184  1  0.98051445  0.72989610  0.75325087  1  -0.089182  0  -0.033368  -0.109091  0  4.036128  0
C  C185  1  0.25050251  0.02335105  0.27010382  1  -0.031426  0  -0.033999  -0.111284  0  4.037962  0
C  C186  1  0.77278938  0.75325423  0.02339445  1  -0.037573  0  -0.033756  -0.109743  0  4.03701  0
C  C187  1  0.01948318  0.27010331  0.24674866  1  -0.089127  0  -0.03334  -0.109016  0  4.036129  0
C  C188  1  0.74949733  0.97664836  0.72989535  1  -0.031463  0  -0.034012  -0.111243  0  4.037904  0
C  C189  1  0.07488497  0.19650846  0.96686789  1  1.659347  0  0.29764  0.681641  0  4.007127  0
C  C190  1  0.87836873  0.77035758  0.80346894  1  1.652595  0  0.297417  0.681526  0  4.008422  0
C  C191  1  0.10798718  0.03309255  0.22960944  1  1.656934  0  0.297032  0.6824  0  4.005592  0
C  C192  1  0.92511737  0.80349155  0.03313279  1  1.659378  0  0.297603  0.681671  0  4.007057  0
C  C193  1  0.12163060  0.22964304  0.19653178  1  1.652553  0  0.297373  0.681488  0  4.008405  0
C  C194  1  0.89201266  0.96690686  0.77039025  1  1.656913  0  0.296999  0.68226  0  4.00576  0
C  C195  1  0.24347710  0.32672552  0.99560055  1  -0.008664  0  -0.08803  -0.085238  0  3.98022  0
C  C196  1  0.91686734  0.66888061  0.67327864  1  0.003866  0  -0.087452  -0.082906  0  3.977075  0
C  C197  1  0.24779632  0.00441298  0.33113248  1  -0.052985  0  -0.086894  -0.083071  0  3.978742  0
C  C198  1  0.75652444  0.67327510  0.00440034  1  -0.00853  0  -0.088029  -0.085232  0  3.980221  0
C  C199  1  0.08313169  0.33111941  0.32672127  1  0.003885  0  -0.087455  -0.082976  0  3.977142  0
C  C200  1  0.75220242  0.99558643  0.66886713  1  -0.052976  0  -0.086891  -0.083087  0  3.978737  0
C  C201  1  0.38156127  0.37177149  0.99931652  1  -0.043929  0  -0.087278  -0.124196  0  3.942595  0
C  C202  1  0.00996770  0.62755184  0.62826095  1  -0.066047  0  -0.08814  -0.126155  0  3.941539  0
C  C203  1  0.38219604  0.00073265  0.37247474  1  -0.045381  0  -0.087486  -0.123772  0  3.942033  0
C  C204  1  0.61844028  0.62822913  0.00068385  1  -0.043897  0  -0.087272  -0.124193  0  3.942515  0
C  C205  1  0.99003133  0.37244818  0.37173896  1  -0.06606  0  -0.08813  -0.126096  0  3.941524  0
C  C206  1  0.61780520  0.99926736  0.62752534  1  -0.04539  0  -0.087469  -0.123706  0  3.942042  0
N  N207  1  0.92908892  0.44248653  0.06110342  1  -1.179619  0  -0.36253  -0.357433  0  3.454368  0
N  N208  1  0.48668151  0.61865915  0.55751648  1  -1.213326  0  -0.361614  -0.35666  0  3.455061  0
N  N209  1  0.86787904  0.93887928  0.38137924  1  -1.211755  0  -0.362364  -0.357928  0  3.453126  0
N  N210  1  0.07091232  0.55751349  0.93889614  1  -1.179604  0  -0.362537  -0.357467  0  3.454463  0
N  N211  1  0.51331832  0.38134026  0.44248424  1  -1.2133  0  -0.361679  -0.356792  0  3.45521  0
N  N212  1  0.13212361  0.06112133  0.61862071  1  -1.21175  0  -0.362378  -0.357936  0  3.45322  0
N  N213  1  0.22633441  0.53570935  0.06775996  1  -1.206907  0  -0.360618  -0.355476  0  3.443693  0
N  N214  1  0.69067683  0.53207029  0.46432340  1  -1.212182  0  -0.361245  -0.356036  0  3.44118  0
N  N215  1  0.15868482  0.93228138  0.46798515  1  -1.208282  0  -0.360877  -0.355039  0  3.442615  0
N  N216  1  0.77366633  0.46429186  0.93224064  1  -1.206614  0  -0.36063  -0.35549  0  3.443666  0
N  N217  1  0.30932361  0.46793033  0.53567690  1  -1.212177  0  -0.361237  -0.356019  0  3.441108  0
N  N218  1  0.84131673  0.06771923  0.53201523  1  -1.208241  0  -0.360844  -0.35498  0  3.442565  0
N  N219  1  0.36527325  0.49115409  0.38035165  1  -1.226394  0  -0.312896  -0.232069  0  3.474333  0
N  N220  1  0.87409860  0.88920747  0.50879109  1  -1.231136  0  -0.31325  -0.231756  0  3.475643  0
N  N221  1  0.98481326  0.61961862  0.11079681  1  -1.223793  0  -0.312881  -0.231268  0  3.474931  0
N  N222  1  0.63472548  0.50884532  0.61964796  1  -1.226033  0  -0.312973  -0.232205  0  3.474468  0
N  N223  1  0.12590154  0.11079254  0.49120891  1  -1.231158  0  -0.313243  -0.231713  0  3.475635  0
N  N224  1  0.01518688  0.38038139  0.88920370  1  -1.223955  0  -0.312862  -0.231244  0  3.474898  0
F  F225  1  0.08847443  0.13785849  0.98532588  1  -0.611221  0  -0.107642  -0.214812  0  1.32675  0
F  F226  1  0.95057494  0.84746266  0.86210849  1  -0.612291  0  -0.107506  -0.214967  0  1.326791  0
F  F227  1  0.10315683  0.01467307  0.15253340  1  -0.617373  0  -0.106983  -0.214639  0  1.327856  0
F  F228  1  0.91152431  0.86214093  0.01467373  1  -0.611248  0  -0.107663  -0.214848  0  1.326725  0
F  F229  1  0.04942520  0.15253735  0.13789202  1  -0.612274  0  -0.107502  -0.214971  0  1.326803  0
F  F230  1  0.89684190  0.98532635  0.84746570  1  -0.617366  0  -0.106972  -0.214597  0  1.327886  0
F  F231  1  0.98614110  0.15820735  0.88860351  1  -0.620576  0  -0.117753  -0.235977  0  1.327808  0
F  F232  1  0.82798964  0.73037661  0.84178358  1  -0.621668  0  -0.117702  -0.236137  0  1.327654  0
F  F233  1  0.09753184  0.11137438  0.26961906  1  -0.618435  0  -0.117902  -0.236506  0  1.326909  0
F  F234  1  0.01386125  0.84179266  0.11139665  1  -0.620596  0  -0.117716  -0.235957  0  1.327777  0
F  F235  1  0.17200970  0.26962401  0.15821612  1  -0.621676  0  -0.117714  -0.236151  0  1.327617  0
F  F236  1  0.90246770  0.88862443  0.73038084  1  -0.618431  0  -0.117842  -0.236419  0  1.326884  0
F  F237  1  0.98996447  0.24112002  0.01284232  1  -0.624214  0  -0.109868  -0.218017  0  1.31782  0
F  F238  1  0.74886008  0.77168258  0.75885606  1  -0.622783  0  -0.109474  -0.21742  0  1.318802  0
F  F239  1  0.97709934  0.98710726  0.22824461  1  -0.624341  0  -0.109682  -0.218069  0  1.31685  0
F  F240  1  0.01003597  0.75888060  0.98715797  1  -0.624217  0  -0.109855  -0.218012  0  1.31783  0
F  F241  1  0.25113956  0.22831863  0.24114445  1  -0.622789  0  -0.109455  -0.217402  0  1.31881  0
F  F242  1  0.02289939  0.01289215  0.77175500  1  -0.624321  0  -0.109711  -0.218073  0  1.316961  0
