# generated using pymatgen
data_ZnH10C15(NO3)2
_symmetry_space_group_name_H-M   'P 1'
_cell_length_a   8.49333986
_cell_length_b   10.09739581
_cell_length_c   18.43400000
_cell_angle_alpha   88.05049751
_cell_angle_beta   85.36043265
_cell_angle_gamma   65.12926204
_symmetry_Int_Tables_number   1
_chemical_formula_structural   ZnH10C15(NO3)2
_chemical_formula_sum   'Zn4 H40 C60 N8 O24'
_cell_volume   1429.59594830
_cell_formula_units_Z   4
loop_
 _symmetry_equiv_pos_site_id
 _symmetry_equiv_pos_as_xyz
  1  'x, y, z'
loop_
 _atom_site_type_symbol
 _atom_site_label
 _atom_site_symmetry_multiplicity
 _atom_site_fract_x
 _atom_site_fract_y
 _atom_site_fract_z
 _atom_site_occupancy
 _atom_site_hle17_bader_spin_density
 _atom_site_hle17_ddec_charge
 _atom_site_hle17_ddec_spin_density
 _atom_site_hle17_ddec_sum_bond_order
 _atom_site_hle17_magmom
 _atom_site_hse06_10hf_bader_spin_density
 _atom_site_hse06_10hf_ddec_charge
 _atom_site_hse06_10hf_ddec_spin_density
 _atom_site_hse06_10hf_ddec_sum_bond_order
 _atom_site_hse06_10hf_magmom
 _atom_site_hse06_bader_spin_density
 _atom_site_hse06_ddec_charge
 _atom_site_hse06_ddec_spin_density
 _atom_site_hse06_ddec_sum_bond_order
 _atom_site_hse06_magmom
 _atom_site_pbe_bader_charge
 _atom_site_pbe_bader_spin_density
 _atom_site_pbe_cm5_charge
 _atom_site_pbe_ddec_charge
 _atom_site_pbe_ddec_spin_density
 _atom_site_pbe_ddec_sum_bond_order
 _atom_site_pbe_magmom
Zn  Zn0  1  0.58091134  0.89410899  0.59398588  1  0  1.111968  0  1.795732  0  0  0.932224  0  2.281492  0  0  0.97795  0  2.220955  0  1.305609  0  0.709625  0.899984  0  2.32364  0
Zn  Zn1  1  0.52468905  0.89435242  0.90602295  1  0  1.111796  0  1.795912  0  0  0.931884  0  2.281558  0  0  0.977663  0  2.220975  0  1.305897  0  0.709384  0.899537  0  2.323742  0
Zn  Zn2  1  0.41908980  0.10589074  0.40601392  1  0  1.111913  0  1.79581  0  0  0.932165  0  2.28156  0  0  0.977892  0  2.221026  0  1.305699  0  0.709597  0.899928  0  2.323709  0
Zn  Zn3  1  0.47531264  0.10564622  0.09397740  1  0  1.111807  0  1.795931  0  0  0.931897  0  2.281533  0  0  0.977675  0  2.220952  0  1.305859  0  0.709407  0.89955  0  2.323716  0
H  H4  1  0.86254143  0.94635793  0.64342614  1  0  0.304245  0  0.910374  0  0  0.283254  0  0.974238  0  0  0.292176  0  0.96668  0  0.535753  0  0.321551  0.276841  0  0.979803  0
H  H5  1  0.19067092  0.94652712  0.85661150  1  0  0.30466  0  0.909079  0  0  0.283873  0  0.972988  0  0  0.292768  0  0.965491  0  0.533865  0  0.32185  0.277358  0  0.97877  0
H  H6  1  0.13745917  0.05364289  0.35657312  1  0  0.304218  0  0.910392  0  0  0.283266  0  0.974209  0  0  0.29219  0  0.966647  0  0.535731  0  0.321548  0.276826  0  0.979813  0
H  H7  1  0.80932959  0.05347151  0.14338888  1  0  0.304639  0  0.909098  0  0  0.28386  0  0.97299  0  0  0.292755  0  0.965494  0  0.533867  0  0.321871  0.277345  0  0.978769  0
H  H8  1  0.94093826  0.47906154  0.43913339  1  0  0.12011  0  0.949252  0  0  0.1297  0  1.011877  0  0  0.132951  0  1.010396  0  0.109244  0  0.112445  0.127344  0  1.0131  0
H  H9  1  0.57958030  0.47922200  0.06095388  1  0  0.120371  0  0.950278  0  0  0.129975  0  1.012761  0  0  0.13324  0  1.011243  0  0.094414  0  0.112525  0.127663  0  1.013889  0
H  H10  1  0.05906061  0.52094037  0.56086645  1  0  0.120094  0  0.949275  0  0  0.129667  0  1.011917  0  0  0.132919  0  1.010435  0  0.109254  0  0.112439  0.127311  0  1.013138  0
H  H11  1  0.42042139  0.52077663  0.93904700  1  0  0.120378  0  0.950261  0  0  0.129985  0  1.012737  0  0  0.13325  0  1.011218  0  0.09437  0  0.112514  0.127675  0  1.013866  0
H  H12  1  0.06727811  0.27958665  0.53115557  1  0  0.11489  0  0.93013  0  0  0.125078  0  0.988558  0  0  0.129137  0  0.985345  0  0.120906  0  0.114052  0.122124  0  0.990981  0
H  H13  1  0.65257441  0.27979187  0.96893951  1  0  0.114967  0  0.929669  0  0  0.124937  0  0.988379  0  0  0.128965  0  0.985209  0  0.121348  0  0.113976  0.122005  0  0.990751  0
H  H14  1  0.93271913  0.72041854  0.46884482  1  0  0.114855  0  0.93024  0  0  0.125038  0  0.988673  0  0  0.129098  0  0.985459  0  0.1209  0  0.114055  0.122085  0  0.991096  0
H  H15  1  0.34742783  0.72020568  0.03106138  1  0  0.114963  0  0.929676  0  0  0.124936  0  0.98837  0  0  0.128966  0  0.9852  0  0.121345  0  0.113991  0.122004  0  0.990742  0
H  H16  1  0.50506101  0.36847042  0.42768157  1  0  0.131822  0  0.94623  0  0  0.140619  0  1.007927  0  0  0.14486  0  1.00547  0  0.146397  0  0.113739  0.13755  0  1.009832  0
H  H17  1  0.12609822  0.36846169  0.07237461  1  0  0.131546  0  0.945409  0  0  0.140615  0  1.006833  0  0  0.144866  0  1.004365  0  0.122272  0  0.113819  0.137568  0  1.008807  0
H  H18  1  0.49494023  0.63153149  0.57231819  1  0  0.131774  0  0.946264  0  0  0.140588  0  1.007943  0  0  0.144829  0  1.005487  0  0.146669  0  0.113722  0.137519  0  1.009847  0
H  H19  1  0.87390347  0.63153695  0.92762519  1  0  0.13149  0  0.945463  0  0  0.1406  0  1.006848  0  0  0.144853  0  1.004383  0  0.122284  0  0.11383  0.137552  0  1.008823  0
H  H20  1  0.31611408  0.56203435  0.15256807  1  0  0.097059  0  0.955586  0  0  0.105407  0  1.021932  0  0  0.108067  0  1.021035  0  0.097413  0  0.101336  0.103558  0  1.022617  0
H  H21  1  0.12131096  0.56218499  0.34755118  1  0  0.097211  0  0.956107  0  0  0.106004  0  1.021907  0  0  0.108633  0  1.021019  0  0.096226  0  0.101536  0.104063  0  1.022694  0
H  H22  1  0.68388525  0.43796428  0.84743073  1  0  0.097081  0  0.95563  0  0  0.105425  0  1.021977  0  0  0.108084  0  1.02108  0  0.097417  0  0.101348  0.103575  0  1.022662  0
H  H23  1  0.87868964  0.43781583  0.65244862  1  0  0.09723  0  0.95608  0  0  0.106021  0  1.021884  0  0  0.10865  0  1.020998  0  0.096247  0  0.101544  0.10408  0  1.022672  0
H  H24  1  0.28152108  0.79173427  0.21168241  1  0  0.100624  0  0.970214  0  0  0.110705  0  1.027789  0  0  0.114008  0  1.026037  0  0.097765  0  0.101554  0.108296  0  1.029241  0
H  H25  1  0.92596719  0.79190565  0.28852708  1  0  0.101049  0  0.969696  0  0  0.110631  0  1.027824  0  0  0.113956  0  1.026046  0  0.091299  0  0.101785  0.108303  0  1.029041  0
H  H26  1  0.71847416  0.20826546  0.78831707  1  0  0.100639  0  0.970222  0  0  0.110714  0  1.027799  0  0  0.114017  0  1.026046  0  0.097787  0  0.101555  0.108307  0  1.029252  0
H  H27  1  0.07403278  0.20809408  0.71147276  1  0  0.101038  0  0.969723  0  0  0.110622  0  1.027849  0  0  0.113946  0  1.026072  0  0.091287  0  0.101783  0.108293  0  1.029067  0
H  H28  1  0.44701256  0.77936656  0.32031510  1  0  0.117156  0  0.950337  0  0  0.125838  0  1.011688  0  0  0.12914  0  1.010109  0  0.110706  0  0.108018  0.123373  0  1.013167  0
H  H29  1  0.77303600  0.77955213  0.17983269  1  0  0.116832  0  0.950477  0  0  0.125622  0  1.011917  0  0  0.128961  0  1.010289  0  0.104665  0  0.108097  0.123291  0  1.013092  0
H  H30  1  0.55298395  0.22063535  0.67968429  1  0  0.117133  0  0.950326  0  0  0.1258  0  1.011703  0  0  0.129101  0  1.010125  0  0.110694  0  0.10801  0.123335  0  1.013181  0
H  H31  1  0.22696269  0.22044542  0.82016724  1  0  0.116826  0  0.95048  0  0  0.125614  0  1.011916  0  0  0.128954  0  1.010288  0  0.104654  0  0.108079  0.123283  0  1.013091  0
H  H32  1  0.68565358  0.31035528  0.30551030  1  0  0.113799  0  0.960718  0  0  0.122554  0  1.024112  0  0  0.12643  0  1.021388  0  0.096913  0  0.106601  0.119755  0  1.026074  0
H  H33  1  0.00388153  0.31052011  0.19447921  1  0  0.113992  0  0.9602  0  0  0.12244  0  1.023877  0  0  0.1263  0  1.021173  0  0.101879  0  0.106595  0.119662  0  1.025882  0
H  H34  1  0.31434756  0.68964445  0.69449004  1  0  0.113818  0  0.960749  0  0  0.122573  0  1.024148  0  0  0.126447  0  1.021423  0  0.096897  0  0.106617  0.119775  0  1.02611  0
H  H35  1  0.99612071  0.68947743  0.80552113  1  0  0.114038  0  0.960245  0  0  0.122457  0  1.023942  0  0  0.126317  0  1.021239  0  0.101904  0  0.106576  0.119679  0  1.025948  0
H  H36  1  0.25531556  0.00096715  0.64300180  1  0  0.453514  0  0.845874  0  0  0.420477  0  0.912039  0  0  0.431504  0  0.895826  0  0.682729  0  0.299968  0.412708  0  0.923431  0
H  H37  1  0.74340734  0.00109814  0.85692089  1  0  0.453157  0  0.846252  0  0  0.419999  0  0.912652  0  0  0.43101  0  0.896471  0  0.689116  0  0.299779  0.412187  0  0.924149  0
H  H38  1  0.74468368  0.99902931  0.35699813  1  0  0.453532  0  0.845828  0  0  0.420474  0  0.912038  0  0  0.431502  0  0.895824  0  0.68276  0  0.299951  0.412705  0  0.92343  0
H  H39  1  0.25659435  0.99890050  0.14307891  1  0  0.453139  0  0.846271  0  0  0.419978  0  0.912679  0  0  0.430988  0  0.896497  0  0.689108  0  0.299776  0.412166  0  0.924176  0
H  H40  1  0.36994023  0.91056580  0.70900839  1  0  0.442629  0  0.85592  0  0  0.410031  0  0.920574  0  0  0.420737  0  0.90522  0  0.65443  0  0.29472  0.402425  0  0.931478  0
H  H41  1  0.71932909  0.91056471  0.79095746  1  0  0.442651  0  0.855816  0  0  0.409879  0  0.92067  0  0  0.420582  0  0.905323  0  0.663804  0  0.294808  0.402291  0  0.931568  0
H  H42  1  0.63006019  0.08943066  0.29099096  1  0  0.442648  0  0.855897  0  0  0.410047  0  0.920556  0  0  0.420754  0  0.905201  0  0.654454  0  0.294717  0.402441  0  0.93146  0
H  H43  1  0.28067088  0.08943502  0.20904239  1  0  0.442572  0  0.855927  0  0  0.409783  0  0.920815  0  0  0.420488  0  0.905465  0  0.663798  0  0.294748  0.402194  0  0.931714  0
C  C44  1  0.71837114  0.43385336  0.42771554  1  0  0.294144  0  3.769807  0  0  0.283991  0  4.031817  0  0  0.296039  0  4.046154  0  0.472747  0  0.098416  0.275622  0  4.022124  0
C  C45  1  0.84736400  0.43396907  0.07235814  1  0  0.294728  0  3.768551  0  0  0.284568  0  4.030226  0  0  0.29666  0  4.044575  0  0.417863  0  0.098711  0.276224  0  4.020833  0
C  C46  1  0.28162773  0.56614855  0.57228430  1  0  0.294076  0  3.76983  0  0  0.283943  0  4.031817  0  0  0.295992  0  4.046157  0  0.47286  0  0.098413  0.275566  0  4.022126  0
C  C47  1  0.15263888  0.56602957  0.92764215  1  0  0.294729  0  3.768616  0  0  0.284592  0  4.030269  0  0  0.296689  0  4.044613  0  0.417785  0  0.098715  0.276254  0  4.020868  0
C  C48  1  0.87510489  0.41074768  0.45773400  1  0  -0.140942  0  3.68622  0  0  -0.167071  0  3.942632  0  0  -0.170377  0  3.959182  0  -0.065139  0  -0.084335  -0.164931  0  3.931744  0
C  C49  1  0.71370557  0.41086994  0.04235751  1  0  -0.141572  0  3.686816  0  0  -0.167791  0  3.943209  0  0  -0.171106  0  3.959727  0  0.010518  0  -0.084357  -0.165694  0  3.932363  0
C  C50  1  0.12489171  0.58925641  0.54226535  1  0  -0.14095  0  3.686237  0  0  -0.167062  0  3.942634  0  0  -0.170373  0  3.95919  0  -0.065138  0  -0.084338  -0.164922  0  3.931752  0
C  C51  1  0.28629494  0.58912870  0.95764342  1  0  -0.14163  0  3.68688  0  0  -0.167856  0  3.943276  0  0  -0.171174  0  3.959797  0  0.010589  0  -0.084367  -0.165762  0  3.932428  0
C  C52  1  0.94433968  0.30099272  0.50829472  1  0  -0.044269  0  3.720698  0  0  -0.06833  0  3.977019  0  0  -0.06646  0  3.993482  0  0.009844  0  -0.074786  -0.069401  0  3.965983  0
C  C53  1  0.75420123  0.30106804  0.99181483  1  0  -0.044737  0  3.721109  0  0  -0.06881  0  3.977313  0  0  -0.066947  0  3.993777  0  -0.018893  0  -0.074974  -0.069709  0  3.966117  0
C  C54  1  0.05565701  0.69901356  0.49170567  1  0  -0.044217  0  3.72083  0  0  -0.068271  0  3.977125  0  0  -0.066405  0  3.993591  0  0.009759  0  -0.074815  -0.069342  0  3.966089  0
C  C55  1  0.24579982  0.69892951  0.00818555  1  0  -0.044564  0  3.72121  0  0  -0.068685  0  3.977337  0  0  -0.066821  0  3.9938  0  -0.018922  0  -0.074922  -0.069579  0  3.966143  0
C  C56  1  0.85744093  0.21310994  0.53003321  1  0  -0.082196  0  3.776737  0  0  -0.074431  0  4.019341  0  0  -0.080858  0  4.041649  0  0.003674  0  -0.016324  -0.070478  0  4.004432  0
C  C57  1  0.92897499  0.21311649  0.97008657  1  0  -0.08249  0  3.776662  0  0  -0.074003  0  4.018527  0  0  -0.080354  0  4.040729  0  0.001632  0  -0.015952  -0.069925  0  4.003439  0
C  C58  1  0.14255685  0.78689416  0.46996609  1  0  -0.082142  0  3.776847  0  0  -0.074379  0  4.019447  0  0  -0.080798  0  4.041751  0  0.004206  0  -0.016274  -0.070426  0  4.004538  0
C  C59  1  0.07102661  0.78687997  0.02991327  1  0  -0.082798  0  3.777051  0  0  -0.074092  0  4.018644  0  0  -0.080446  0  4.040849  0  0.001702  0  -0.016032  -0.070027  0  4.00358  0
C  C60  1  0.69893606  0.23810406  0.50048389  1  0  -0.021562  0  3.767898  0  0  -0.009043  0  4.004207  0  0  -0.010314  0  4.024447  0  -0.02707  0  -0.005373  -0.008154  0  3.990483  0
C  C61  1  0.06251819  0.23808551  0.99963749  1  0  -0.020537  0  3.767491  0  0  -0.00826  0  4.003859  0  0  -0.009522  0  4.024055  0  -0.029861  0  -0.00504  -0.007599  0  3.990694  0
C  C62  1  0.30106227  0.76189894  0.49951487  1  0  -0.021631  0  3.767947  0  0  -0.009111  0  4.004292  0  0  -0.010384  0  4.024532  0  -0.028423  0  -0.005367  -0.008217  0  3.990566  0
C  C63  1  0.93748468  0.76191313  0.00036335  1  0  -0.020438  0  3.767492  0  0  -0.008216  0  4.00383  0  0  -0.009473  0  4.024018  0  -0.029999  0  -0.005024  -0.007558  0  3.990676  0
C  C64  1  0.62848028  0.34939380  0.44926849  1  0  -0.197017  0  3.699966  0  0  -0.227749  0  3.951289  0  0  -0.232536  0  3.968753  0  -0.035237  0  -0.091629  -0.224379  0  3.939592  0
C  C65  1  0.02171421  0.34938288  0.05083971  1  0  -0.196621  0  3.697096  0  0  -0.227146  0  3.947845  0  0  -0.232041  0  3.965411  0  0.024096  0  -0.091687  -0.22409  0  3.937026  0
C  C66  1  0.37151805  0.65060920  0.55073081  1  0  -0.196944  0  3.699986  0  0  -0.227669  0  3.95127  0  0  -0.232456  0  3.968735  0  -0.034687  0  -0.091601  -0.224303  0  3.939577  0
C  C67  1  0.97828802  0.65061466  0.94916117  1  0  -0.196563  0  3.697104  0  0  -0.227158  0  3.947891  0  0  -0.232057  0  3.965458  0  0.024098  0  -0.091701  -0.2241  0  3.937069  0
C  C68  1  0.60989993  0.14578069  0.52390481  1  0  0.481979  0  3.892191  0  0  0.436792  0  4.179437  0  0  0.463108  0  4.18263  0  1.329785  0  0.219248  0.419023  0  4.176673  0
C  C69  1  0.24389845  0.14572611  0.97625009  1  0  0.482864  0  3.892969  0  0  0.436962  0  4.18095  0  0  0.463272  0  4.184136  0  1.328242  0  0.21894  0.419322  0  4.17805  0
C  C70  1  0.39009949  0.85422013  0.47609449  1  0  0.482173  0  3.892012  0  0  0.436894  0  4.179387  0  0  0.463209  0  4.18258  0  1.329778  0  0.219287  0.419123  0  4.176628  0
C  C71  1  0.75610207  0.85427252  0.02375084  1  0  0.482841  0  3.89302  0  0  0.436936  0  4.181015  0  0  0.463246  0  4.1842  0  1.328253  0  0.21894  0.4193  0  4.178114  0
C  C72  1  0.92840982  0.09786209  0.58380569  1  0  0.507092  0  3.897221  0  0  0.456234  0  4.193947  0  0  0.484138  0  4.195842  0  1.338095  0  0.230531  0.437615  0  4.191915  0
C  C73  1  0.97327401  0.09791449  0.91627016  1  0  0.507958  0  3.894314  0  0  0.457012  0  4.191849  0  0  0.4849  0  4.193675  0  1.335322  0  0.230654  0.438596  0  4.189402  0
C  C74  1  0.07158914  0.90214200  0.41619357  1  0  0.507043  0  3.897287  0  0  0.456208  0  4.193988  0  0  0.484108  0  4.195884  0  1.338159  0  0.230502  0.437591  0  4.191953  0
C  C75  1  0.02672650  0.90208415  0.08373076  1  0  0.508033  0  3.894235  0  0  0.457001  0  4.191789  0  0  0.484887  0  4.193617  0  1.335708  0  0.230658  0.438586  0  4.189343  0
C  C76  1  0.38839404  0.55876068  0.19925886  1  0  -0.073126  0  3.731048  0  0  -0.104252  0  3.988212  0  0  -0.104036  0  4.008645  0  -0.03556  0  -0.087101  -0.10445  0  3.974483  0
C  C77  1  0.05235674  0.55892769  0.30084838  1  0  -0.072985  0  3.732192  0  0  -0.104743  0  3.989295  0  0  -0.104418  0  4.009671  0  -0.037885  0  -0.08722  -0.104719  0  3.975509  0
C  C78  1  0.61160356  0.44123905  0.80074161  1  0  -0.073145  0  3.731086  0  0  -0.104267  0  3.988233  0  0  -0.104047  0  4.008658  0  -0.035659  0  -0.087071  -0.104465  0  3.974506  0
C  C79  1  0.94764440  0.44107204  0.69915304  1  0  -0.07298  0  3.732203  0  0  -0.104733  0  3.989297  0  0  -0.104408  0  4.009674  0  -0.037882  0  -0.087222  -0.104709  0  3.97551  0
C  C80  1  0.36817835  0.68673973  0.23313797  1  0  -0.042126  0  3.748947  0  0  -0.052725  0  3.999427  0  0  -0.054593  0  4.019204  0  -0.018811  0  -0.085733  -0.05147  0  3.986066  0
C  C81  1  0.94448552  0.68692311  0.26699780  1  0  -0.04326  0  3.748608  0  0  -0.053392  0  3.999625  0  0  -0.055281  0  4.019422  0  -0.017399  0  -0.086272  -0.052085  0  3.985981  0
C  C82  1  0.63182107  0.31326109  0.76686079  1  0  -0.042213  0  3.748951  0  0  -0.052801  0  3.999426  0  0  -0.05467  0  4.019204  0  -0.018812  0  -0.085783  -0.051549  0  3.986066  0
C  C83  1  0.05551499  0.31307552  0.73300204  1  0  -0.043252  0  3.748657  0  0  -0.05339  0  3.999664  0  0  -0.055279  0  4.01946  0  -0.017422  0  -0.086276  -0.052083  0  3.98602  0
C  C84  1  0.45797888  0.68053404  0.29411488  1  0  -0.14635  0  3.697968  0  0  -0.173398  0  3.954378  0  0  -0.175865  0  3.972872  0  -0.007842  0  -0.091092  -0.171194  0  3.941655  0
C  C85  1  0.86095631  0.68071852  0.20600161  1  0  -0.145003  0  3.696797  0  0  -0.172434  0  3.953494  0  0  -0.174993  0  3.972068  0  0.016781  0  -0.091011  -0.170495  0  3.940727  0
C  C86  1  0.54201936  0.31946678  0.70588447  1  0  -0.146251  0  3.69786  0  0  -0.173308  0  3.954274  0  0  -0.175774  0  3.97277  0  -0.007816  0  -0.09108  -0.17111  0  3.941567  0
C  C87  1  0.13904602  0.31928121  0.79399815  1  0  -0.145046  0  3.696735  0  0  -0.17245  0  3.95343  0  0  -0.175009  0  3.972004  0  0.016781  0  -0.090997  -0.17051  0  3.940661  0
C  C88  1  0.56824427  0.54485164  0.32117435  1  0  0.266008  0  3.786319  0  0  0.2585  0  4.049043  0  0  0.266852  0  4.066645  0  0.324344  0  0.084111  0.252564  0  4.036868  0
C  C89  1  0.88651009  0.54503066  0.17888450  1  0  0.265641  0  3.78717  0  0  0.258219  0  4.04991  0  0  0.266579  0  4.06755  0  0.356018  0  0.083983  0.252246  0  4.037953  0
C  C90  1  0.43175460  0.45515027  0.67882549  1  0  0.265918  0  3.786387  0  0  0.258459  0  4.049083  0  0  0.266807  0  4.066692  0  0.324258  0  0.084101  0.252515  0  4.036908  0
C  C91  1  0.11349043  0.45496797  0.82111589  1  0  0.26581  0  3.787079  0  0  0.258341  0  4.049872  0  0  0.266702  0  4.06751  0  0.356003  0  0.084026  0.252367  0  4.037916  0
C  C92  1  0.59437327  0.41606481  0.28664563  1  0  -0.188697  0  3.735234  0  0  -0.22121  0  3.985744  0  0  -0.224362  0  4.005986  0  0.02791  0  -0.09756  -0.218497  0  3.971578  0
C  C93  1  0.98932292  0.41623729  0.21336957  1  0  -0.188021  0  3.735732  0  0  -0.220329  0  3.986037  0  0  -0.223405  0  4.006199  0  -0.034059  0  -0.097025  -0.218021  0  3.972369  0
C  C94  1  0.40562442  0.58393710  0.71335372  1  0  -0.188762  0  3.735223  0  0  -0.221307  0  3.985764  0  0  -0.22445  0  4.00599  0  0.027942  0  -0.097595  -0.218595  0  3.9716  0
C  C95  1  0.01067759  0.58376135  0.78663081  1  0  -0.188196  0  3.735811  0  0  -0.220476  0  3.986153  0  0  -0.223553  0  4.006315  0  -0.034065  0  -0.097057  -0.218163  0  3.972478  0
C  C96  1  0.50290678  0.42345488  0.22559102  1  0  -0.05937  0  3.790515  0  0  -0.035804  0  4.028232  0  0  -0.043948  0  4.052856  0  0.008302  0  -0.0232  -0.030361  0  4.011435  0
C  C97  1  0.07330311  0.42363062  0.27445500  1  0  -0.060608  0  3.793442  0  0  -0.03646  0  4.030396  0  0  -0.044749  0  4.055146  0  0.022621  0  -0.023637  -0.031063  0  4.013666  0
C  C98  1  0.49709555  0.57654485  0.77440820  1  0  -0.059339  0  3.790403  0  0  -0.035759  0  4.028107  0  0  -0.043899  0  4.052728  0  0.008426  0  -0.023203  -0.030315  0  4.01131  0
C  C99  1  0.92669749  0.57637020  0.72554534  1  0  -0.060675  0  3.793462  0  0  -0.036528  0  4.030415  0  0  -0.044817  0  4.055166  0  0.02265  0  -0.02369  -0.03113  0  4.013686  0
C  C100  1  0.53102239  0.28587530  0.18853683  1  0  0.651687  0  3.890159  0  0  0.599226  0  4.181295  0  0  0.633087  0  4.174939  0  1.518186  0  0.21245  0.576163  0  4.184856  0
C  C101  1  0.18284671  0.28600629  0.31144844  1  0  0.652028  0  3.889772  0  0  0.59931  0  4.181206  0  0  0.633258  0  4.17477  0  1.515759  0  0.213133  0.576295  0  4.184662  0
C  C102  1  0.46897757  0.71412443  0.81146302  1  0  0.651774  0  3.890058  0  0  0.599322  0  4.181178  0  0  0.633181  0  4.174822  0  1.518175  0  0.212492  0.57626  0  4.184739  0
C  C103  1  0.81715207  0.71399344  0.68855199  1  0  0.652153  0  3.889683  0  0  0.599445  0  4.181101  0  0  0.633392  0  4.174662  0  1.515857  0  0.213197  0.57643  0  4.184561  0
N  N104  1  0.68043809  0.04036480  0.57240055  1  0  -0.371303  0  3.23346  0  0  -0.313721  0  3.544303  0  0  -0.334343  0  3.553866  0  -0.81451  0  -0.267236  -0.29999  0  3.537949  0
N  N105  1  0.27878920  0.04038663  0.92770360  1  0  -0.372722  0  3.234089  0  0  -0.3138  0  3.545141  0  0  -0.33447  0  3.554731  0  -0.817041  0  -0.266953  -0.300076  0  3.538722  0
N  N106  1  0.31956133  0.95963602  0.42759821  1  0  -0.371417  0  3.233384  0  0  -0.313785  0  3.544261  0  0  -0.334409  0  3.553825  0  -0.814531  0  -0.267291  -0.300054  0  3.537902  0
N  N107  1  0.72121249  0.95961201  0.07229620  1  0  -0.372707  0  3.234098  0  0  -0.313791  0  3.545155  0  0  -0.334462  0  3.554746  0  -0.817022  0  -0.266946  -0.300068  0  3.538736  0
N  N108  1  0.83278743  0.02076422  0.60113269  1  0  -0.266624  0  3.425901  0  0  -0.215145  0  3.672578  0  0  -0.233134  0  3.687956  0  -0.853401  0  -0.290026  -0.203176  0  3.662155  0
N  N109  1  0.14601985  0.02085809  0.89893073  1  0  -0.266195  0  3.424558  0  0  -0.216257  0  3.672908  0  0  -0.234278  0  3.688301  0  -0.848432  0  -0.290197  -0.204464  0  3.66257  0
N  N110  1  0.16721026  0.97923770  0.39886665  1  0  -0.266492  0  3.425905  0  0  -0.215063  0  3.672539  0  0  -0.233049  0  3.687915  0  -0.853523  0  -0.289972  -0.203076  0  3.662141  0
N  N111  1  0.85398184  0.97914054  0.10106961  1  0  -0.266191  0  3.424454  0  0  -0.21625  0  3.672836  0  0  -0.234271  0  3.688229  0  -0.848443  0  -0.290217  -0.204454  0  3.662497  0
O  O112  1  0.46345686  0.16397094  0.50016056  1  0  -0.644446  0  2.079966  0  0  -0.577571  0  2.362157  0  0  -0.602627  0  2.345428  0  -1.184709  0  -0.341515  -0.55973  0  2.373153  0
O  O113  1  0.37209773  0.16396657  0.00002035  1  0  -0.64475  0  2.080532  0  0  -0.577816  0  2.363449  0  0  -0.602852  0  2.346609  0  -1.189906  0  -0.341717  -0.56  0  2.374315  0
O  O114  1  0.53654492  0.83602988  0.49983757  1  0  -0.64455  0  2.07987  0  0  -0.577646  0  2.362097  0  0  -0.602707  0  2.34538  0  -1.184709  0  -0.341547  -0.559804  0  2.373094  0
O  O115  1  0.62790514  0.83603206  0.99997994  1  0  -0.644752  0  2.080614  0  0  -0.577821  0  2.363528  0  0  -0.602859  0  2.34669  0  -1.189884  0  -0.341734  -0.560006  0  2.374394  0
O  O116  1  0.06643696  0.07003857  0.61380055  1  0  -0.602349  0  2.000264  0  0  -0.555185  0  2.22892  0  0  -0.57737  0  2.219715  0  -1.196496  0  -0.317478  -0.539655  0  2.234696  0
O  O117  1  0.86311085  0.07014009  0.88621933  1  0  -0.603096  0  1.999327  0  0  -0.555734  0  2.228099  0  0  -0.577851  0  2.218788  0  -1.191759  0  -0.317765  -0.540282  0  2.234038  0
O  O118  1  0.93356082  0.92996553  0.38619983  1  0  -0.602415  0  2.000271  0  0  -0.555234  0  2.228906  0  0  -0.577418  0  2.2197  0  -1.196488  0  -0.317483  -0.539705  0  2.234685  0
O  O119  1  0.13688911  0.92985964  0.11378051  1  0  -0.603075  0  1.999323  0  0  -0.555714  0  2.228131  0  0  -0.577828  0  2.21882  0  -1.192073  0  -0.317753  -0.54026  0  2.234068  0
O  O120  1  0.44405210  0.29668094  0.13301915  1  0  -0.635524  0  2.043216  0  0  -0.562441  0  2.314212  0  0  -0.591511  0  2.30113  0  -1.158792  0  -0.316825  -0.542143  0  2.322698  0
O  O121  1  0.25918354  0.29676281  0.36692862  1  0  -0.635347  0  2.041275  0  0  -0.562562  0  2.313241  0  0  -0.59162  0  2.300048  0  -1.160843  0  -0.317296  -0.54245  0  2.321843  0
O  O122  1  0.55594896  0.70331660  0.86698124  1  0  -0.63551  0  2.043125  0  0  -0.562455  0  2.314151  0  0  -0.591526  0  2.301069  0  -1.158825  0  -0.316824  -0.542158  0  2.322638  0
O  O123  1  0.74081052  0.70323692  0.63307416  1  0  -0.635406  0  2.041266  0  0  -0.562603  0  2.313217  0  0  -0.591659  0  2.30002  0  -1.160828  0  -0.31732  -0.54249  0  2.321818  0
O  O124  1  0.63981384  0.16328542  0.21137124  1  0  -0.654708  0  1.992297  0  0  -0.590689  0  2.208342  0  0  -0.613985  0  2.195385  0  -1.215292  0  -0.319648  -0.574158  0  2.216863  0
O  O125  1  0.19647197  0.16347318  0.28860910  1  0  -0.654285  0  1.992652  0  0  -0.590173  0  2.208855  0  0  -0.613504  0  2.195898  0  -1.211874  0  -0.319734  -0.573795  0  2.217384  0
O  O126  1  0.36018668  0.83671321  0.78862915  1  0  -0.65477  0  1.992317  0  0  -0.590747  0  2.208355  0  0  -0.614044  0  2.195396  0  -1.215267  0  -0.319665  -0.574214  0  2.21687  0
O  O127  1  0.80352800  0.83652655  0.71139129  1  0  -0.654339  0  1.99261  0  0  -0.590234  0  2.208805  0  0  -0.613563  0  2.195846  0  -1.211871  0  -0.319747  -0.573864  0  2.217336  0
O  O128  1  0.65904825  0.54825085  0.37984527  1  0  -0.283184  0  2.366227  0  0  -0.211189  0  2.584689  0  0  -0.230665  0  2.589833  0  -1.093795  0  -0.141609  -0.197406  0  2.580778  0
O  O129  1  0.79235614  0.54842114  0.12019618  1  0  -0.28361  0  2.366797  0  0  -0.211618  0  2.585186  0  0  -0.231083  0  2.590298  0  -1.097507  0  -0.141784  -0.197754  0  2.581172  0
O  O130  1  0.34095063  0.45175106  0.62015512  1  0  -0.283051  0  2.366219  0  0  -0.211102  0  2.584697  0  0  -0.230577  0  2.589843  0  -1.093768  0  -0.141572  -0.197297  0  2.580771  0
O  O131  1  0.20764673  0.45157750  0.87980358  1  0  -0.283624  0  2.366855  0  0  -0.211618  0  2.585253  0  0  -0.231085  0  2.590363  0  -1.097545  0  -0.141769  -0.197756  0  2.581237  0
O  O132  1  0.37187262  0.96606876  0.66302472  1  0  -0.855676  0  1.881076  0  0  -0.78117  0  2.101527  0  0  -0.80368  0  2.062605  0  -1.282763  0  -0.577095  -0.765315  0  2.128657  0
O  O133  1  0.66174478  0.96621394  0.83688374  1  0  -0.854809  0  1.880537  0  0  -0.780055  0  2.101028  0  0  -0.802609  0  2.062214  0  -1.299538  0  -0.576753  -0.764391  0  2.128509  0
O  O134  1  0.62812771  0.03392551  0.33697412  1  0  -0.855691  0  1.881021  0  0  -0.781178  0  2.101466  0  0  -0.80369  0  2.062545  0  -1.282824  0  -0.577071  -0.765323  0  2.128596  0
O  O135  1  0.33825573  0.03378470  0.16311610  1  0  -0.854713  0  1.880583  0  0  -0.779944  0  2.101064  0  0  -0.802499  0  2.062253  0  -1.299522  0  -0.576686  -0.764279  0  2.128544  0
