# generated using pymatgen
data_NaH8C6N7O6
_symmetry_space_group_name_H-M   'P 1'
_cell_length_a   7.04943474
_cell_length_b   7.63403300
_cell_length_c   11.51829845
_cell_angle_alpha   71.21613469
_cell_angle_beta   94.19519122
_cell_angle_gamma   72.79090237
_symmetry_Int_Tables_number   1
_chemical_formula_structural   NaH8C6N7O6
_chemical_formula_sum   'Na2 H16 C12 N14 O12'
_cell_volume   550.77089162
_cell_formula_units_Z   2
loop_
 _symmetry_equiv_pos_site_id
 _symmetry_equiv_pos_as_xyz
  1  'x, y, z'
loop_
 _atom_site_type_symbol
 _atom_site_label
 _atom_site_symmetry_multiplicity
 _atom_site_fract_x
 _atom_site_fract_y
 _atom_site_fract_z
 _atom_site_occupancy
 _atom_site_hle17_bader_spin_density
 _atom_site_hle17_ddec_charge
 _atom_site_hle17_ddec_spin_density
 _atom_site_hle17_ddec_sum_bond_order
 _atom_site_hle17_magmom
 _atom_site_hse06_10hf_bader_spin_density
 _atom_site_hse06_10hf_ddec_charge
 _atom_site_hse06_10hf_ddec_spin_density
 _atom_site_hse06_10hf_ddec_sum_bond_order
 _atom_site_hse06_10hf_magmom
 _atom_site_hse06_bader_spin_density
 _atom_site_hse06_ddec_charge
 _atom_site_hse06_ddec_spin_density
 _atom_site_hse06_ddec_sum_bond_order
 _atom_site_hse06_magmom
 _atom_site_pbe_bader_spin_density
 _atom_site_pbe_cm5_charge
 _atom_site_pbe_ddec_charge
 _atom_site_pbe_ddec_spin_density
 _atom_site_pbe_ddec_sum_bond_order
 _atom_site_pbe_magmom
Na  Na0  1  0.29703968  0.70822293  0.94822965  1  0  0.899748  0  0.392237  0  0  0.864696  0  0.540861  0  0  0.872762  0  0.520257  0  0  0.671547  0.858719  0  0.555592  0
Na  Na1  1  0.70295993  0.29178403  0.05177367  1  0  0.899775  0  0.392245  0  0  0.864719  0  0.540873  0  0  0.872758  0  0.52032  0  0  0.671581  0.858737  0  0.55561  0
H  H2  1  0.14635748  0.47202437  0.44857762  1  0  0.339445  0  0.898483  0  0  0.31585  0  0.96542  0  0  0.32628  0  0.956154  0  0  0.316382  0.308536  0  0.971917  0
H  H3  1  0.85365315  0.52796334  0.55142086  1  0  0.33942  0  0.898488  0  0  0.315871  0  0.965353  0  0  0.326301  0  0.956086  0  0  0.316373  0.308553  0  0.971851  0
H  H4  1  0.97620517  0.76132391  0.67573652  1  0  0.355938  0  0.846022  0  0  0.332058  0  0.911368  0  0  0.34098  0  0.904067  0  0  0.335367  0.325789  0  0.916559  0
H  H5  1  0.02379361  0.23867505  0.32425653  1  0  0.355978  0  0.846049  0  0  0.332118  0  0.91138  0  0  0.341013  0  0.904112  0  0  0.335389  0.325849  0  0.916575  0
H  H6  1  0.36392034  0.34775823  0.88323952  1  0  0.407935  0  0.897658  0  0  0.374579  0  0.967237  0  0  0.384265  0  0.952801  0  0  0.293292  0.367745  0  0.977426  0
H  H7  1  0.63608389  0.65224742  0.11676242  1  0  0.407888  0  0.897733  0  0  0.374502  0  0.967364  0  0  0.384184  0  0.952934  0  0  0.293276  0.367672  0  0.977545  0
H  H8  1  0.24225290  0.35617293  0.99150590  1  0  0.423235  0  0.872374  0  0  0.395587  0  0.933524  0  0  0.404907  0  0.91955  0  0  0.300848  0.388963  0  0.943466  0
H  H9  1  0.75774314  0.64383524  0.00849449  1  0  0.423174  0  0.87245  0  0  0.395555  0  0.933546  0  0  0.404875  0  0.919565  0  0  0.300831  0.388936  0  0.943483  0
H  H10  1  0.26951515  0.53269820  0.22480266  1  0  0.403744  0  0.89315  0  0  0.369046  0  0.966116  0  0  0.379197  0  0.951009  0  0  0.282316  0.361852  0  0.976807  0
H  H11  1  0.73047511  0.46730199  0.77519524  1  0  0.403762  0  0.8931  0  0  0.369079  0  0.966051  0  0  0.379228  0  0.950948  0  0  0.282348  0.361886  0  0.976739  0
H  H12  1  0.08279199  0.72442926  0.14361634  1  0  0.415708  0  0.878997  0  0  0.387039  0  0.940367  0  0  0.397258  0  0.925117  0  0  0.28522  0.379728  0  0.951271  0
H  H13  1  0.91720435  0.27557730  0.85638096  1  0  0.415736  0  0.87896  0  0  0.387049  0  0.940359  0  0  0.397269  0  0.925108  0  0  0.285221  0.379735  0  0.951267  0
H  H14  1  0.23393884  0.03766834  0.00394683  1  0  0.400476  0  0.902157  0  0  0.367634  0  0.977082  0  0  0.377562  0  0.962405  0  0  0.293306  0.360613  0  0.987446  0
H  H15  1  0.76604870  0.96233930  0.99605186  1  0  0.400509  0  0.902026  0  0  0.367643  0  0.977064  0  0  0.37757  0  0.96239  0  0  0.29333  0.360623  0  0.987428  0
H  H16  1  0.26111841  0.11422789  0.86512248  1  0  0.388241  0  0.922335  0  0  0.355577  0  0.996007  0  0  0.364888  0  0.982258  0  0  0.289029  0.349027  0  1.005673  0
H  H17  1  0.73887032  0.88577972  0.13487362  1  0  0.388225  0  0.922324  0  0  0.355538  0  0.996052  0  0  0.364848  0  0.982306  0  0  0.289027  0.348995  0  1.005708  0
C  C18  1  0.44074985  0.29022966  0.49845630  1  0  0.616722  0  3.825679  0  0  0.549508  0  4.123395  0  0  0.579354  0  4.128352  0  0  0.365394  0.529617  0  4.119431  0
C  C19  1  0.55925579  0.70977140  0.50154241  1  0  0.616684  0  3.825686  0  0  0.54951  0  4.123342  0  0  0.579358  0  4.128298  0  0  0.365416  0.529621  0  4.119375  0
C  C20  1  0.54631940  0.13636016  0.72675086  1  0  0.639536  0  3.786405  0  0  0.571632  0  4.086273  0  0  0.603847  0  4.08898  0  0  0.375139  0.550146  0  4.083878  0
C  C21  1  0.45368305  0.86362606  0.27326008  1  0  0.639583  0  3.786334  0  0  0.571658  0  4.086142  0  0  0.60384  0  4.088884  0  0  0.375135  0.550192  0  4.083738  0
C  C22  1  0.74267505  0.01766942  0.58204347  1  0  0.621582  0  3.805566  0  0  0.557521  0  4.096616  0  0  0.588007  0  4.10025  0  0  0.369301  0.537202  0  4.09359  0
C  C23  1  0.25733002  0.98232845  0.41795165  1  0  0.621877  0  3.805259  0  0  0.557591  0  4.096603  0  0  0.588078  0  4.100229  0  0  0.369398  0.537271  0  4.09358  0
C  C24  1  0.23569108  0.38995262  0.64113446  1  0  0.756949  0  3.847648  0  0  0.686399  0  4.157058  0  0  0.721504  0  4.152551  0  0  0.343158  0.662808  0  4.159324  0
C  C25  1  0.76429899  0.61004345  0.35887487  1  0  0.757011  0  3.847983  0  0  0.686351  0  4.157456  0  0  0.721447  0  4.152952  0  0  0.343166  0.662785  0  4.159704  0
C  C26  1  0.83155337  0.85456756  0.80764590  1  0  0.748225  0  3.855425  0  0  0.68326  0  4.155174  0  0  0.718072  0  4.150043  0  0  0.352295  0.659818  0  4.158024  0
C  C27  1  0.16844905  0.14541976  0.19235433  1  0  0.74836  0  3.855043  0  0  0.683348  0  4.15488  0  0  0.718157  0  4.149744  0  0  0.35237  0.659906  0  4.157736  0
C  C28  1  0.63816575  0.17613437  0.36806509  1  0  0.727284  0  3.874443  0  0  0.678715  0  4.178798  0  0  0.710755  0  4.174316  0  0  0.316977  0.657153  0  4.181335  0
C  C29  1  0.36182141  0.82388176  0.63191851  1  0  0.727369  0  3.874314  0  0  0.678731  0  4.178793  0  0  0.710764  0  4.174318  0  0  0.316931  0.657169  0  4.181329  0
N  N30  1  0.58174387  0.15519673  0.60381936  1  0  -0.38546  0  3.360508  0  0  -0.295322  0  3.588277  0  0  -0.321124  0  3.601452  0  0  -0.208009  -0.278219  0  3.578959  0
N  N31  1  0.41825546  0.84480252  0.39618059  1  0  -0.385445  0  3.360765  0  0  -0.295263  0  3.588578  0  0  -0.321062  0  3.601764  0  0  -0.20798  -0.278159  0  3.579252  0
N  N32  1  0.27189866  0.40638568  0.52108002  1  0  -0.535008  0  3.248044  0  0  -0.478642  0  3.505114  0  0  -0.503797  0  3.506194  0  0  -0.385073  -0.461634  0  3.503942  0
N  N33  1  0.72810381  0.59360634  0.47892431  1  0  -0.534965  0  3.248137  0  0  -0.478642  0  3.505234  0  0  -0.503784  0  3.506286  0  0  -0.385087  -0.461647  0  3.504085  0
N  N34  1  0.37927380  0.26139293  0.74102258  1  0  -0.601941  0  3.035068  0  0  -0.537572  0  3.293207  0  0  -0.565139  0  3.29631  0  0  -0.321152  -0.519018  0  3.290779  0
N  N35  1  0.62072808  0.73859766  0.25898470  1  0  -0.602045  0  3.035281  0  0  -0.537429  0  3.293204  0  0  -0.564955  0  3.296287  0  0  -0.321105  -0.518935  0  3.290824  0
N  N36  1  0.67314738  0.99377977  0.82337952  1  0  -0.572731  0  3.011751  0  0  -0.523049  0  3.284163  0  0  -0.548681  0  3.286933  0  0  -0.314955  -0.505815  0  3.281962  0
N  N37  1  0.32685824  0.00620792  0.17662587  1  0  -0.572851  0  3.01145  0  0  -0.523198  0  3.283907  0  0  -0.548816  0  3.286687  0  0  -0.315012  -0.505963  0  3.281694  0
N  N38  1  0.86452756  0.87403211  0.68620188  1  0  -0.509412  0  3.254351  0  0  -0.446783  0  3.500483  0  0  -0.471215  0  3.501691  0  0  -0.365973  -0.430389  0  3.499485  0
N  N39  1  0.13547997  0.12596172  0.31380293  1  0  -0.509536  0  3.254335  0  0  -0.446829  0  3.500478  0  0  -0.471232  0  3.501711  0  0  -0.365968  -0.430441  0  3.499489  0
N  N40  1  0.77026168  0.02248789  0.47063780  1  0  -0.583279  0  2.930979  0  0  -0.560334  0  3.224121  0  0  -0.582168  0  3.227233  0  0  -0.34871  -0.545697  0  3.221689  0
N  N41  1  0.22973753  0.97752176  0.52935704  1  0  -0.583443  0  2.931021  0  0  -0.56038  0  3.224237  0  0  -0.582192  0  3.22731  0  0  -0.348725  -0.545746  0  3.221811  0
N  N42  1  0.46423312  0.30639509  0.38483800  1  0  -0.587903  0  2.941897  0  0  -0.545282  0  3.216388  0  0  -0.568247  0  3.220154  0  0  -0.331865  -0.529864  0  3.213595  0
N  N43  1  0.53577619  0.69360014  0.61516127  1  0  -0.587882  0  2.941389  0  0  -0.545345  0  3.21601  0  0  -0.568298  0  3.219749  0  0  -0.331842  -0.529928  0  3.213216  0
O  O44  1  0.06860783  0.49541290  0.65149634  1  0  -0.598392  0  1.920968  0  0  -0.544623  0  2.139534  0  0  -0.565893  0  2.128887  0  0  -0.29198  -0.529889  0  2.146429  0
O  O45  1  0.93138378  0.50458622  0.34851139  1  0  -0.598408  0  1.920899  0  0  -0.544641  0  2.139562  0  0  -0.56591  0  2.128915  0  0  -0.29204  -0.529908  0  2.146446  0
O  O46  1  0.94552540  0.71100400  0.89654142  1  0  -0.585317  0  1.933727  0  0  -0.538347  0  2.158132  0  0  -0.558466  0  2.147057  0  0  -0.297839  -0.524523  0  2.165462  0
O  O47  1  0.05447130  0.28898762  0.10346034  1  0  -0.58544  0  1.933562  0  0  -0.538464  0  2.158031  0  0  -0.558579  0  2.14696  0  0  -0.29793  -0.524609  0  2.165309  0
O  O48  1  0.67083917  0.19521241  0.26148113  1  0  -0.589579  0  1.888924  0  0  -0.556082  0  2.120159  0  0  -0.573906  0  2.11067  0  0  -0.34206  -0.543779  0  2.126341  0
O  O49  1  0.32917678  0.80479173  0.73850389  1  0  -0.589654  0  1.888983  0  0  -0.556131  0  2.120268  0  0  -0.573955  0  2.110766  0  0  -0.342084  -0.543827  0  2.126448  0
O  O50  1  0.36113046  0.38022663  0.95931670  1  0  -0.904832  0  1.828052  0  0  -0.868465  0  2.009845  0  0  -0.882492  0  1.977243  0  0  -0.700553  -0.858492  0  2.032724  0
O  O51  1  0.63886622  0.61978011  0.04068491  1  0  -0.904694  0  1.828172  0  0  -0.868342  0  2.009987  0  0  -0.882363  0  1.977396  0  0  -0.700517  -0.858369  0  2.032843  0
O  O52  1  0.22794527  0.65514302  0.15224673  1  0  -0.858061  0  1.805552  0  0  -0.812917  0  1.970311  0  0  -0.82973  0  1.940748  0  0  -0.65471  -0.800872  0  1.991113  0
O  O53  1  0.77204966  0.34486056  0.84775388  1  0  -0.858135  0  1.805485  0  0  -0.812961  0  1.970275  0  0  -0.829771  0  1.940715  0  0  -0.654753  -0.800914  0  1.99108  0
O  O54  1  0.17765449  0.05338843  0.91853611  1  0  -0.83285  0  1.820634  0  0  -0.781659  0  1.988225  0  0  -0.798772  0  1.958599  0  0  -0.626715  -0.7695  0  2.008964  0
O  O55  1  0.82233343  0.94661763  0.08146035  1  0  -0.832853  0  1.820481  0  0  -0.781666  0  1.988221  0  0  -0.798778  0  1.958596  0  0  -0.626727  -0.769507  0  2.008947  0
