# generated using pymatgen
data_GdH4C12(O4F3)2
_symmetry_space_group_name_H-M   'P 1'
_cell_length_a   8.76448882
_cell_length_b   8.76628768
_cell_length_c   11.48127472
_cell_angle_alpha   105.70427533
_cell_angle_beta   111.87832494
_cell_angle_gamma   99.08354890
_symmetry_Int_Tables_number   1
_chemical_formula_structural   GdH4C12(O4F3)2
_chemical_formula_sum   'Gd2 H8 C24 O16 F12'
_cell_volume   754.26302918
_cell_formula_units_Z   2
loop_
 _symmetry_equiv_pos_site_id
 _symmetry_equiv_pos_as_xyz
  1  'x, y, z'
loop_
 _atom_site_type_symbol
 _atom_site_label
 _atom_site_symmetry_multiplicity
 _atom_site_fract_x
 _atom_site_fract_y
 _atom_site_fract_z
 _atom_site_occupancy
 _atom_site_hle17_bader_spin_density
 _atom_site_hle17_ddec_charge
 _atom_site_hle17_ddec_spin_density
 _atom_site_hle17_ddec_sum_bond_order
 _atom_site_hle17_magmom
 _atom_site_hse06_10hf_bader_spin_density
 _atom_site_hse06_10hf_ddec_charge
 _atom_site_hse06_10hf_ddec_spin_density
 _atom_site_hse06_10hf_ddec_sum_bond_order
 _atom_site_hse06_10hf_magmom
 _atom_site_hse06_bader_spin_density
 _atom_site_hse06_ddec_charge
 _atom_site_hse06_ddec_spin_density
 _atom_site_hse06_ddec_sum_bond_order
 _atom_site_hse06_magmom
 _atom_site_pbe_bader_spin_density
 _atom_site_pbe_cm5_charge
 _atom_site_pbe_ddec_charge
 _atom_site_pbe_ddec_spin_density
 _atom_site_pbe_ddec_sum_bond_order
 _atom_site_pbe_magmom
Gd  Gd0  1  0.85614760  0.16113478  0.01715391  1  0  2.192034  0  1.723388  0  0  2.107268  0  2.067409  0  0  2.160677  0  2.014699  0  0  1.459068  2.066238  0  2.109247  0
Gd  Gd1  1  0.14385445  0.83886502  0.98284870  1  0  2.192056  0  1.72335  0  0  2.107193  0  2.067521  0  0  2.160642  0  2.014754  0  0  1.459071  2.066167  0  2.109349  0
H  H2  1  0.66189587  0.14732762  0.18884425  1  0  0.463086  0  0.791823  0  0  0.43725  0  0.853044  0  0  0.446811  0  0.838851  0  0  0.327337  0.430458  0  0.863117  0
H  H3  1  0.95846960  0.47284810  0.81103377  1  0  0.461811  0  0.792846  0  0  0.43579  0  0.854977  0  0  0.445338  0  0.840829  0  0  0.326786  0.428949  0  0.86513  0
H  H4  1  0.33809887  0.85266493  0.81115381  1  0  0.463061  0  0.791896  0  0  0.437232  0  0.853078  0  0  0.446797  0  0.838881  0  0  0.327327  0.43044  0  0.863153  0
H  H5  1  0.04152960  0.52715425  0.18896948  1  0  0.461848  0  0.792786  0  0  0.435828  0  0.854916  0  0  0.445377  0  0.840768  0  0  0.326787  0.428988  0  0.865069  0
H  H6  1  0.52579410  0.14770382  0.05628352  1  0  0.441147  0  0.840926  0  0  0.413154  0  0.908007  0  0  0.422953  0  0.893608  0  0  0.31106  0.406119  0  0.918352  0
H  H7  1  0.09129087  0.46942181  0.94364795  1  0  0.441054  0  0.842474  0  0  0.413274  0  0.907919  0  0  0.423067  0  0.893543  0  0  0.311773  0.406305  0  0.918136  0
H  H8  1  0.47420430  0.85229239  0.94371552  1  0  0.441153  0  0.840921  0  0  0.413162  0  0.907991  0  0  0.422961  0  0.893593  0  0  0.311079  0.406128  0  0.918333  0
H  H9  1  0.90870794  0.53057192  0.05634978  1  0  0.441088  0  0.842427  0  0  0.413312  0  0.907865  0  0  0.423104  0  0.89349  0  0  0.311778  0.406342  0  0.918081  0
C  C10  1  0.37654545  0.37651203  0.99982005  1  0  -0.233264  0  3.787893  0  0  -0.236462  0  4.048864  0  0  -0.241801  0  4.062644  0  0  -0.027958  -0.233255  0  4.040313  0
C  C11  1  0.62345823  0.62348543  0.00017639  1  0  -0.233189  0  3.788025  0  0  -0.236328  0  4.049  0  0  -0.241669  0  4.062786  0  0  -0.027931  -0.233122  0  4.040446  0
C  C12  1  0.36870737  0.38933819  0.87982131  1  0  0.208167  0  3.801619  0  0  0.174208  0  4.100716  0  0  0.183958  0  4.10818  0  0  0.095631  0.167304  0  4.096202  0
C  C13  1  0.50927948  0.48859942  0.11998575  1  0  0.207641  0  3.803612  0  0  0.173938  0  4.10271  0  0  0.183676  0  4.110206  0  0  0.094133  0.167078  0  4.098168  0
C  C14  1  0.63129833  0.61066914  0.12017965  1  0  0.208105  0  3.801604  0  0  0.174088  0  4.100748  0  0  0.183839  0  4.108211  0  0  0.095602  0.167185  0  4.096234  0
C  C15  1  0.49072908  0.51140162  0.88001373  1  0  0.207501  0  3.803701  0  0  0.173737  0  4.102825  0  0  0.183476  0  4.110322  0  0  0.094027  0.166878  0  4.098283  0
C  C16  1  0.24430725  0.24422431  0.99978653  1  0  0.774428  0  3.816694  0  0  0.725368  0  4.111271  0  0  0.761629  0  4.097342  0  0  0.249722  0.700605  0  4.120159  0
C  C17  1  0.75568952  0.75577461  0.00020744  1  0  0.774494  0  3.81659  0  0  0.725401  0  4.111222  0  0  0.761656  0  4.097306  0  0  0.249787  0.700641  0  4.120104  0
C  C18  1  0.11829922  0.13836764  0.25613374  1  0  0.74868  0  3.836859  0  0  0.697853  0  4.142527  0  0  0.733855  0  4.129336  0  0  0.232919  0.673357  0  4.150617  0
C  C19  1  0.88169877  0.86162722  0.74386837  1  0  0.748824  0  3.836728  0  0  0.697994  0  4.142368  0  0  0.734001  0  4.12917  0  0  0.232986  0.673494  0  4.150463  0
C  C20  1  0.61593205  0.16102591  0.77648980  1  0  0.666004  0  3.931048  0  0  0.620432  0  4.237278  0  0  0.653328  0  4.231446  0  0  0.188317  0.598259  0  4.240267  0
C  C21  1  0.38406228  0.83897288  0.22350955  1  0  0.666029  0  3.931031  0  0  0.620484  0  4.237259  0  0  0.65338  0  4.231423  0  0  0.188344  0.598311  0  4.240247  0
C  C22  1  0.24934037  0.13816552  0.38679192  1  0  -0.18079  0  3.712256  0  0  -0.182003  0  3.971281  0  0  -0.185399  0  3.984126  0  0  -0.011456  -0.17999  0  3.963319  0
C  C23  1  0.75066167  0.86184183  0.61321063  1  0  -0.18078  0  3.712069  0  0  -0.181917  0  3.971038  0  0  -0.185326  0  3.983898  0  0  -0.011369  -0.179896  0  3.963073  0
C  C24  1  0.49246181  0.14836813  0.64021666  1  0  -0.235421  0  3.755729  0  0  -0.238841  0  4.022737  0  0  -0.248644  0  4.042454  0  0  -0.031926  -0.232443  0  4.009716  0
C  C25  1  0.50753535  0.85163924  0.35978801  1  0  -0.235307  0  3.755756  0  0  -0.238795  0  4.022841  0  0  -0.248626  0  4.042621  0  0  -0.031863  -0.232395  0  4.009819  0
C  C26  1  0.20712999  0.03491482  0.45015173  1  0  0.200455  0  3.785452  0  0  0.163368  0  4.088452  0  0  0.171682  0  4.096172  0  0  0.095945  0.157249  0  4.083878  0
C  C27  1  0.58392661  0.75637006  0.54977893  1  0  0.20348  0  3.785694  0  0  0.165603  0  4.089099  0  0  0.17398  0  4.096748  0  0  0.09763  0.15947  0  4.084493  0
C  C28  1  0.79286475  0.96508144  0.54984803  1  0  0.200517  0  3.785531  0  0  0.163447  0  4.088486  0  0  0.171766  0  4.0962  0  0  0.095985  0.157325  0  4.083918  0
C  C29  1  0.41606162  0.24363275  0.45021613  1  0  0.203399  0  3.785856  0  0  0.165652  0  4.089126  0  0  0.174024  0  4.096775  0  0  0.097677  0.159522  0  4.084519  0
C  C30  1  0.32492740  0.03900545  0.57329363  1  0  0.21396  0  3.772866  0  0  0.177227  0  4.079613  0  0  0.188075  0  4.088561  0  0  0.098987  0.169558  0  4.074061  0
C  C31  1  0.46497577  0.75107236  0.42664153  1  0  0.210054  0  3.778113  0  0  0.174776  0  4.083145  0  0  0.185629  0  4.092057  0  0  0.097807  0.167258  0  4.077437  0
C  C32  1  0.67506897  0.96098840  0.42670170  1  0  0.213933  0  3.772789  0  0  0.177183  0  4.079605  0  0  0.188041  0  4.088532  0  0  0.098937  0.169506  0  4.074065  0
C  C33  1  0.53502464  0.24893371  0.57336289  1  0  0.210156  0  3.777835  0  0  0.174794  0  4.082857  0  0  0.185649  0  4.091774  0  0  0.097809  0.167274  0  4.077145  0
O  O34  1  0.10419110  0.04125697  0.14494897  1  0  -0.78786  0  2.154452  0  0  -0.748589  0  2.413271  0  0  -0.777342  0  2.40438  0  0  -0.401273  -0.727672  0  2.418448  0
O  O35  1  0.89581379  0.95874398  0.85505557  1  0  -0.787954  0  2.154352  0  0  -0.748714  0  2.413197  0  0  -0.777482  0  2.404338  0  0  -0.401342  -0.727794  0  2.418377  0
O  O36  1  0.65042156  0.18705191  0.11515015  1  0  -0.878337  0  1.837394  0  0  -0.840959  0  2.025728  0  0  -0.859382  0  1.995819  0  0  -0.616911  -0.827607  0  2.046831  0
O  O37  1  0.07184024  0.53523479  0.88487370  1  0  -0.877214  0  1.840525  0  0  -0.839825  0  2.029299  0  0  -0.858225  0  1.999317  0  0  -0.617505  -0.826455  0  2.050477  0
O  O38  1  0.34957887  0.81294302  0.88484831  1  0  -0.87831  0  1.837448  0  0  -0.840943  0  2.025732  0  0  -0.859379  0  1.99582  0  0  -0.616903  -0.827592  0  2.046833  0
O  O39  1  0.92815816  0.46476145  0.11512448  1  0  -0.877276  0  1.84045  0  0  -0.83989  0  2.029206  0  0  -0.858287  0  1.999226  0  0  -0.617502  -0.826519  0  2.050384  0
O  O40  1  0.11711539  0.28558206  0.01111669  1  0  -0.692795  0  2.042688  0  0  -0.650402  0  2.28421  0  0  -0.67683  0  2.272855  0  0  -0.353829  -0.631506  0  2.291562  0
O  O41  1  0.27440715  0.10578065  0.98854431  1  0  -0.693157  0  2.042922  0  0  -0.649973  0  2.283542  0  0  -0.676372  0  2.272219  0  0  -0.353954  -0.631034  0  2.290874  0
O  O42  1  0.88288992  0.71441289  0.98887878  1  0  -0.692949  0  2.042599  0  0  -0.650518  0  2.284139  0  0  -0.676956  0  2.272796  0  0  -0.353955  -0.631623  0  2.291491  0
O  O43  1  0.72559938  0.89421795  0.01145405  1  0  -0.693104  0  2.042962  0  0  -0.649948  0  2.283644  0  0  -0.676338  0  2.272325  0  0  -0.353915  -0.631012  0  2.290973  0
O  O44  1  0.02652439  0.23475701  0.26086239  1  0  -0.622346  0  1.877514  0  0  -0.585823  0  2.090671  0  0  -0.609989  0  2.080477  0  0  -0.342007  -0.568705  0  2.097302  0
O  O45  1  0.97347116  0.76524178  0.73913643  1  0  -0.622371  0  1.87763  0  0  -0.585822  0  2.090767  0  0  -0.609993  0  2.080572  0  0  -0.34197  -0.568704  0  2.097399  0
O  O46  1  0.76584788  0.26396961  0.83434938  1  0  -0.680337  0  1.982365  0  0  -0.645135  0  2.224027  0  0  -0.669016  0  2.215324  0  0  -0.381586  -0.628309  0  2.22959  0
O  O47  1  0.42940746  0.93078794  0.16562261  1  0  -0.680318  0  1.982998  0  0  -0.645694  0  2.225281  0  0  -0.66962  0  2.216682  0  0  -0.382437  -0.628805  0  2.230701  0
O  O48  1  0.23414686  0.73602671  0.16564866  1  0  -0.680336  0  1.982416  0  0  -0.645133  0  2.224087  0  0  -0.669017  0  2.215383  0  0  -0.381592  -0.628307  0  2.229651  0
O  O49  1  0.57059337  0.06921193  0.83437879  1  0  -0.680294  0  1.983025  0  0  -0.645679  0  2.225324  0  0  -0.669592  0  2.216704  0  0  -0.382413  -0.628791  0  2.230744  0
F  F50  1  0.23995069  0.28390887  0.76155979  1  0  -0.147501  0  1.267248  0  0  -0.105165  0  1.443336  0  0  -0.113357  0  1.43258  0  0  -0.080476  -0.09927  0  1.450793  0
F  F51  1  0.52179470  0.47782104  0.23806035  1  0  -0.147188  0  1.268897  0  0  -0.10489  0  1.445135  0  0  -0.113078  0  1.43438  0  0  -0.079526  -0.099011  0  1.452554  0
F  F52  1  0.76005420  0.71609216  0.23844215  1  0  -0.14756  0  1.267256  0  0  -0.105214  0  1.443369  0  0  -0.113404  0  1.432609  0  0  -0.080528  -0.09932  0  1.450826  0
F  F53  1  0.47820491  0.52218271  0.76193810  1  0  -0.14715  0  1.26878  0  0  -0.104834  0  1.445026  0  0  -0.113022  0  1.434272  0  0  -0.079484  -0.098955  0  1.452446  0
F  F54  1  0.04871252  0.92748649  0.39106048  1  0  -0.143574  0  1.264558  0  0  -0.102924  0  1.440211  0  0  -0.110339  0  1.428668  0  0  -0.07948  -0.097566  0  1.448219  0
F  F55  1  0.53522681  0.65708639  0.60870123  1  0  -0.144914  0  1.265136  0  0  -0.104186  0  1.441277  0  0  -0.111617  0  1.429704  0  0  -0.080515  -0.098817  0  1.44926  0
F  F56  1  0.95128710  0.07250969  0.60893889  1  0  -0.143642  0  1.264498  0  0  -0.103001  0  1.440141  0  0  -0.110415  0  1.428595  0  0  -0.079523  -0.097642  0  1.448151  0
F  F57  1  0.46477034  0.34292467  0.39130600  1  0  -0.14484  0  1.265238  0  0  -0.104142  0  1.441328  0  0  -0.111573  0  1.429757  0  0  -0.080484  -0.098774  0  1.44931  0
F  F58  1  0.26936293  0.93284883  0.62484137  1  0  -0.14377  0  1.242461  0  0  -0.099316  0  1.411354  0  0  -0.106824  0  1.399792  0  0  -0.072942  -0.093903  0  1.419369  0
F  F59  1  0.30710413  0.64406177  0.37498980  1  0  -0.143257  0  1.243026  0  0  -0.099308  0  1.411457  0  0  -0.106808  0  1.399863  0  0  -0.073416  -0.093848  0  1.419465  0
F  F60  1  0.73063791  0.06715123  0.37515398  1  0  -0.143814  0  1.242291  0  0  -0.099353  0  1.411179  0  0  -0.10686  0  1.399614  0  0  -0.072965  -0.093937  0  1.419198  0
F  F61  1  0.69290076  0.35594290  0.62501643  1  0  -0.143247  0  1.242932  0  0  -0.099288  0  1.411382  0  0  -0.10679  0  1.399789  0  0  -0.073372  -0.093828  0  1.419389  0
