# generated using pymatgen
data_FeH16C22(SN5)2
_symmetry_space_group_name_H-M   'P 1'
_cell_length_a   7.54937291
_cell_length_b   13.61636006
_cell_length_c   13.06689034
_cell_angle_alpha   74.50731340
_cell_angle_beta   73.00164265
_cell_angle_gamma   73.46945583
_symmetry_Int_Tables_number   1
_chemical_formula_structural   FeH16C22(SN5)2
_chemical_formula_sum   'Fe2 H32 C44 S4 N20'
_cell_volume   1206.39919538
_cell_formula_units_Z   2
loop_
 _symmetry_equiv_pos_site_id
 _symmetry_equiv_pos_as_xyz
  1  'x, y, z'
loop_
 _atom_site_type_symbol
 _atom_site_label
 _atom_site_symmetry_multiplicity
 _atom_site_fract_x
 _atom_site_fract_y
 _atom_site_fract_z
 _atom_site_occupancy
 _atom_site_pbe_cm5_charge
 _atom_site_pbe_ddec_charge
 _atom_site_pbe_ddec_spin_density
 _atom_site_pbe_ddec_sum_bond_order
 _atom_site_pbe_magmom
Fe  Fe0  1  0.00001169  0.99998997  0.99999911  1  0.756795  0.505973  -0.05522  3.515047  -0.024
Fe  Fe1  1  0.49999787  0.50000109  0.50000022  1  0.83329  0.647305  2.434651  3.43575  2.176
H  H2  1  0.62030510  0.10576439  0.13591775  1  0.124507  0.104549  1e-05  0.988368  0.0
H  H3  1  0.86717852  0.86293835  0.90974036  1  0.123204  0.101281  6e-06  1.001259  0.0
H  H4  1  0.14241418  0.63972912  0.59007908  1  0.123246  0.100645  -0.000634  1.001804  0.0
H  H5  1  0.64162944  0.60638963  0.63695092  1  0.117581  0.094628  0.000507  0.993753  0.001
H  H6  1  0.37969581  0.89423744  0.86407941  1  0.124507  0.104566  1e-05  0.988407  0.0
H  H7  1  0.13283512  0.13705542  0.09025673  1  0.123226  0.101312  6e-06  1.001188  0.0
H  H8  1  0.85758517  0.36027350  0.40992382  1  0.123236  0.100608  -0.000634  1.001858  0.0
H  H9  1  0.35837721  0.39360658  0.36305110  1  0.117574  0.094643  0.000506  0.993698  0.001
H  H10  1  0.41702975  0.28503947  0.15894542  1  0.108338  0.113964  5.8e-05  1.023066  0.0
H  H11  1  0.86632635  0.84298225  0.72491933  1  0.106557  0.111952  2.9e-05  1.020244  0.0
H  H12  1  0.93369150  0.65882474  0.77458751  1  0.105807  0.111786  -6.7e-05  1.022616  0.0
H  H13  1  0.64167841  0.78510667  0.65918413  1  0.104647  0.108534  0.000416  1.026599  0.001
H  H14  1  0.58295929  0.71496176  0.84105175  1  0.108336  0.113948  5.8e-05  1.023143  0.0
H  H15  1  0.13368149  0.15701567  0.27507780  1  0.106525  0.111908  2.9e-05  1.020269  0.0
H  H16  1  0.06630825  0.34117618  0.22541537  1  0.105802  0.11182  -6.7e-05  1.02262  0.0
H  H17  1  0.35832702  0.21489117  0.34081709  1  0.104663  0.108599  0.000416  1.026483  0.001
H  H18  1  0.80757109  0.41569530  0.87615064  1  0.107304  0.114797  -0.000353  1.04719  0.0
H  H19  1  0.08274217  0.12330053  0.58805987  1  0.105668  0.112892  3e-06  1.042566  0.0
H  H20  1  0.29445906  0.37490282  0.90994489  1  0.103951  0.111684  -0.000249  1.050077  0.0
H  H21  1  0.40196623  0.91668976  0.37703717  1  0.105629  0.113157  0.000315  1.046913  0.001
H  H22  1  0.19241143  0.58431160  0.12384741  1  0.107298  0.114817  -0.000353  1.047065  0.0
H  H23  1  0.91725325  0.87670149  0.41194139  1  0.105653  0.11287  3e-06  1.042559  0.0
H  H24  1  0.70554483  0.62509992  0.09005719  1  0.103943  0.111708  -0.000249  1.049969  0.0
H  H25  1  0.59804292  0.08330813  0.62296241  1  0.105612  0.113133  0.000314  1.046992  0.001
H  H26  1  0.00053606  0.23533678  0.87002025  1  0.113083  0.084349  1.4e-05  1.043104  0.0
H  H27  1  0.08623260  0.12909196  0.77463127  1  0.113495  0.083623  0.000333  1.04794  0.0
H  H28  1  0.48979988  0.36881755  0.72380009  1  0.112786  0.083477  -0.000247  1.051171  0.0
H  H29  1  0.39488943  0.73722480  0.37229505  1  0.107176  0.076213  0.000529  1.047025  0.001
H  H30  1  0.99945610  0.76467186  0.12997944  1  0.113068  0.084311  1.4e-05  1.043179  0.0
H  H31  1  0.91376400  0.87090764  0.22536997  1  0.113488  0.083588  0.000333  1.047963  0.0
H  H32  1  0.51020127  0.63118562  0.27620118  1  0.112792  0.083492  -0.000246  1.051138  0.0
H  H33  1  0.60511714  0.26277326  0.62770617  1  0.107177  0.076188  0.000529  1.047118  0.001
C  C34  1  0.34902255  0.09828315  0.89918646  1  0.139528  0.241075  8.1e-05  4.333577  0.0
C  C35  1  0.84718962  0.40262171  0.60119819  1  0.150848  0.246938  0.00279  4.317494  0.008
C  C36  1  0.15281017  0.59737725  0.39879895  1  0.150867  0.246984  0.002791  4.317317  0.008
C  C37  1  0.65097908  0.90171303  0.10081475  1  0.13963  0.241189  8.2e-05  4.333731  0.0
C  C38  1  0.65647504  0.17691583  0.08169737  1  0.051353  0.08936  2.9e-05  3.944073  0.0
C  C39  1  0.91580632  0.91791316  0.83633406  1  0.043407  0.084859  0.000105  3.925428  0.0
C  C40  1  0.17159557  0.58354577  0.66307227  1  0.042727  0.086417  -0.013761  3.935222  -0.006
C  C41  1  0.58707909  0.67750557  0.58247775  1  0.042064  0.08801  -0.006118  3.970336  -0.002
C  C42  1  0.34351708  0.82308857  0.91830064  1  0.051223  0.089079  2.9e-05  3.944115  0.0
C  C43  1  0.08420385  0.08208257  0.16366305  1  0.043463  0.084963  0.000105  3.925302  0.0
C  C44  1  0.82840341  0.41645588  0.33693062  1  0.042711  0.08641  -0.013761  3.935317  -0.006
C  C45  1  0.41292512  0.32249389  0.41752266  1  0.042085  0.088028  -0.006119  3.970079  -0.002
C  C46  1  0.54491801  0.27540430  0.09364312  1  -0.074938  -0.186663  -0.000175  3.935025  0.0
C  C47  1  0.91471907  0.90748007  0.73425842  1  -0.077865  -0.187473  0.000215  3.944637  0.0
C  C48  1  0.05651374  0.59365240  0.76533774  1  -0.08081  -0.191692  -0.016797  3.946016  -0.009
C  C49  1  0.58812680  0.77550084  0.59443719  1  -0.081076  -0.192957  -0.00383  3.9487  -0.001
C  C50  1  0.45506691  0.72459856  0.90635570  1  -0.074884  -0.186485  -0.000176  3.935143  0.0
C  C51  1  0.08528566  0.09251732  0.26573789  1  -0.077872  -0.187541  0.000215  3.944552  0.0
C  C52  1  0.94348716  0.40634876  0.23466515  1  -0.080835  -0.191814  -0.016797  3.946174  -0.009
C  C53  1  0.41188079  0.22449438  0.40556727  1  -0.081155  -0.193119  -0.00383  3.948683  -0.001
C  C54  1  0.59717397  0.36405251  0.01996285  1  0.103364  0.202934  7e-06  4.028734  0.0
C  C55  1  0.97669066  0.98055938  0.64110983  1  0.103211  0.204528  5.5e-05  4.053543  0.0
C  C56  1  0.09801231  0.51981318  0.85849229  1  0.099366  0.202307  -0.017095  4.055171  -0.008
C  C57  1  0.52024012  0.86445698  0.52069492  1  0.100128  0.201108  -0.009272  4.04521  -0.004
C  C58  1  0.40280854  0.63595095  0.98003434  1  0.103325  0.20285  8e-06  4.02894  0.0
C  C59  1  0.02331037  0.01944140  0.35888897  1  0.103196  0.204576  5.5e-05  4.053449  0.0
C  C60  1  0.90198781  0.48018870  0.14151060  1  0.099369  0.202378  -0.017095  4.055076  -0.008
C  C61  1  0.47976596  0.13554118  0.47930467  1  0.100188  0.20122  -0.009269  4.045266  -0.004
C  C62  1  0.76195484  0.34959315  0.93586979  1  -0.075919  -0.177994  -0.000393  3.909769  0.0
C  C63  1  0.03531419  0.06368387  0.65688734  1  -0.079349  -0.182316  0.000149  3.924594  0.0
C  C64  1  0.25620004  0.43584290  0.84185471  1  -0.081535  -0.185972  -0.018952  3.924405  -0.011
C  C65  1  0.45329403  0.85042368  0.43715985  1  -0.079656  -0.180169  -0.006263  3.917245  -0.003
C  C66  1  0.23803096  0.65041470  0.06412580  1  -0.075937  -0.178093  -0.000393  3.909684  0.0
C  C67  1  0.96468458  0.93631724  0.34311228  1  -0.079279  -0.182253  0.000149  3.924627  0.0
C  C68  1  0.74380233  0.56415864  0.15814736  1  -0.081517  -0.18602  -0.018951  3.924402  -0.011
C  C69  1  0.54671915  0.14957030  0.56284215  1  -0.079636  -0.180163  -0.006265  3.917119  -0.003
C  C70  1  0.86847935  0.24877385  0.93161911  1  0.051607  0.093466  9e-05  3.934171  0.0
C  C71  1  0.03551150  0.06766586  0.76115386  1  0.044992  0.092035  0.000338  3.918358  0.0
C  C72  1  0.36531334  0.43187185  0.73724539  1  0.043427  0.094645  -0.006892  3.923251  -0.002
C  C73  1  0.45186154  0.74984451  0.43403179  1  0.042674  0.092547  -0.00297  3.958282  -0.001
C  C74  1  0.13151081  0.75123370  0.06837893  1  0.051644  0.093587  9e-05  3.933929  0.0
C  C75  1  0.96449041  0.93233314  0.23884655  1  0.044971  0.092046  0.000338  3.918438  0.0
C  C76  1  0.63468891  0.56813075  0.26275506  1  0.043428  0.094643  -0.006892  3.923267  -0.002
C  C77  1  0.54814381  0.25015517  0.56596863  1  0.042688  0.092571  -0.002969  3.958352  -0.001
S  S78  1  0.52601603  0.15437078  0.85207031  1  -0.16151  -0.301953  -0.006293  2.333886  -0.004
S  S79  1  0.03233727  0.34990066  0.64915643  1  -0.118743  -0.241192  0.031274  2.341085  0.047
S  S80  1  0.96766535  0.65010014  0.35083746  1  -0.11874  -0.2412  0.031276  2.341032  0.047
S  S81  1  0.47397804  0.84562979  0.14793340  1  -0.161538  -0.301991  -0.006292  2.333894  -0.004
N  N82  1  0.21769798  0.05732007  0.93442668  1  -0.432451  -0.456585  -0.001913  3.5738  -0.001
N  N83  1  0.70976111  0.44144351  0.56492395  1  -0.428475  -0.458577  0.007051  3.522979  0.005
N  N84  1  0.29023398  0.55855491  0.43507728  1  -0.428476  -0.458632  0.00705  3.522946  0.005
N  N85  1  0.78230968  0.94267053  0.06557202  1  -0.432511  -0.456655  -0.001913  3.573852  -0.001
N  N86  1  0.81713332  0.16415076  0.00256908  1  -0.2816  -0.1564  8.7e-05  3.478469  0.0
N  N87  1  0.97842038  0.99613151  0.85116841  1  -0.321308  -0.156465  0.00046  3.578549  0.001
N  N88  1  0.32741379  0.50442675  0.64778846  1  -0.331604  -0.179191  -0.04743  3.60972  -0.04
N  N89  1  0.51768444  0.66424419  0.50432748  1  -0.30996  -0.22016  0.032014  3.504293  0.054
N  N90  1  0.18285995  0.83585731  0.99742978  1  -0.281521  -0.156174  8.7e-05  3.47855  0.0
N  N91  1  0.02159068  0.00386243  0.14883032  1  -0.321381  -0.156588  0.00046  3.578667  0.001
N  N92  1  0.67258392  0.49557573  0.35221280  1  -0.331547  -0.17908  -0.04743  3.609599  -0.04
N  N93  1  0.48232078  0.33575242  0.49567618  1  -0.309972  -0.220168  0.032014  3.504279  0.054
N  N94  1  0.48161338  0.46181927  0.03873632  1  -0.143683  -0.126696  -0.00037  3.248061  0.0
N  N95  1  0.97792453  0.96336975  0.54048149  1  -0.159702  -0.148841  0.000256  3.281212  0.001
N  N96  1  0.98051008  0.53673514  0.95947175  1  -0.166645  -0.158315  -0.071536  3.27288  -0.051
N  N97  1  0.52047154  0.96168877  0.53829986  1  -0.149899  -0.13483  -0.035327  3.260057  -0.025
N  N98  1  0.51836606  0.53818446  0.96126088  1  -0.143816  -0.126818  -0.00037  3.24806  0.0
N  N99  1  0.02207612  0.03663007  0.45951730  1  -0.159702  -0.148859  0.000256  3.281277  0.001
N  N100  1  0.01949082  0.46326601  0.04053114  1  -0.166529  -0.158139  -0.071538  3.272793  -0.051
N  N101  1  0.47953580  0.03830856  0.46170136  1  -0.149867  -0.134838  -0.035332  3.260059  -0.025
