# generated using pymatgen
data_Zn4H9C24O13F3
_symmetry_space_group_name_H-M   'P 1'
_cell_length_a   14.32965398
_cell_length_b   15.98593814
_cell_length_c   16.91537620
_cell_angle_alpha   65.85933636
_cell_angle_beta   62.95348691
_cell_angle_gamma   61.90483601
_symmetry_Int_Tables_number   1
_chemical_formula_structural   Zn4H9C24O13F3
_chemical_formula_sum   'Zn8 H18 C48 O26 F6'
_cell_volume   2949.34482656
_cell_formula_units_Z   2
loop_
 _symmetry_equiv_pos_site_id
 _symmetry_equiv_pos_as_xyz
  1  'x, y, z'
loop_
 _atom_site_type_symbol
 _atom_site_label
 _atom_site_symmetry_multiplicity
 _atom_site_fract_x
 _atom_site_fract_y
 _atom_site_fract_z
 _atom_site_occupancy
 _atom_site_pbe_bader_charge
 _atom_site_pbe_bader_spin_density
 _atom_site_pbe_cm5_charge
 _atom_site_pbe_ddec_charge
 _atom_site_pbe_ddec_spin_density
 _atom_site_pbe_ddec_sum_bond_order
 _atom_site_pbe_magmom
Zn  Zn0  1  0.01548756  0.84547191  0.00369139  1  1.322753  0  0.681358  0.991393  0  2.238834  0
Zn  Zn1  1  0.06961489  0.05033132  0.91732591  1  1.318897  0  0.677317  0.966803  0  2.393928  0
Zn  Zn2  1  0.82317004  0.05863925  0.02659134  1  1.316092  0  0.676465  0.962607  0  2.421262  0
Zn  Zn3  1  0.94462651  0.01538582  0.83105516  1  1.311976  0  0.673505  0.956004  0  2.395054  0
Zn  Zn4  1  0.38296626  0.62875966  0.46005644  1  1.318503  0  0.678088  0.969888  0  2.359377  0
Zn  Zn5  1  0.44164115  0.45742432  0.36030136  1  1.32819  0  0.68307  0.992645  0  2.293305  0
Zn  Zn6  1  0.36879840  0.42914881  0.57334522  1  1.312213  0  0.676184  0.955532  0  2.40492  0
Zn  Zn7  1  0.60923207  0.45411820  0.44221181  1  1.313916  0  0.675178  0.96713  0  2.356571  0
H  H8  1  0.46825655  0.79412879  0.19686366  1  0.098276  0  0.117111  0.140962  0  0.978244  0
H  H9  1  0.23515269  0.71433588  0.17128198  1  0.123849  0  0.115545  0.128714  0  0.985636  0
H  H10  1  0.34377999  0.95183933  0.96855936  1  0.136232  0  0.119814  0.148629  0  0.979011  0
H  H11  1  0.53226221  0.77514911  0.50051487  1  0.138331  0  0.12024  0.14865  0  0.973204  0
H  H12  1  0.75648471  0.69717773  0.24376110  1  0.112886  0  0.1135  0.125124  0  0.988477  0
H  H13  1  0.70707096  0.96526921  0.28816889  1  0.130746  0  0.119476  0.145024  0  0.973725  0
H  H14  1  0.01198633  0.56731111  0.69960887  1  0.118469  0  0.119751  0.148644  0  0.974816  0
H  H15  1  0.17111533  0.72722512  0.71835571  1  0.087154  0  0.112266  0.123477  0  0.986161  0
H  H16  1  0.83235483  0.74448120  0.89426111  1  0.11194  0  0.119684  0.143835  0  0.968784  0
H  H17  1  0.87674681  0.39583113  0.23741412  1  0.112672  0  0.121569  0.150487  0  0.969025  0
H  H18  1  0.72792323  0.25476249  0.18102294  1  0.119982  0  0.112976  0.125906  0  0.991406  0
H  H19  1  0.07218165  0.23355663  0.02980786  1  0.124431  0  0.119936  0.147331  0  0.976326  0
H  H20  1  0.39547194  0.20457771  0.38257105  1  0.130543  0  0.121761  0.147681  0  0.970198  0
H  H21  1  0.22256483  0.22275993  0.66443312  1  0.130063  0  0.114427  0.129275  0  0.993628  0
H  H22  1  0.21108051  0.01259816  0.57373802  1  0.132801  0  0.121402  0.148939  0  0.972917  0
H  H23  1  0.43435257  0.52018965  0.75610191  1  0.123105  0  0.119369  0.144365  0  0.971293  0
H  H24  1  0.70190353  0.24634008  0.70955459  1  0.088429  0  0.114758  0.12839  0  0.98573  0
H  H25  1  0.61133206  0.33675938  0.95057651  1  0.146701  0  0.120752  0.148932  0  0.974497  0
C  C26  1  0.41571249  0.87468369  0.07748693  1  0.356947  0  0.099289  0.293517  0  4.096555  0
C  C27  1  0.41752378  0.80390066  0.15938346  1  0.045424  0  -0.082652  -0.206091  0  3.940565  0
C  C28  1  0.35287145  0.74522394  0.19263481  1  0.045119  0  -0.010019  -0.005544  0  3.975016  0
C  C29  1  0.28567872  0.75963953  0.14534317  1  -0.028536  0  -0.073226  -0.116652  0  3.906106  0
C  C30  1  0.28028058  0.83601178  0.06585921  1  -0.001768  0  -0.013319  -0.015539  0  3.975437  0
C  C31  1  0.34718460  0.89323242  0.03072951  1  0.04446  0  -0.08356  -0.205899  0  3.940504  0
C  C32  1  0.19955367  0.86409664  0.01827737  1  1.547316  0  0.230478  0.609451  0  4.148155  0
C  C33  1  0.35847723  0.66897012  0.28088713  1  1.564451  0  0.234855  0.620982  0  4.135418  0
C  C34  1  0.62202928  0.87194196  0.40163677  1  0.461295  0  0.099679  0.295366  0  4.097126  0
C  C35  1  0.59272990  0.79006829  0.43302046  1  -0.008327  0  -0.083369  -0.208042  0  3.939729  0
C  C36  1  0.64125251  0.72732911  0.37535371  1  -0.001701  0  -0.010449  -0.00505  0  3.980478  0
C  C37  1  0.71834554  0.74677982  0.28782008  1  -0.064633  0  -0.076478  -0.127204  0  3.915107  0
C  C38  1  0.73948441  0.83399558  0.25595159  1  0.019588  0  -0.008422  0.000926  0  3.968985  0
C  C39  1  0.69139883  0.89707809  0.31324840  1  0.03817  0  -0.082915  -0.207927  0  3.935894  0
C  C40  1  0.80614324  0.86976343  0.15901497  1  1.588705  0  0.232555  0.613315  0  4.148742  0
C  C41  1  0.60014893  0.64470579  0.40837780  1  1.547714  0  0.225224  0.601366  0  4.156691  0
C  C42  1  0.91479926  0.65345699  0.79977391  1  0.439738  0  0.101216  0.302313  0  4.094418  0
C  C43  1  0.00933061  0.61623631  0.73085010  1  -0.02597  0  -0.08853  -0.221156  0  3.948617  0
C  C44  1  0.10113397  0.64461091  0.70107179  1  0.036491  0  -0.010774  0.000329  0  3.992856  0
C  C45  1  0.09888086  0.70602362  0.74232105  1  -0.005064  0  -0.080342  -0.137545  0  3.926065  0
C  C46  1  0.00306854  0.74013630  0.81319945  1  -0.035097  0  -0.003415  0.015163  0  3.976725  0
C  C47  1  0.90902737  0.71552009  0.84144234  1  0.06573  0  -0.086601  -0.2236  0  3.942669  0
C  C48  1  0.99455198  0.81079766  0.85554800  1  1.576938  0  0.238549  0.626193  0  4.132393  0
C  C49  1  0.20105222  0.60727605  0.62459483  1  1.575634  0  0.228794  0.60444  0  4.153039  0
C  C50  1  0.98142957  0.31909883  0.13021295  1  0.399395  0  0.10068  0.294807  0  4.092229  0
C  C51  1  0.88283026  0.35270671  0.19828107  1  0.068282  0  -0.079542  -0.205293  0  3.928204  0
C  C52  1  0.79066822  0.33028677  0.21554341  1  0.03557  0  -0.010982  -0.006527  0  3.984085  0
C  C53  1  0.79919450  0.27286772  0.16701843  1  0.017858  0  -0.074808  -0.11721  0  3.917033  0
C  C54  1  0.90164695  0.23627064  0.10164062  1  -0.044197  0  -0.014009  -0.015429  0  3.988208  0
C  C55  1  0.99327928  0.26078419  0.08163872  1  -0.008187  0  -0.080437  -0.202605  0  3.934202  0
C  C56  1  0.91601806  0.16824651  0.05397602  1  1.559949  0  0.230375  0.608679  0  4.159292  0
C  C57  1  0.68556694  0.36809998  0.28909342  1  1.563115  0  0.231222  0.613684  0  4.156662  0
C  C58  1  0.30916294  0.10263588  0.47325338  1  0.440522  0  0.100892  0.292372  0  4.087697  0
C  C59  1  0.34402356  0.17929587  0.45173138  1  -0.000154  0  -0.076999  -0.195799  0  3.923714  0
C  C60  1  0.31204663  0.22269782  0.52153569  1  0.003324  0  -0.012388  -0.015234  0  3.984075  0
C  C61  1  0.24630732  0.18944958  0.61027899  1  0.040285  0  -0.073834  -0.11228  0  3.910554  0
C  C62  1  0.20845441  0.11517533  0.62862197  1  -0.050293  0  -0.011349  -0.011271  0  3.987606  0
C  C63  1  0.24006417  0.07072047  0.55965747  1  0.021605  0  -0.07968  -0.201372  0  3.926558  0
C  C64  1  0.13214933  0.08414903  0.72166081  1  1.541359  0  0.231457  0.610137  0  4.151559  0
C  C65  1  0.34692624  0.30569566  0.50172077  1  1.563062  0  0.233597  0.61397  0  4.144811  0
C  C66  1  0.52197554  0.43685980  0.85476329  1  0.422856  0  0.101657  0.298967  0  4.092864  0
C  C67  1  0.50062239  0.45416880  0.77610045  1  0.007443  0  -0.083247  -0.213568  0  3.938303  0
C  C68  1  0.56634223  0.38479546  0.72378097  1  0.078624  0  -0.007671  0.002911  0  3.991763  0
C  C69  1  0.65032496  0.30000680  0.75051223  1  -0.028284  0  -0.077561  -0.126861  0  3.925192  0
C  C70  1  0.66383330  0.28161880  0.83362317  1  0.018248  0  -0.012021  -0.008477  0  3.996525  0
C  C71  1  0.60011964  0.35073816  0.88630182  1  -0.01984  0  -0.083791  -0.211008  0  3.939444  0
C  C72  1  0.74352747  0.18606202  0.86877061  1  1.55963  0  0.231671  0.609758  0  4.157761  0
C  C73  1  0.54098092  0.39914784  0.64169596  1  1.573544  0  0.235267  0.621767  0  4.14298  0
O  O74  1  0.96471441  0.98735638  0.94766333  1  -1.229935  0  -0.5757  -1.03856  0  2.549809  0
O  O75  1  0.19659848  0.94064215  0.95184822  1  -1.180461  0  -0.323308  -0.560903  0  2.352871  0
O  O76  1  0.13933166  0.81199750  0.04734749  1  -1.145606  0  -0.308653  -0.536821  0  2.275678  0
O  O77  1  0.36388858  0.58449009  0.28757552  1  -1.161495  0  -0.312849  -0.544115  0  2.275456  0
O  O78  1  0.35924025  0.69740168  0.34102784  1  -1.165673  0  -0.316163  -0.550547  0  2.32614  0
O  O79  1  0.76474231  0.96193560  0.12725540  1  -1.179408  0  -0.317589  -0.548691  0  2.360204  0
O  O80  1  0.89478094  0.80956495  0.11746196  1  -1.166506  0  -0.310689  -0.541424  0  2.263974  0
O  O81  1  0.66432463  0.56684396  0.38018386  1  -1.151659  0  -0.311017  -0.534128  0  2.254898  0
O  O82  1  0.50001918  0.65878358  0.46424673  1  -1.187043  0  -0.324441  -0.565958  0  2.322702  0
O  O83  1  0.93402046  0.89890912  0.82883834  1  -1.164911  0  -0.312625  -0.537599  0  2.301853  0
O  O84  1  0.04535311  0.77837664  0.91309374  1  -1.152397  0  -0.30905  -0.543037  0  2.260694  0
O  O85  1  0.21745736  0.52547845  0.61564262  1  -1.176607  0  -0.319288  -0.55221  0  2.310968  0
O  O86  1  0.26233876  0.65993367  0.57285458  1  -1.168319  0  -0.310457  -0.534585  0  2.294668  0
O  O87  1  0.83731236  0.13532519  0.08418276  1  -1.160224  0  -0.31464  -0.542595  0  2.326874  0
O  O88  1  0.00691036  0.14751392  0.98750164  1  -1.174515  0  -0.315495  -0.550218  0  2.332658  0
O  O89  1  0.70088604  0.37157405  0.35616467  1  -1.172265  0  -0.318224  -0.549325  0  2.34875  0
O  O90  1  0.59201777  0.39388617  0.27892862  1  -1.159179  0  -0.310813  -0.54249  0  2.283811  0
O  O91  1  0.08042554  0.03308064  0.72922597  1  -1.166897  0  -0.314685  -0.546126  0  2.314434  0
O  O92  1  0.12369744  0.11173847  0.78648111  1  -1.161238  0  -0.313639  -0.541973  0  2.313374  0
O  O93  1  0.34564686  0.32045437  0.57112677  1  -1.149443  0  -0.312294  -0.535382  0  2.334119  0
O  O94  1  0.37399282  0.35464633  0.41867737  1  -1.172023  0  -0.310527  -0.547465  0  2.311583  0
O  O95  1  0.81833943  0.13532854  0.81120736  1  -1.173362  0  -0.311654  -0.539585  0  2.325563  0
O  O96  1  0.72887634  0.16270632  0.95415646  1  -1.163053  0  -0.313717  -0.545063  0  2.349586  0
O  O97  1  0.43922044  0.41492740  0.65637497  1  -1.161757  0  -0.312044  -0.543528  0  2.319754  0
O  O98  1  0.62162967  0.39321037  0.56634152  1  -1.170801  0  -0.312642  -0.54263  0  2.29056  0
O  O99  1  0.45314768  0.49145666  0.45332913  1  -1.231973  0  -0.578399  -1.042475  0  2.55097  0
F  F100  1  0.48184434  0.92926939  0.04307262  1  -0.639335  0  -0.114683  -0.161416  0  1.283536  0
F  F101  1  0.57785381  0.93179721  0.45816402  1  -0.641609  0  -0.10982  -0.159026  0  1.303919  0
F  F102  1  0.82366676  0.62885117  0.82742612  1  -0.626689  0  -0.11281  -0.161244  0  1.286664  0
F  F103  1  0.07011376  0.34304568  0.11144182  1  -0.628865  0  -0.111726  -0.158425  0  1.286097  0
F  F104  1  0.34287832  0.05778956  0.40664902  1  -0.631379  0  -0.110274  -0.158278  0  1.298381  0
F  F105  1  0.46177870  0.50589830  0.90387725  1  -0.640859  0  -0.110653  -0.157774  0  1.288714  0
