# generated using pymatgen
data_MnH5C6N2O5
_symmetry_space_group_name_H-M   'P 1'
_cell_length_a   7.60016796
_cell_length_b   9.43334099
_cell_length_c   11.12941957
_cell_angle_alpha   90.00250089
_cell_angle_beta   89.99577872
_cell_angle_gamma   100.08358953
_symmetry_Int_Tables_number   1
_chemical_formula_structural   MnH5C6N2O5
_chemical_formula_sum   'Mn4 H20 C24 N8 O20'
_cell_volume   785.59823489
_cell_formula_units_Z   4
loop_
 _symmetry_equiv_pos_site_id
 _symmetry_equiv_pos_as_xyz
  1  'x, y, z'
loop_
 _atom_site_type_symbol
 _atom_site_label
 _atom_site_symmetry_multiplicity
 _atom_site_fract_x
 _atom_site_fract_y
 _atom_site_fract_z
 _atom_site_occupancy
 _atom_site_hle17_ddec_charge
 _atom_site_hle17_ddec_spin_density
 _atom_site_hle17_ddec_sum_bond_order
 _atom_site_hle17_magmom
 _atom_site_hse06_10hf_ddec_charge
 _atom_site_hse06_10hf_ddec_spin_density
 _atom_site_hse06_10hf_ddec_sum_bond_order
 _atom_site_hse06_10hf_magmom
 _atom_site_hse06_ddec_charge
 _atom_site_hse06_ddec_spin_density
 _atom_site_hse06_ddec_sum_bond_order
 _atom_site_hse06_magmom
 _atom_site_pbe_cm5_charge
 _atom_site_pbe_ddec_charge
 _atom_site_pbe_ddec_spin_density
 _atom_site_pbe_ddec_sum_bond_order
 _atom_site_pbe_magmom
Mn  Mn0  1  0.78450170  0.48811180  0.32789219  1  1.16262  -4.796907  1.768803  -4.679  1.001643  -4.720296  2.26776  -4.536  1.058928  -4.764169  2.197573  -4.6  0.594706  0.958858  -4.670429  2.320406  -4.467
Mn  Mn1  1  0.71551879  0.01187822  0.82790760  1  1.162695  -4.796904  1.768594  -4.679  1.001723  -4.720245  2.267528  -4.536  1.059009  -4.764116  2.197343  -4.6  0.594708  0.958937  -4.670383  2.320161  -4.467
Mn  Mn2  1  0.21552108  0.51187706  0.67210197  1  1.162674  -4.796962  1.768618  -4.679  1.001745  -4.720298  2.267525  -4.536  1.059033  -4.764163  2.197342  -4.6  0.594673  0.958963  -4.670444  2.320161  -4.467
Mn  Mn3  1  0.28446505  0.98813413  0.17209106  1  1.162567  -4.796919  1.768828  -4.679  1.001632  -4.720197  2.26776  -4.536  1.058924  -4.764074  2.197566  -4.6  0.594685  0.95885  -4.670324  2.320395  -4.467
H  H4  1  0.92977432  0.69665706  0.09451723  1  0.093172  0.000238  0.958993  0.0  0.100242  -0.000251  1.021276  0.0  0.10361  -1.7e-05  1.017954  0.0  0.123765  0.097476  -0.000514  1.023992  -0.001
H  H5  1  0.57021344  0.80333334  0.59452023  1  0.093267  0.000244  0.958838  0.0  0.100332  -0.00025  1.021123  0.0  0.103714  -1.7e-05  1.017791  0.0  0.123734  0.097545  -0.000513  1.02387  -0.001
H  H6  1  0.07022149  0.30333451  0.90548682  1  0.093302  0.000237  0.958813  0.0  0.100368  -0.00025  1.021106  0.0  0.103746  -1.7e-05  1.017785  0.0  0.123787  0.097599  -0.000513  1.023828  -0.001
H  H7  1  0.42978398  0.19667009  0.40548382  1  0.093282  0.000237  0.958865  0.0  0.100351  -0.00025  1.021138  0.0  0.103731  -1.6e-05  1.017811  0.0  0.123744  0.097583  -0.000513  1.023862  -0.001
H  H8  1  0.89381589  0.67262842  0.86584992  1  0.137989  0.000345  0.948112  0.0  0.143521  0.000315  1.009702  0.0  0.147686  0.000425  1.008061  0.0  0.118591  0.140338  0.000199  1.011229  0.0
H  H9  1  0.60618004  0.82736494  0.36584926  1  0.137894  0.000347  0.948113  0.0  0.143487  0.000315  1.009699  0.0  0.147654  0.000425  1.008064  0.0  0.118601  0.140304  0.000199  1.011226  0.0
H  H10  1  0.10619226  0.32737047  0.13415593  1  0.137965  0.000348  0.948176  0.0  0.143505  0.000316  1.009777  0.0  0.147673  0.000425  1.008134  0.0  0.1186  0.140322  0.000199  1.011305  0.0
H  H11  1  0.39382469  0.17263077  0.63416018  1  0.137866  0.000352  0.948072  0.0  0.143455  0.000315  1.009648  0.0  0.147614  0.000425  1.008013  0.0  0.118585  0.140269  0.000199  1.011176  0.0
H  H12  1  0.69356610  0.44760311  0.78872461  1  0.099574  0.000621  0.942704  0.0  0.105053  0.000479  1.0065  0.0  0.10898  0.000566  1.002458  0.0  0.123698  0.101736  0.000372  1.010011  0.0
H  H13  1  0.80642846  0.05239794  0.28872340  1  0.099612  0.000628  0.94266  0.0  0.105129  0.000479  1.006404  0.0  0.109057  0.000565  1.00236  0.0  0.12371  0.101812  0.000372  1.009916  0.0
H  H14  1  0.30642900  0.55240685  0.21127496  1  0.09961  0.000619  0.942646  0.0  0.105116  0.000479  1.006426  0.0  0.109047  0.000566  1.002374  0.0  0.123715  0.1018  0.000372  1.009939  0.0
H  H15  1  0.19356759  0.94758929  0.71127616  1  0.099584  0.000621  0.942606  0.0  0.105082  0.00048  1.006406  0.0  0.109013  0.000566  1.002358  0.0  0.123689  0.101765  0.000372  1.009914  0.0
H  H16  1  0.11107566  0.44815611  0.39906494  1  0.421738  0.000488  0.878441  -0.001  0.392482  -0.000315  0.939876  -0.002  0.402555  1.7e-05  0.925376  -0.002  0.299454  0.385287  -0.000644  0.950159  -0.002
H  H17  1  0.38891494  0.05183342  0.89907126  1  0.421593  0.000489  0.87863  -0.001  0.392318  -0.000315  0.940084  -0.002  0.402401  1.7e-05  0.925574  -0.002  0.299412  0.385123  -0.000645  0.950367  -0.002
H  H18  1  0.88893977  0.55182965  0.60093372  1  0.421605  0.000488  0.878607  -0.001  0.392329  -0.000315  0.940088  -0.002  0.402405  1.7e-05  0.925579  -0.002  0.299358  0.385132  -0.000644  0.950374  -0.002
H  H19  1  0.61106156  0.94817584  0.10092831  1  0.42161  0.000489  0.878609  -0.001  0.392295  -0.000315  0.940134  -0.002  0.402387  1.7e-05  0.92561  -0.002  0.299371  0.3851  -0.000645  0.950416  -0.002
H  H20  1  0.97950988  0.29453754  0.39817845  1  0.395489  -8.2e-05  0.917967  -0.001  0.351291  -0.00095  1.006851  -0.002  0.363269  -0.000617  0.989843  -0.002  0.287062  0.342972  -0.001235  1.018562  -0.002
H  H21  1  0.52048400  0.20545551  0.89818214  1  0.39538  -8.1e-05  0.91809  -0.001  0.351172  -0.000951  1.007009  -0.002  0.363152  -0.000618  0.989999  -0.002  0.28703  0.342852  -0.001235  1.018722  -0.002
H  H22  1  0.02049850  0.70545161  0.60181842  1  0.395474  -8.2e-05  0.917942  -0.001  0.351264  -0.00095  1.006872  -0.002  0.363243  -0.000617  0.989863  -0.002  0.287057  0.342944  -0.001234  1.018586  -0.002
H  H23  1  0.47949982  0.79455144  0.10180934  1  0.395401  -8.1e-05  0.918059  -0.001  0.351175  -0.00095  1.006996  -0.002  0.363157  -0.000618  0.989985  -0.002  0.28703  0.342855  -0.001235  1.018709  -0.002
C  C24  1  0.84435040  0.60572204  0.05138608  1  0.187596  -0.0034  3.635794  -0.004  0.151195  -0.006034  3.89665  -0.005  0.16115  -0.00477  3.910872  -0.004  0.073435  0.144445  -0.007858  3.887969  -0.006
C  C25  1  0.65564584  0.89426773  0.55138813  1  0.187308  -0.003477  3.635494  -0.004  0.150944  -0.006032  3.896401  -0.005  0.160883  -0.004743  3.910643  -0.004  0.073354  0.144212  -0.007854  3.887721  -0.006
C  C26  1  0.15565669  0.39427254  0.94861528  1  0.187445  -0.003345  3.635572  -0.004  0.151043  -0.006032  3.896479  -0.005  0.160981  -0.004778  3.910718  -0.004  0.073398  0.144297  -0.007854  3.887797  -0.006
C  C27  1  0.34434504  0.10573583  0.44861233  1  0.187408  -0.003365  3.635554  -0.004  0.15105  -0.006039  3.896427  -0.005  0.160993  -0.004769  3.910661  -0.004  0.073447  0.144303  -0.007854  3.887745  -0.006
C  C28  1  0.82575698  0.59154799  0.92743377  1  -0.144625  0.001836  3.65529  0.001  -0.160172  -1.6e-05  3.916358  0.0  -0.169514  0.001677  3.936074  0.0  -0.069279  -0.155015  -0.002092  3.904761  -0.002
C  C29  1  0.67423336  0.90844442  0.42743536  1  -0.144307  0.001941  3.654884  0.001  -0.160065  -1.6e-05  3.916151  0.0  -0.169415  0.001639  3.935878  0.0  -0.069287  -0.154909  -0.00209  3.904547  -0.002
C  C30  1  0.17424931  0.40844336  0.07256939  1  -0.144572  0.001743  3.65518  0.001  -0.16017  -1.8e-05  3.916331  0.0  -0.169515  0.001695  3.936056  0.0  -0.069293  -0.155013  -0.002092  3.904733  -0.002
C  C31  1  0.32575515  0.09155486  0.57257139  1  -0.144409  0.001763  3.65498  0.001  -0.160066  -9e-06  3.916145  0.0  -0.169405  0.001683  3.935864  0.0  -0.069286  -0.154911  -0.002094  3.904543  -0.002
C  C32  1  0.71654018  0.46776638  0.88439785  1  0.194536  -0.002531  3.609502  -0.003  0.156973  -0.004741  3.872349  -0.004  0.166826  -0.003561  3.884789  -0.003  0.077135  0.149972  -0.006786  3.865334  -0.006
C  C33  1  0.78345455  0.03222940  0.38439796  1  0.194416  -0.002597  3.60958  -0.003  0.156913  -0.004737  3.872385  -0.004  0.166766  -0.003545  3.884823  -0.003  0.077142  0.149915  -0.006782  3.86537  -0.006
C  C34  1  0.28345854  0.53223161  0.11560351  1  0.194529  -0.002475  3.609575  -0.002  0.156934  -0.004737  3.872412  -0.004  0.166788  -0.003568  3.884851  -0.003  0.077132  0.149933  -0.006782  3.865401  -0.006
C  C35  1  0.21654810  0.96776851  0.61560071  1  0.194534  -0.0025  3.609698  -0.002  0.156982  -0.004739  3.872516  -0.004  0.166833  -0.003561  3.884955  -0.003  0.077156  0.149982  -0.006778  3.865494  -0.006
C  C36  1  0.65639404  0.38851432  0.07700180  1  0.256271  -0.004003  3.739182  -0.004  0.239097  -0.007078  3.993638  -0.006  0.247811  -0.005209  4.008121  -0.005  0.249437  0.232398  -0.010371  3.985209  -0.009
C  C37  1  0.84360370  0.11147591  0.57700004  1  0.25662  -0.004062  3.738978  -0.004  0.239325  -0.007073  3.99354  -0.006  0.248048  -0.005198  4.008025  -0.005  0.249521  0.232623  -0.010364  3.985114  -0.009
C  C38  1  0.34361698  0.61148018  0.92300046  1  0.256364  -0.003922  3.739128  -0.004  0.239126  -0.007076  3.993648  -0.006  0.247848  -0.005204  4.008134  -0.005  0.249429  0.232434  -0.010366  3.985217  -0.009
C  C39  1  0.15638483  0.88852877  0.42299772  1  0.25648  -0.003958  3.739271  -0.004  0.23923  -0.007076  3.993832  -0.006  0.247936  -0.005194  4.008312  -0.005  0.249469  0.232524  -0.010365  3.985407  -0.009
C  C40  1  0.56286702  0.27709734  0.16445770  1  0.614916  -0.008664  3.905188  -0.009  0.557671  -0.016713  4.207993  -0.015  0.593389  -0.012063  4.198518  -0.012  0.231746  0.532486  -0.022493  4.214019  -0.019
C  C41  1  0.93712859  0.22289604  0.66444725  1  0.614939  -0.008638  3.905317  -0.009  0.557788  -0.016706  4.207969  -0.015  0.59347  -0.012055  4.198559  -0.012  0.231872  0.532611  -0.022478  4.213981  -0.019
C  C42  1  0.43713876  0.72289727  0.83554276  1  0.614934  -0.008678  3.905224  -0.009  0.557675  -0.016706  4.20802  -0.015  0.593372  -0.012058  4.198582  -0.012  0.231779  0.532486  -0.022484  4.214049  -0.019
C  C43  1  0.06287254  0.77711705  0.33553884  1  0.614593  -0.008675  3.9056  -0.009  0.557373  -0.016714  4.208387  -0.015  0.593111  -0.012065  4.198879  -0.012  0.231663  0.53219  -0.022493  4.214405  -0.019
C  C44  1  0.44712821  0.53340657  0.45070941  1  0.533095  -0.001891  3.920349  -0.003  0.488274  -0.006547  4.213974  -0.006  0.517528  -0.004233  4.209286  -0.005  0.218273  0.468311  -0.008983  4.215166  -0.008
C  C45  1  0.05287971  0.96659135  0.95071125  1  0.533336  -0.001905  3.920175  -0.003  0.488551  -0.006546  4.213708  -0.006  0.51781  -0.004233  4.209008  -0.005  0.218408  0.468582  -0.008986  4.21491  -0.008
C  C46  1  0.55290898  0.46658200  0.54928386  1  0.533509  -0.001879  3.920225  -0.003  0.488723  -0.006543  4.213775  -0.006  0.517984  -0.004228  4.209078  -0.005  0.218487  0.468757  -0.008979  4.214974  -0.008
C  C47  1  0.94709445  0.03342444  0.04929730  1  0.533156  -0.001876  3.920359  -0.003  0.488343  -0.006543  4.213886  -0.006  0.517601  -0.004228  4.209197  -0.005  0.218435  0.468378  -0.00898  4.21508  -0.008
N  N48  1  0.76143650  0.50343067  0.12641445  1  -0.383229  -0.027316  3.193549  -0.013  -0.321647  -0.034165  3.471058  -0.014  -0.341545  -0.029709  3.483121  -0.011  -0.304121  -0.308664  -0.039816  3.464207  -0.019
N  N49  1  0.73856355  0.99655952  0.62641699  1  -0.383244  -0.027249  3.193305  -0.013  -0.321603  -0.034164  3.470798  -0.014  -0.341499  -0.029721  3.482863  -0.011  -0.304039  -0.308617  -0.039812  3.463932  -0.019
N  N50  1  0.23857190  0.49656388  0.87358870  1  -0.383143  -0.027371  3.193506  -0.013  -0.321553  -0.034161  3.471037  -0.014  -0.341453  -0.029704  3.48311  -0.011  -0.304058  -0.308571  -0.039812  3.464181  -0.019
N  N51  1  0.26141871  0.00345178  0.37358436  1  -0.383131  -0.027342  3.193521  -0.013  -0.321574  -0.034163  3.471054  -0.014  -0.341473  -0.029715  3.483131  -0.011  -0.30405  -0.308592  -0.039817  3.464201  -0.019
N  N52  1  0.62938940  0.36749829  0.95930058  1  -0.331372  0.001653  3.107985  0.001  -0.275305  -7.7e-05  3.354985  -0.001  -0.290267  0.001242  3.368959  0.0  -0.281762  -0.265742  -0.001481  3.346549  -0.002
N  N53  1  0.87059919  0.13249487  0.45929909  1  -0.331553  0.001727  3.108148  0.001  -0.275471  -7.7e-05  3.35515  -0.001  -0.290432  0.001232  3.369116  0.0  -0.281834  -0.265906  -0.001479  3.346711  -0.002
N  N54  1  0.37060801  0.63249973  0.04070258  1  -0.331504  0.001564  3.108146  0.001  -0.275372  -7.8e-05  3.355118  -0.001  -0.290341  0.001243  3.3691  0.0  -0.281759  -0.265804  -0.001481  3.346669  -0.002
N  N55  1  0.12939611  0.86749995  0.54069957  1  -0.331621  0.001605  3.108128  0.001  -0.275505  -7.7e-05  3.355109  -0.001  -0.290472  0.001235  3.369095  0.0  -0.281831  -0.265926  -0.001483  3.346657  -0.002
O  O56  1  0.62232964  0.28405686  0.27123547  1  -0.611102  -0.031914  2.047571  -0.022  -0.55057  -0.04089  2.305307  -0.028  -0.580617  -0.035966  2.294328  -0.024  -0.290428  -0.528419  -0.046017  2.312327  -0.033
O  O57  1  0.87768286  0.21593456  0.77123317  1  -0.611149  -0.031922  2.047507  -0.022  -0.550707  -0.040883  2.305336  -0.028  -0.580742  -0.035965  2.294374  -0.024  -0.290563  -0.528548  -0.04601  2.312347  -0.033
O  O58  1  0.37768057  0.71593442  0.72876409  1  -0.61117  -0.031904  2.047588  -0.022  -0.55068  -0.040884  2.305401  -0.028  -0.580719  -0.035966  2.294431  -0.024  -0.290524  -0.528522  -0.046012  2.31242  -0.033
O  O59  1  0.12233321  0.78408039  0.22875382  1  -0.610903  -0.031908  2.047608  -0.022  -0.550489  -0.040884  2.30553  -0.028  -0.58054  -0.035966  2.294538  -0.024  -0.290442  -0.528324  -0.046011  2.312536  -0.033
O  O60  1  0.43155434  0.18859256  0.12454355  1  -0.618446  -0.035141  2.105881  -0.021  -0.555213  -0.043996  2.382979  -0.025  -0.585388  -0.038831  2.368707  -0.021  -0.300724  -0.533081  -0.049303  2.392641  -0.03
O  O61  1  0.06843136  0.31141112  0.62451819  1  -0.618584  -0.035142  2.105756  -0.021  -0.555347  -0.043987  2.382775  -0.025  -0.585514  -0.038823  2.368532  -0.021  -0.300757  -0.533219  -0.049296  2.392429  -0.03
O  O62  1  0.56843470  0.81140887  0.87546859  1  -0.618535  -0.03513  2.105811  -0.021  -0.555211  -0.043993  2.382832  -0.025  -0.585376  -0.038827  2.368572  -0.021  -0.300717  -0.533082  -0.049299  2.392495  -0.03
O  O63  1  0.93156922  0.68859440  0.37545981  1  -0.618402  -0.035126  2.105822  -0.021  -0.555119  -0.043991  2.38284  -0.025  -0.585302  -0.038822  2.368563  -0.021  -0.300711  -0.532991  -0.049296  2.3925  -0.03
O  O64  1  0.52310900  0.56301899  0.35088432  1  -0.575415  -0.029585  2.056504  -0.022  -0.521372  -0.038151  2.308323  -0.028  -0.548414  -0.033337  2.298337  -0.024  -0.284364  -0.500564  -0.043141  2.313884  -0.033
O  O65  1  0.97690517  0.93697239  0.85088877  1  -0.575615  -0.029575  2.056631  -0.022  -0.521653  -0.038154  2.308498  -0.028  -0.548693  -0.033341  2.2985  -0.024  -0.284505  -0.500851  -0.043142  2.314067  -0.033
O  O66  1  0.47693003  0.43697171  0.64911524  1  -0.57566  -0.029589  2.056502  -0.022  -0.521695  -0.038153  2.308358  -0.028  -0.548736  -0.033341  2.29836  -0.024  -0.284582  -0.500886  -0.043143  2.313924  -0.033
O  O67  1  0.02305378  0.06304046  0.14912876  1  -0.575544  -0.029585  2.056647  -0.022  -0.521517  -0.038155  2.308407  -0.028  -0.548561  -0.033341  2.298421  -0.024  -0.284576  -0.500712  -0.043143  2.313962  -0.033
O  O68  1  0.29084474  0.55369184  0.47893084  1  -0.611339  -0.029514  2.071167  -0.022  -0.545788  -0.037217  2.316488  -0.027  -0.573753  -0.032822  2.305466  -0.024  -0.2979  -0.524689  -0.041566  2.322636  -0.032
O  O69  1  0.20915905  0.94630175  0.97892402  1  -0.611263  -0.029508  2.071043  -0.022  -0.545727  -0.037218  2.316399  -0.027  -0.573696  -0.032821  2.305376  -0.023  -0.297866  -0.52463  -0.041565  2.322547  -0.032
O  O70  1  0.70918246  0.44628828  0.52106243  1  -0.611431  -0.029514  2.071144  -0.022  -0.545945  -0.037221  2.316611  -0.027  -0.573901  -0.032824  2.305548  -0.023  -0.297959  -0.524843  -0.041569  2.322758  -0.032
O  O71  1  0.79082274  0.05372362  0.02107913  1  -0.611279  -0.029514  2.07116  -0.022  -0.545738  -0.037214  2.31656  -0.027  -0.573698  -0.032819  2.305517  -0.023  -0.297909  -0.52464  -0.041563  2.322703  -0.032
O  O72  1  0.01485766  0.38779860  0.35265053  1  -0.821492  -0.034229  1.910341  -0.022  -0.757322  -0.043414  2.130687  -0.026  -0.782187  -0.038674  2.093955  -0.023  -0.568657  -0.738055  -0.047905  2.155974  -0.03
O  O73  1  0.48514487  0.11218688  0.85265332  1  -0.821291  -0.034229  1.910499  -0.022  -0.757106  -0.043413  2.130919  -0.026  -0.781982  -0.038671  2.094169  -0.023  -0.568616  -0.737842  -0.047904  2.156205  -0.03
O  O74  1  0.98515387  0.61219265  0.64735262  1  -0.821318  -0.034225  1.910359  -0.022  -0.757159  -0.043412  2.130747  -0.026  -0.78202  -0.03867  2.094024  -0.023  -0.568538  -0.737893  -0.047902  2.156035  -0.03
O  O75  1  0.51483789  0.88781576  0.14734803  1  -0.8213  -0.034229  1.910373  -0.022  -0.75706  -0.04341  2.130839  -0.026  -0.781946  -0.038669  2.094072  -0.023  -0.568545  -0.737795  -0.047901  2.156123  -0.03
