# generated using pymatgen
data_Cu2P2H8C13S2Br2NO6
_symmetry_space_group_name_H-M   'P 1'
_cell_length_a   4.74527147
_cell_length_b   14.36928063
_cell_length_c   17.44603209
_cell_angle_alpha   70.03618513
_cell_angle_beta   89.90430879
_cell_angle_gamma   87.18740912
_symmetry_Int_Tables_number   1
_chemical_formula_structural   Cu2P2H8C13S2Br2NO6
_chemical_formula_sum   'Cu4 P4 H16 C26 S4 Br4 N2 O12'
_cell_volume   1116.60293216
_cell_formula_units_Z   2
loop_
 _symmetry_equiv_pos_site_id
 _symmetry_equiv_pos_as_xyz
  1  'x, y, z'
loop_
 _atom_site_type_symbol
 _atom_site_label
 _atom_site_symmetry_multiplicity
 _atom_site_fract_x
 _atom_site_fract_y
 _atom_site_fract_z
 _atom_site_occupancy
 _atom_site_hle17_ddec_charge
 _atom_site_hle17_ddec_spin_density
 _atom_site_hle17_ddec_sum_bond_order
 _atom_site_hle17_magmom
 _atom_site_hse06_10hf_bader_charge
 _atom_site_hse06_10hf_bader_spin_density
 _atom_site_hse06_10hf_ddec_charge
 _atom_site_hse06_10hf_ddec_spin_density
 _atom_site_hse06_10hf_ddec_sum_bond_order
 _atom_site_hse06_10hf_magmom
 _atom_site_hse06_ddec_charge
 _atom_site_hse06_ddec_spin_density
 _atom_site_hse06_ddec_sum_bond_order
 _atom_site_hse06_magmom
 _atom_site_pbe_cm5_charge
 _atom_site_pbe_ddec_charge
 _atom_site_pbe_ddec_spin_density
 _atom_site_pbe_ddec_sum_bond_order
 _atom_site_pbe_magmom
Cu  Cu0  1  0.34561940  0.41549280  0.22557969  1  1.001265  -0.697612  1.768481  -0.518  1.164481  -0.656723  0.995741  -0.802573  2.163715  -0.652  1.0833  -0.878416  2.09262  -0.741  0.753303  0.931431  -0.728305  2.226131  -0.578
Cu  Cu1  1  0.65437171  0.58450777  0.77441942  1  1.001274  -0.697604  1.768444  -0.518  1.164465  -0.656718  0.995718  -0.802567  2.163743  -0.652  1.083307  -0.878411  2.092627  -0.741  0.753337  0.931443  -0.728305  2.226118  -0.578
Cu  Cu2  1  0.24222470  0.47747871  0.05285302  1  1.082414  0.710821  1.717915  0.535  1.208787  0.680732  1.098787  0.820205  2.094598  0.678  1.180509  0.893403  2.036119  0.763  0.741779  1.030158  0.748566  2.156306  0.606
Cu  Cu3  1  0.75776867  0.52252111  0.94714686  1  1.082266  0.710804  1.718038  0.535  1.208894  0.680728  1.098647  0.820199  2.0947  0.678  1.180374  0.893408  2.036225  0.763  0.74173  1.029989  0.748549  2.15643  0.606
P  P4  1  0.72676169  0.57763675  0.11197848  1  1.497736  0.000105  4.794757  -0.002  3.467735  0.001561  1.374933  0.003952  5.264297  0.001  1.437737  0.003272  5.221917  0.001  0.341046  1.329413  0.004193  5.290915  0.001
P  P5  1  0.27323309  0.42236750  0.88802247  1  1.497819  0.00011  4.794959  -0.002  3.467766  0.001558  1.375073  0.00395  5.264422  0.001  1.437872  0.00327  5.222052  0.001  0.341072  1.329571  0.004191  5.290991  0.001
P  P6  1  0.86076028  0.32055071  0.16284518  1  1.48102  -0.001755  4.842022  0.0  3.467066  -0.002288  1.360061  -0.00445  5.3209  -0.003  1.421558  -0.003729  5.280672  -0.003  0.328274  1.315307  -0.004794  5.345556  -0.003
P  P7  1  0.13923123  0.67944763  0.83715454  1  1.481006  -0.001748  4.841943  0.0  3.46681  -0.002293  1.360106  -0.00445  5.320803  -0.003  1.421555  -0.003729  5.280644  -0.003  0.328263  1.315356  -0.004794  5.345469  -0.003
H  H8  1  0.34492493  0.72748539  0.98762606  1  0.156925  -9e-06  0.940264  0.0  0.186072  5.2e-05  0.165971  6.8e-05  0.996894  0.0  0.168665  3e-05  0.995654  0.0  0.119459  0.163791  9.9e-05  0.998102  0.0
H  H9  1  0.65507170  0.27252036  0.01237448  1  0.156971  -1e-05  0.940267  0.0  0.186073  5.2e-05  0.166027  6.8e-05  0.996871  0.0  0.168724  3e-05  0.995632  0.0  0.119492  0.163848  9.9e-05  0.998089  0.0
H  H10  1  0.63107850  0.92631720  0.12540854  1  0.121858  -9.2e-05  1.012957  0.0  0.132813  7e-06  0.123584  0.0  1.090571  0.0  0.126956  0.0  1.088592  0.0  0.090119  0.121131  -3e-06  1.092028  0.0
H  H11  1  0.36895939  0.07368131  0.87459212  1  0.121811  -9.1e-05  1.012966  0.0  0.132674  7e-06  0.123492  0.0  1.090676  0.0  0.126871  0.0  1.088692  0.0  0.090099  0.121041  -3e-06  1.09213  0.0
H  H12  1  0.83096587  0.94662215  0.28900272  1  0.137668  4.5e-05  0.954118  0.0  0.107253  0.000124  0.147484  6.1e-05  1.010283  0.0  0.151157  3.8e-05  1.00786  0.0  0.105494  0.144977  7.7e-05  1.011879  0.0
H  H13  1  0.16905241  0.05338069  0.71100026  1  0.137603  4.3e-05  0.953987  0.0  0.107214  0.000124  0.147435  6.1e-05  1.010153  0.0  0.151107  3.8e-05  1.007731  0.0  0.105458  0.144927  7.7e-05  1.011743  0.0
H  H14  1  0.17998402  0.19592224  0.07587976  1  0.13536  0.000113  0.972589  0.0  0.171019  -4e-05  0.14289  0.0  1.03569  0.0  0.144944  -1e-06  1.035807  0.0  0.107157  0.141306  2e-06  1.035881  0.0
H  H15  1  0.82001438  0.80407315  0.92412189  1  0.135329  0.00012  0.972591  0.0  0.171104  -4e-05  0.142863  0.0  1.035682  0.0  0.144916  -1e-06  1.035802  0.0  0.107138  0.141273  2e-06  1.03588  0.0
H  H16  1  0.48487786  0.56436088  0.29954069  1  0.103739  -0.000466  0.958343  -0.001  0.183933  -0.001124  0.107269  -0.000455  1.027171  -0.001  0.110887  -0.000318  1.023561  -0.001  0.117124  0.104367  -0.000569  1.029876  -0.001
H  H17  1  0.51512680  0.43563525  0.70046246  1  0.10376  -0.000463  0.958314  -0.001  0.183868  -0.001124  0.107306  -0.000455  1.027148  -0.001  0.110927  -0.000317  1.023532  -0.001  0.11713  0.104404  -0.000569  1.029853  -0.001
H  H18  1  0.34161420  0.60733596  0.42092039  1  0.10339  -0.000367  0.951533  0.0  0.081283  -0.000722  0.117259  -0.000358  1.004594  0.0  0.120636  -0.000257  1.003341  0.0  0.108011  0.114688  -0.000438  1.005899  0.0
H  H19  1  0.65839277  0.39265942  0.57908468  1  0.103339  -0.000368  0.951556  0.0  0.081255  -0.000721  0.117216  -0.000358  1.004614  0.0  0.120591  -0.000257  1.00336  0.0  0.107991  0.114635  -0.000438  1.005929  0.0
H  H20  1  0.78759485  0.36199772  0.48124072  1  0.10621  -0.000354  0.947999  0.0  0.10595  -0.000711  0.120833  -0.000361  0.998224  0.0  0.123845  -0.000264  0.997845  0.0  0.111069  0.118512  -0.000434  0.998957  0.0
H  H21  1  0.21237628  0.63800799  0.51875476  1  0.106239  -0.000354  0.948044  0.0  0.10605  -0.000711  0.120879  -0.000361  0.998241  0.0  0.123891  -0.000264  0.997865  0.0  0.111133  0.118555  -0.000434  0.998984  0.0
H  H22  1  0.95076534  0.33313422  0.35550519  1  0.108163  -0.000439  0.948372  -0.001  0.176204  -0.001156  0.114662  -0.00046  1.011595  -0.001  0.118146  -0.000305  1.007782  -0.001  0.124162  0.111629  -0.000605  1.014755  -0.001
H  H23  1  0.04921008  0.66687149  0.64449200  1  0.108209  -0.00044  0.948428  -0.001  0.175786  -0.001156  0.11463  -0.00046  1.011709  -0.001  0.118108  -0.000305  1.007903  -0.001  0.124176  0.111608  -0.000605  1.01486  -0.001
C  C24  1  0.63849463  0.70719764  0.09088274  1  -0.265695  0.002675  3.739653  0.003  -0.4209  0.002411  -0.238564  0.001377  3.985175  0.002  -0.250992  0.000867  4.004774  0.001  -0.042015  -0.230554  0.00149  3.972968  0.002
C  C25  1  0.36151346  0.29280225  0.90911650  1  -0.265678  0.00267  3.739278  0.003  -0.420917  0.002412  -0.238553  0.001377  3.984819  0.002  -0.250983  0.000868  4.004424  0.001  -0.041984  -0.23054  0.00149  3.97262  0.002
C  C26  1  0.44940151  0.75753459  0.02867960  1  -0.111441  0.0025  3.625003  0.002  -0.317803  0.00072  -0.135313  0.000426  3.894741  0.0  -0.13163  0.000176  3.910988  0.0  -0.083708  -0.137735  0.000664  3.8842  0.001
C  C27  1  0.55060497  0.24246304  0.97132255  1  -0.111484  0.002511  3.625129  0.002  -0.317682  0.000721  -0.135346  0.000427  3.894846  0.0  -0.131665  0.000176  3.911093  0.0  -0.083738  -0.137781  0.000665  3.884321  0.001
C  C28  1  0.60095845  0.86493911  0.10402189  1  -0.266606  0.00323  3.7682  0.003  -0.182034  0.000873  -0.291254  0.000528  4.053015  0.001  -0.292681  0.000303  4.07069  0.0  -0.129116  -0.289936  0.000774  4.040929  0.001
C  C29  1  0.39907554  0.13505789  0.89598034  1  -0.266485  0.003218  3.768264  0.003  -0.181917  0.000874  -0.291117  0.000528  4.053079  0.001  -0.292557  0.000302  4.070751  0.0  -0.129112  -0.28979  0.000774  4.04098  0.001
C  C30  1  0.72043464  0.77042703  0.13412807  1  0.101372  -0.001537  3.772847  -0.002  -0.084016  -0.000252  0.108158  -0.000155  4.045231  0.0  0.112654  -8.3e-05  4.067297  0.0  -0.035941  0.104896  -0.000243  4.030594  0.0
C  C31  1  0.27958426  0.22957071  0.86586885  1  0.10135  -0.001528  3.772782  -0.002  -0.083948  -0.000252  0.108128  -0.000155  4.045187  0.0  0.112628  -8.3e-05  4.067251  0.0  -0.035978  0.104863  -0.000243  4.030555  0.0
C  C32  1  0.90427723  0.18999130  0.17935205  1  -0.261169  -0.000771  3.750533  -0.001  -0.414003  -0.000672  -0.228163  -0.000389  3.986606  -0.001  -0.24012  -0.000192  4.006677  0.0  -0.041968  -0.221129  -0.000691  3.975003  -0.001
C  C33  1  0.09572045  0.81000711  0.82064419  1  -0.261168  -0.000741  3.75062  -0.001  -0.41398  -0.000672  -0.228284  -0.00039  3.986854  -0.001  -0.240131  -0.000191  4.006768  0.0  -0.041928  -0.221257  -0.000692  3.975282  -0.001
C  C34  1  0.79869356  0.11074904  0.24620099  1  0.11115  -1e-06  3.7572  0.0  -0.088235  0.000471  0.118129  0.00029  4.027913  0.001  0.122378  0.000162  4.051044  0.0  -0.031518  0.114969  0.000308  4.012889  0.001
C  C35  1  0.20130737  0.88924412  0.75380183  1  0.111193  -2e-05  3.757018  0.0  -0.088342  0.00047  0.11819  0.00029  4.02781  0.001  0.122408  0.000162  4.050923  0.0  -0.031492  0.115026  0.000307  4.012788  0.001
C  C36  1  0.88270187  0.01801718  0.24588876  1  -0.260131  0.002037  3.735011  0.002  -0.162261  0.00079  -0.285569  0.000494  4.019351  0.001  -0.287922  0.000416  4.037036  0.0  -0.124392  -0.283545  0.000558  4.006792  0.001
C  C37  1  0.11730273  0.98198037  0.75411858  1  -0.260201  0.002071  3.734891  0.002  -0.162241  0.000791  -0.285664  0.000494  4.019277  0.001  -0.288024  0.000416  4.036988  0.0  -0.124441  -0.28364  0.000558  4.006711  0.001
C  C38  1  0.06895104  0.15316364  0.12996335  1  -0.128402  -0.003738  3.669863  -0.004  -0.295532  -0.00273  -0.154203  -0.001592  3.943299  -0.002  -0.150823  -0.001155  3.960331  -0.001  -0.094512  -0.156453  -0.002003  3.932334  -0.002
C  C39  1  0.93104615  0.84683842  0.87003590  1  -0.128425  -0.003791  3.66994  -0.004  -0.295603  -0.00273  -0.154169  -0.001592  3.943398  -0.002  -0.150826  -0.001157  3.960406  -0.001  -0.094501  -0.156413  -0.002003  3.932414  -0.002
C  C40  1  0.33090804  0.52228487  0.34225913  1  0.129108  0.002974  3.699168  0.003  0.437209  0.001122  0.101033  0.000201  3.957282  0.001  0.111104  0.001083  3.97353  0.002  0.046383  0.094342  -0.00055  3.946635  0.0
C  C41  1  0.66908769  0.47771419  0.65774382  1  0.129044  0.002958  3.698956  0.003  0.437391  0.001124  0.100913  0.000203  3.957148  0.001  0.110981  0.001083  3.973397  0.002  0.046345  0.094225  -0.000549  3.946498  0.0
C  C42  1  0.24786852  0.54497682  0.41051540  1  -0.163877  -0.005009  3.720659  -0.006  0.00072  -0.004064  -0.18357  -0.002639  3.968874  -0.003  -0.19188  -0.002364  3.988513  -0.003  -0.085823  -0.178376  -0.002791  3.956336  -0.004
C  C43  1  0.75213152  0.45502082  0.58948391  1  -0.16378  -0.004998  3.720515  -0.006  0.000314  -0.004065  -0.183456  -0.00264  3.968752  -0.003  -0.191759  -0.002364  3.988388  -0.003  -0.085765  -0.178253  -0.002791  3.956196  -0.004
C  C44  1  0.04782542  0.48872192  0.46360999  1  0.088963  0.003512  3.767048  0.003  -0.045443  0.002418  0.100551  0.001496  3.999051  0.002  0.105954  0.001635  4.019194  0.002  0.008134  0.096693  0.001309  3.9859  0.001
C  C45  1  0.95215878  0.51128230  0.53638986  1  0.088947  0.003507  3.7673  0.003  -0.00541  0.002408  0.100499  0.001496  3.999347  0.002  0.105897  0.001634  4.019492  0.002  0.0081  0.096648  0.001309  3.986182  0.001
C  C46  1  0.94235159  0.40999517  0.44365201  1  -0.160393  -0.005068  3.715494  -0.006  -0.097936  -0.004293  -0.176795  -0.002692  3.955203  -0.003  -0.185843  -0.002394  3.976922  -0.003  -0.080957  -0.171217  -0.002901  3.941559  -0.004
C  C47  1  0.05762389  0.59000981  0.55634365  1  -0.160562  -0.005057  3.715558  -0.006  -0.097758  -0.004294  -0.176981  -0.002693  3.955271  -0.003  -0.186026  -0.002393  3.976987  -0.003  -0.081107  -0.171406  -0.002902  3.941636  -0.004
C  C48  1  0.03280469  0.39181125  0.37418051  1  0.142106  0.003188  3.665891  0.004  0.566195  0.001276  0.115031  0.000225  3.91509  0.001  0.124358  0.001055  3.932115  0.002  0.054009  0.108688  -0.000451  3.904327  0.0
C  C49  1  0.96717054  0.60819591  0.62581799  1  0.142192  0.003176  3.665836  0.003  0.56647  0.001277  0.115206  0.000225  3.915007  0.001  0.12454  0.001054  3.932024  0.002  0.054121  0.108858  -0.000451  3.90425  0.0
S  S50  1  0.37962798  0.87769240  0.02298383  1  0.183116  -0.000467  2.730956  -0.001  0.259316  -0.000147  0.190396  -8.4e-05  3.089965  0.0  0.186403  -5.7e-05  3.099175  0.0  0.08293  0.192812  -0.000141  3.083879  0.0
S  S51  1  0.62038360  0.12231264  0.97701857  1  0.183077  -0.000465  2.731385  -0.001  0.259168  -0.000147  0.190359  -8.4e-05  3.090372  0.0  0.186369  -5.7e-05  3.099584  0.0  0.082928  0.192782  -0.00014  3.08429  0.0
S  S52  1  0.09419723  0.02638152  0.16406658  1  0.177014  -0.00284  2.725325  -0.003  0.215285  -0.002328  0.182524  -0.001432  3.081535  -0.001  0.179447  -0.00084  3.089558  -0.001  0.078103  0.184696  -0.002039  3.075932  -0.002
S  S53  1  0.90581985  0.97361613  0.83593726  1  0.177189  -0.002837  2.725795  -0.003  0.215302  -0.002328  0.18271  -0.001432  3.081995  -0.001  0.179638  -0.00084  3.090036  -0.001  0.078185  0.184878  -0.002039  3.076381  -0.002
Br  Br54  1  0.96231746  0.72842910  0.22729355  1  -0.044841  0.000239  1.283658  0.0  -0.083505  0.000181  -0.033718  0.000136  1.523787  0.0  -0.03927  9.1e-05  1.517995  0.0  0.038021  -0.029522  0.000186  1.527988  0.0
Br  Br55  1  0.03773167  0.27156362  0.77270063  1  -0.044903  0.000239  1.283828  0.0  -0.083447  0.000181  -0.033772  0.000136  1.523955  0.0  -0.039324  9.1e-05  1.518162  0.0  0.037993  -0.029579  0.000186  1.528155  0.0
Br  Br56  1  0.56895261  0.12900353  0.32928561  1  -0.047364  0.000234  1.221902  0.0  -0.059919  6e-05  -0.045836  7.3e-05  1.436605  0.0  -0.049706  0.000103  1.429158  0.0  0.025035  -0.042827  7.7e-05  1.441781  0.0
Br  Br57  1  0.43104300  0.87099556  0.67071446  1  -0.047378  0.000233  1.221891  0.0  -0.059774  6e-05  -0.045856  7.3e-05  1.436594  0.0  -0.049727  0.000103  1.429159  0.0  0.025007  -0.042849  7.7e-05  1.441776  0.0
N  N58  1  0.22462932  0.44702746  0.32419018  1  -0.288685  -0.054317  3.290355  -0.069  -1.276705  -0.064875  -0.240864  -0.042165  3.587951  -0.057  -0.26829  -0.035266  3.602478  -0.05  -0.338935  -0.223337  -0.045182  3.57984  -0.059
N  N59  1  0.77536118  0.55297680  0.67580907  1  -0.288666  -0.054305  3.290424  -0.069  -1.276822  -0.064877  -0.240829  -0.042165  3.588008  -0.057  -0.268265  -0.035265  3.602549  -0.05  -0.338948  -0.223318  -0.04518  3.579915  -0.059
O  O60  1  0.04745974  0.55908875  0.10962534  1  -0.828264  0.083559  2.072134  0.111  -1.406601  0.083094  -0.80344  0.050329  2.387878  0.072  -0.848059  0.037272  2.365804  0.056  -0.37197  -0.768709  0.057817  2.401929  0.08
O  O61  1  0.95254263  0.44090743  0.89037321  1  -0.828211  0.083564  2.072168  0.111  -1.406613  0.083096  -0.803401  0.05033  2.387905  0.072  -0.848022  0.037272  2.365832  0.056  -0.371971  -0.768654  0.057822  2.401916  0.08
O  O62  1  0.57789665  0.55588859  0.04013287  1  -0.843824  0.090454  2.195069  0.122  -1.379669  0.108046  -0.795888  0.066933  2.517966  0.096  -0.842906  0.0534  2.493887  0.079  -0.391622  -0.759785  0.073394  2.533508  0.102
O  O63  1  0.42208443  0.44410828  0.95986327  1  -0.843881  0.090417  2.195189  0.122  -1.379688  0.108023  -0.795988  0.066917  2.518133  0.096  -0.843003  0.053388  2.494057  0.079  -0.391644  -0.759886  0.073376  2.533669  0.102
O  O64  1  0.60506035  0.52299179  0.19592362  1  -0.812579  -0.051818  2.065051  -0.069  -1.411304  -0.05976  -0.77316  -0.036609  2.369474  -0.052  -0.817502  -0.029629  2.348884  -0.044  -0.377419  -0.73885  -0.038276  2.382039  -0.052
O  O65  1  0.39492713  0.47700578  0.80407747  1  -0.8126  -0.051825  2.06502  -0.069  -1.411302  -0.059765  -0.773214  -0.036612  2.369473  -0.052  -0.817561  -0.029632  2.348877  -0.044  -0.377444  -0.73892  -0.038282  2.382056  -0.052
O  O66  1  0.98187076  0.37290115  0.07750331  1  -0.821122  0.070657  2.06192  0.095  -1.41104  0.071638  -0.795089  0.04328  2.377418  0.062  -0.838127  0.032853  2.355232  0.05  -0.381792  -0.760516  0.047157  2.390546  0.066
O  O67  1  0.01812099  0.62709571  0.92249624  1  -0.821058  0.070656  2.06193  0.095  -1.411026  0.071641  -0.795057  0.043282  2.37752  0.062  -0.838051  0.032853  2.355226  0.05  -0.38176  -0.760426  0.047162  2.3905  0.066
O  O68  1  0.01325447  0.33834950  0.23397893  1  -0.83018  -0.070559  2.087405  -0.095  -1.411918  -0.076066  -0.798324  -0.04599  2.402837  -0.066  -0.842398  -0.034753  2.381706  -0.052  -0.385217  -0.764098  -0.052489  2.415453  -0.073
O  O69  1  0.98673925  0.66164812  0.76602041  1  -0.830236  -0.070559  2.087354  -0.095  -1.411744  -0.076063  -0.798293  -0.045991  2.402579  -0.066  -0.842369  -0.034756  2.381459  -0.052  -0.385221  -0.764097  -0.052487  2.415233  -0.073
O  O70  1  0.53936856  0.34369017  0.16314669  1  -0.833954  -0.079112  2.106787  -0.105  -1.402473  -0.077609  -0.805475  -0.047663  2.42534  -0.068  -0.852434  -0.03613  2.404436  -0.054  -0.382668  -0.767167  -0.05375  2.437091  -0.074
O  O71  1  0.46062872  0.65631116  0.83685161  1  -0.833952  -0.079104  2.106772  -0.105  -1.402417  -0.077606  -0.805488  -0.047661  2.425344  -0.068  -0.852466  -0.03613  2.404458  -0.054  -0.382706  -0.767173  -0.053746  2.437063  -0.074
