# generated using pymatgen
data_Al3H46C48O17
_symmetry_space_group_name_H-M   'P 1'
_cell_length_a   12.59779348
_cell_length_b   12.47454901
_cell_length_c   28.41976329
_cell_angle_alpha   88.29149452
_cell_angle_beta   90.18593189
_cell_angle_gamma   120.69742131
_symmetry_Int_Tables_number   1
_chemical_formula_structural   Al3H46C48O17
_chemical_formula_sum   'Al6 H92 C96 O34'
_cell_volume   3838.30933974
_cell_formula_units_Z   2
loop_
 _symmetry_equiv_pos_site_id
 _symmetry_equiv_pos_as_xyz
  1  'x, y, z'
loop_
 _atom_site_type_symbol
 _atom_site_label
 _atom_site_symmetry_multiplicity
 _atom_site_fract_x
 _atom_site_fract_y
 _atom_site_fract_z
 _atom_site_occupancy
 _atom_site_pbe_bader_charge
 _atom_site_pbe_bader_spin_density
 _atom_site_pbe_cm5_charge
 _atom_site_pbe_ddec_charge
 _atom_site_pbe_ddec_spin_density
 _atom_site_pbe_ddec_sum_bond_order
 _atom_site_pbe_magmom
Al  Al0  1  0.18024924  0.59944793  0.49623781  1  2.494217  0  0.402054  1.681218  0  2.554009  0
Al  Al1  1  0.91458208  0.57598765  0.49809595  1  2.481488  0  0.505472  1.657439  0  2.516269  0
Al  Al2  1  0.92291019  0.34034826  0.49798914  1  2.480881  0  0.507941  1.660424  0  2.508935  0
Al  Al3  1  0.14175174  0.06016968  0.99731848  1  2.49288  0  0.397785  1.686415  0  2.549783  0
Al  Al4  1  0.40485520  0.31441649  0.99811371  1  2.47709  0  0.50657  1.660248  0  2.511501  0
Al  Al5  1  0.40333955  0.07329162  0.99865200  1  2.486208  0  0.506409  1.658774  0  2.514828  0
H  H6  1  0.74754793  0.54288777  0.20916208  1  0.100946  0  0.106401  0.100235  0  0.986985  0
H  H7  1  0.36890874  0.45598021  0.21803617  1  0.037589  0  0.093112  0.091998  0  0.978176  0
H  H8  1  0.24667065  0.71737726  0.21142670  1  0.066238  0  0.10698  0.126684  0  0.975113  0
H  H9  1  0.55320888  0.41532932  0.27682564  1  0.070397  0  0.100529  0.088622  0  1.003326  0
H  H10  1  0.23771441  0.02140360  0.29256050  1  0.012365  0  0.094533  0.094554  0  1.00563  0
H  H11  1  0.34039359  0.96681691  0.30360453  1  0.08649  0  0.100003  0.103502  0  0.996924  0
H  H12  1  0.36804754  0.95029112  0.22324920  1  0.058502  0  0.099157  0.10476  0  0.973031  0
H  H13  1  0.29693572  0.04026963  0.21327724  1  0.050666  0  0.091349  0.084029  0  1.026545  0
H  H14  1  0.01958556  0.88575304  0.29130194  1  0.049494  0  0.107621  0.049598  0  0.978569  0
H  H15  1  0.97491426  0.76276952  0.20382917  1  0.073873  0  0.103911  0.116475  0  0.978207  0
H  H16  1  0.08236206  0.64045178  0.21411472  1  0.061425  0  0.105812  0.124853  0  0.974924  0
H  H17  1  0.16295676  0.14525133  0.30768066  1  0.036779  0  0.095575  0.09598  0  1.006127  0
H  H18  1  0.89374354  0.47331340  0.26103524  1  0.140801  0  0.104292  0.104666  0  1.049698  0
H  H19  1  0.05954944  0.92596849  0.21094401  1  0.027499  0  0.095993  0.103694  0  0.997195  0
H  H20  1  0.78897219  0.30422340  0.79587285  1  0.04415  0  0.098771  0.104367  0  0.975267  0
H  H21  1  0.77264381  0.25215828  0.71598842  1  0.021351  0  0.096127  0.09531  0  0.982519  0
H  H22  1  0.45247456  0.17857836  0.70011145  1  0.013371  0  0.093452  0.09232  0  0.988966  0
H  H23  1  0.54758645  0.11316898  0.69588840  1  0.04018  0  0.099978  0.105372  0  0.971065  0
H  H24  1  0.58311793  0.12018195  0.77743399  1  0.048773  0  0.097705  0.100182  0  0.9921  0
H  H25  1  0.44794771  0.12678998  0.78150099  1  0.085998  0  0.095978  0.096301  0  1.021373  0
H  H26  1  0.70789478  0.50974846  0.70966000  1  0.04461  0  0.100407  0.111489  0  0.987812  0
H  H27  1  0.55549760  0.42476558  0.68852891  1  0.029294  0  0.098904  0.108215  0  0.984447  0
H  H28  1  0.13619348  0.11728739  0.22651685  1  0.021621  0  0.092408  0.091175  0  1.006789  0
H  H29  1  0.79758964  0.25113635  0.20925857  1  0.065401  0  0.101474  0.092568  0  1.007299  0
H  H30  1  0.84786888  0.41466256  0.70503538  1  0.052864  0  0.093344  0.08986  0  1.009208  0
H  H31  1  0.81318180  0.45385958  0.78228142  1  0.015826  0  0.091922  0.088079  0  1.03462  0
H  H32  1  0.46979905  0.32740976  0.76200668  1  0.016397  0  0.106699  0.050881  0  0.988232  0
H  H33  1  0.38881283  0.48067977  0.78364260  1  0.072878  0  0.095169  0.100847  0  1.02831  0
H  H34  1  0.36604760  0.44792830  0.70247744  1  0.035241  0  0.092705  0.09192  0  0.98729  0
H  H35  1  0.06737617  0.14789522  0.71235323  1  0.052298  0  0.094095  0.093009  0  0.976846  0
H  H36  1  0.22568660  0.21410823  0.69855697  1  0.017061  0  0.093038  0.091153  0  0.986584  0
H  H37  1  0.27915192  0.24003090  0.77846179  1  0.021274  0  0.091111  0.087604  0  1.002989  0
H  H38  1  0.12026520  0.14757150  0.79178160  1  -0.003862  0  0.09733  0.096564  0  0.984132  0
H  H39  1  0.29675945  0.22509794  0.22079498  1  0.028696  0  0.089988  0.082799  0  1.015658  0
H  H40  1  0.06965335  0.44644713  0.71904285  1  0.017475  0  0.089445  0.085452  0  1.007753  0
H  H41  1  0.60434322  0.12404863  0.27722451  1  0.077259  0  0.102453  0.093213  0  1.003117  0
H  H42  1  0.97234658  0.28383941  0.71534785  1  0.036341  0  0.093612  0.090385  0  0.997294  0
H  H43  1  0.06478436  0.41429569  0.80111048  1  0.028946  0  0.092141  0.089832  0  0.990753  0
H  H44  1  0.30473850  0.54708949  0.70074134  1  0.018367  0  0.094265  0.094184  0  0.991802  0
H  H45  1  0.29443284  0.54732664  0.78343772  1  0.012596  0  0.088274  0.084407  0  1.01267  0
H  H46  1  0.99271638  0.25121546  0.79591069  1  0.018815  0  0.096093  0.096218  0  0.973901  0
H  H47  1  0.96664078  0.71247598  0.81039180  1  0.035148  0  0.100368  0.104665  0  0.988257  0
H  H48  1  0.94695555  0.73357688  0.72831808  1  0.027241  0  0.093671  0.092527  0  0.987272  0
H  H49  1  0.27642740  0.97339496  0.70627699  1  0.029334  0  0.095526  0.097258  0  0.994749  0
H  H50  1  0.20398660  0.50511997  0.27841762  1  0.055457  0  0.09515  0.100688  0  1.041318  0
H  H51  1  0.12571794  0.95004466  0.70235789  1  0.01359  0  0.095013  0.094844  0  0.985063  0
H  H52  1  0.10044587  0.93912701  0.78504271  1  0.030417  0  0.096843  0.096375  0  0.976239  0
H  H53  1  0.45873644  0.19638273  0.22489747  1  0.076577  0  0.09966  0.090841  0  1.037534  0
H  H54  1  0.26259500  0.01236674  0.78598382  1  0.032118  0  0.096046  0.095489  0  1.012548  0
H  H55  1  0.18596615  0.64166173  0.72356481  1  0.001682  0  0.090941  0.094415  0  1.01987  0
H  H56  1  0.31042383  0.79033992  0.70591110  1  0.052814  0  0.104818  0.118198  0  0.972728  0
H  H57  1  0.25016099  0.70000040  0.80054392  1  0.036523  0  0.100891  0.034745  0  1.008823  0
H  H58  1  0.96376414  0.60203671  0.72437402  1  0.019001  0  0.089775  0.086035  0  1.023479  0
H  H59  1  0.02742032  0.61415254  0.80311065  1  0.00918  0  0.093092  0.09154  0  0.98806  0
H  H60  1  0.98166776  0.18559693  0.20527628  1  0.032095  0  0.101875  0.110878  0  0.98353  0
H  H61  1  0.33372379  0.49556986  0.29543685  1  0.034532  0  0.095847  0.098276  0  0.978379  0
H  H62  1  0.31114008  0.28002744  0.30018995  1  0.001509  0  0.092356  0.090925  0  0.984483  0
H  H63  1  0.30271230  0.63820447  0.34547064  1  0.030233  0  0.09753  0.064806  0  0.994514  0
H  H64  1  0.28170326  0.76194813  0.36278384  1  0.072261  0  0.099153  0.067289  0  1.038707  0
H  H65  1  0.51675383  0.79575437  0.31717566  1  0.002521  0  0.081232  0.065531  0  0.99831  0
H  H66  1  0.49286735  0.91757847  0.33379350  1  0.001151  0  0.081105  0.065001  0  1.002275  0
H  H67  1  0.45345184  0.83019685  0.41919398  1  0.076079  0  0.092925  0.143468  0  0.993693  0
H  H68  1  0.60439868  0.87583821  0.39843932  1  -0.005371  0  0.082717  0.106458  0  1.01335  0
H  H69  1  0.48592002  0.71622164  0.40208615  1  0.062388  0  0.088834  0.123146  0  1.000472  0
H  H70  1  0.73819358  0.60911619  0.29214139  1  0.026278  0  0.096621  0.060026  0  1.01523  0
H  H71  1  0.81247612  0.77325107  0.28349303  1  0.016101  0  0.092311  0.04968  0  0.98533  0
H  H72  1  0.26697370  0.50730808  0.20092496  1  0.036507  0  0.097429  0.10067  0  0.976618  0
H  H73  1  0.83096022  0.63838273  0.37274021  1  0.052678  0  0.088015  0.088182  0  1.017739  0
H  H74  1  0.89390511  0.80061582  0.36574575  1  0.048336  0  0.087198  0.083899  0  0.99251  0
H  H75  1  0.67683376  0.76349072  0.35433080  1  0.007112  0  0.081498  0.100634  0  1.043169  0
H  H76  1  0.69264973  0.70503364  0.40973995  1  0.010907  0  0.095688  0.129969  0  0.983546  0
H  H77  1  0.61621935  0.60097740  0.36370437  1  -0.010275  0  0.081338  0.101943  0  1.010602  0
H  H78  1  0.97215182  0.58148158  0.34813815  1  0.059281  0  0.092015  0.090882  0  1.054213  0
H  H79  1  0.10977921  0.58142196  0.36591528  1  0.071436  0  0.098548  0.098743  0  1.049518  0
H  H80  1  0.98711180  0.44883371  0.33918633  1  0.072607  0  0.094787  0.094992  0  1.018562  0
H  H81  1  0.77309270  0.61922789  0.77140533  1  0.032083  0  0.085763  0.072799  0  1.052995  0
H  H82  1  0.74050657  0.54430375  0.82906940  1  0.032467  0  0.094331  0.093056  0  1.01308  0
H  H83  1  0.98836581  0.31217076  0.28677405  1  0.035432  0  0.103445  0.046338  0  0.984672  0
H  H84  1  0.70023669  0.65943340  0.81565617  1  0.070267  0  0.107658  0.115558  0  1.000057  0
H  H85  1  0.55983311  0.93304490  0.78036443  1  0.039464  0  0.097147  0.059464  0  0.986449  0
H  H86  1  0.45605684  0.77520381  0.76709496  1  -0.000713  0  0.091873  0.050297  0  0.992348  0
H  H87  1  0.49854984  0.89097812  0.86448514  1  0.041309  0  0.098203  0.100632  0  0.963006  0
H  H88  1  0.38416555  0.73600608  0.85370760  1  0.023785  0  0.091072  0.082822  0  0.992949  0
H  H89  1  0.54363223  0.68761179  0.82635609  1  0.015211  0  0.084113  0.108773  0  1.030237  0
H  H90  1  0.57533911  0.74344038  0.88438856  1  0.056758  0  0.099322  0.136444  0  0.978897  0
H  H91  1  0.66288083  0.84382217  0.83640508  1  0.006618  0  0.082617  0.102923  0  1.008756  0
H  H92  1  0.79788134  0.08084450  0.25492551  1  0.01546  0  0.087066  0.07456  0  1.019825  0
H  H93  1  0.80751512  0.14167486  0.31234580  1  0.030723  0  0.094168  0.089725  0  1.00177  0
H  H94  1  0.03431464  0.34736841  0.20635075  1  0.039916  0  0.098495  0.108118  0  0.977701  0
H  H95  1  0.78875293  0.99031340  0.30652014  1  0.062999  0  0.105099  0.112572  0  0.988048  0
H  H96  1  0.38415260  0.67937008  0.52028012  1  0.575164  0  0.297286  0.383518  0  0.921821  0
H  H97  1  0.93780185  0.97082936  0.02457377  1  0.581627  0  0.292999  0.383897  0  0.921683  0
C  C98  1  0.09283706  0.74546483  0.43714625  1  1.643449  0  0.284277  0.714693  0  4.157176  0
C  C99  1  0.71047107  0.34947769  0.34056689  1  -0.46288  0  -0.006943  -0.000647  0  4.029346  0
C  C100  1  0.03331217  0.26119607  0.27495327  1  0.458822  0  0.012581  0.140627  0  3.780923  0
C  C101  1  0.78577564  0.38731381  0.42876796  1  1.606764  0  0.28075  0.72161  0  4.143511  0
C  C102  1  0.21554439  0.23391231  0.28772004  1  0.01009  0  -0.155303  -0.187866  0  3.860082  0
C  C103  1  0.20937658  0.21251444  0.23424571  1  -0.012666  0  -0.153794  -0.189592  0  3.840467  0
C  C104  1  0.20717970  0.28772872  0.11502368  1  -0.03351  0  -0.051207  -0.220862  0  3.971248  0
C  C105  1  0.16205282  0.31814171  0.29821521  1  0.136699  0  0.0011  0.112242  0  3.888899  0
C  C106  1  0.05000409  0.27394154  0.22080658  1  -0.004817  0  -0.156691  -0.273333  0  3.843183  0
C  C107  1  0.18189769  0.30543471  0.20707414  1  0.129767  0  0.001474  0.17885  0  3.892868  0
C  C108  1  0.27481273  0.43842169  0.22329133  1  -0.029366  0  -0.153805  -0.184889  0  3.851855  0
C  C109  1  0.73407145  0.36086822  0.38250518  1  0.227524  0  -0.043315  -0.217908  0  3.948157  0
C  C110  1  0.24805806  0.44921002  0.27526166  1  -0.02779  0  -0.159498  -0.197804  0  3.845659  0
C  C111  1  0.19363494  0.29569842  0.15685202  1  -0.230791  0  -0.01623  -0.020723  0  4.007556  0
C  C112  1  0.14788204  0.32970295  0.34812303  1  -0.310152  0  -0.006706  0.001742  0  3.997061  0
C  C113  1  0.10569336  0.38640163  0.43203796  1  1.639331  0  0.277389  0.716559  0  4.151226  0
C  C114  1  0.13265053  0.34848543  0.38859226  1  0.044294  0  -0.05057  -0.229041  0  3.963998  0
C  C115  1  0.17317137  0.71681634  0.27978065  1  0.95695  0  0.173517  0.393372  0  3.771974  0
C  C116  1  0.25953577  0.94983894  0.28328588  1  -0.037499  0  -0.15318  -0.175879  0  3.857828  0
C  C117  1  0.28439432  0.95420412  0.23008321  1  -0.051751  0  -0.15472  -0.199106  0  3.860133  0
C  C118  1  0.20266696  0.87903785  0.11407650  1  0.301316  0  -0.050094  -0.219588  0  3.967486  0
C  C119  1  0.14735641  0.82093675  0.29907569  1  0.153614  0  -0.001233  -0.008487  0  3.841908  0
C  C120  1  0.55539941  0.25737883  0.23366794  1  -0.035642  0  -0.065736  -0.061991  0  3.605803  0
C  C121  1  0.16818002  0.72213888  0.22540624  1  -0.000846  0  -0.154383  -0.316406  0  3.824921  0
C  C122  1  0.17353495  0.84203354  0.20696911  1  0.133661  0  0.001678  0.196293  0  3.905753  0
C  C123  1  0.05369678  0.83792571  0.22194379  1  -0.050481  0  -0.157751  -0.271604  0  3.83822  0
C  C124  1  0.03132333  0.81261364  0.27555684  1  0.491105  0  0.012602  0.153494  0  3.801568  0
C  C125  1  0.08391023  0.69946929  0.56956631  1  1.647575  0  0.274562  0.721692  0  4.155419  0
C  C126  1  0.18886378  0.85721803  0.15625043  1  -0.590713  0  -0.014077  -0.01315  0  3.995094  0
C  C127  1  0.13344056  0.81604206  0.34958816  1  -0.52083  0  0.002689  0.033704  0  4.014461  0
C  C128  1  0.11919766  0.81018153  0.39218003  1  0.224909  0  -0.050772  -0.246997  0  3.909636  0
C  C129  1  0.76527528  0.33501769  0.72133443  1  -0.034063  0  -0.152101  -0.188721  0  3.847032  0
C  C130  1  0.53947530  0.18737959  0.71224069  1  -0.006817  0  -0.152467  -0.198105  0  3.854305  0
C  C131  1  0.66178095  0.32723989  0.19496326  1  0.089538  0  0.008479  0.113621  0  3.781084  0
C  C132  1  0.54156174  0.17558204  0.76649408  1  -0.060475  0  -0.153116  -0.19271  0  3.851798  0
C  C133  1  0.58233720  0.28846314  0.88066868  1  -0.18949  0  -0.04334  -0.216541  0  3.932424  0
C  C134  1  0.64831676  0.31668778  0.69567008  1  0.131744  0  0.003783  0.17541  0  3.881327  0
C  C135  1  0.75575841  0.35515310  0.77413024  1  -0.014483  0  -0.155794  -0.193496  0  3.849991  0
C  C136  1  0.61890726  0.30685822  0.78768639  1  0.115887  0  -0.002065  0.101725  0  3.868768  0
C  C137  1  0.75795281  0.37135784  0.55815784  1  1.614098  0  0.288014  0.732326  0  4.138766  0
C  C138  1  0.57091492  0.38771525  0.76287758  1  0.517042  0  0.010209  0.133951  0  3.810009  0
C  C139  1  0.62185819  0.41860626  0.71191719  1  -0.03326  0  -0.158031  -0.273509  0  3.846993  0
C  C140  1  0.60065154  0.29843503  0.83832779  1  -0.06093  0  -0.006126  0.005859  0  3.993807  0
C  C141  1  0.67083992  0.32590314  0.64523022  1  -0.007625  0  -0.000462  0.010915  0  3.960595  0
C  C142  1  0.63654624  0.21724481  0.26184675  1  -0.030616  0  -0.069778  -0.082746  0  3.633102  0
C  C143  1  0.69791078  0.33843401  0.60352914  1  -0.216538  0  -0.047697  -0.227107  0  3.945609  0
C  C144  1  0.29261333  0.46060039  0.71710509  1  -0.023078  0  -0.154392  -0.185776  0  3.844679  0
C  C145  1  0.15996335  0.22679921  0.71951425  1  -0.032073  0  -0.153275  -0.188459  0  3.855488  0
C  C146  1  0.18935198  0.23245169  0.77255384  1  0.028019  0  -0.150981  -0.183245  0  3.830884  0
C  C147  1  0.21637372  0.32613374  0.88654993  1  -0.201946  0  -0.047234  -0.216876  0  3.966437  0
C  C148  1  0.16611098  0.34920549  0.70287818  1  0.150801  0  0.000372  0.165638  0  3.899764  0
C  C149  1  0.09857749  0.37792659  0.56395463  1  1.662475  0  0.277464  0.725348  0  4.148828  0
C  C150  1  0.30045996  0.46769953  0.77128995  1  -0.034992  0  -0.159356  -0.199775  0  3.838453  0
C  C151  1  0.19260870  0.34704944  0.79419220  1  0.170459  0  0.001306  0.172486  0  3.892746  0
C  C152  1  0.06961675  0.34100049  0.78241419  1  -0.009788  0  -0.153575  -0.189276  0  3.85317  0
C  C153  1  0.68990260  0.33965050  0.29146872  1  0.106545  0  0.007643  0.105007  0  3.779649  0
C  C154  1  0.06152153  0.35652091  0.72862731  1  -0.025469  0  -0.15344  -0.184327  0  3.841705  0
C  C155  1  0.20656664  0.34076502  0.84464168  1  -0.109839  0  -0.01344  -0.018002  0  4.00478  0
C  C156  1  0.14740457  0.35149454  0.65258944  1  -0.078527  0  -0.0123  -0.016549  0  4.010554  0
C  C157  1  0.12721991  0.35556070  0.61091161  1  -0.22473  0  -0.052042  -0.224472  0  3.971244  0
C  C158  1  0.00875407  0.69782035  0.73672474  1  -0.02061  0  -0.156498  -0.200198  0  3.866732  0
C  C159  1  0.18182521  0.91744386  0.72039566  1  0.024641  0  -0.153684  -0.189769  0  3.841344  0
C  C160  1  0.17880968  0.92974805  0.77406715  1  -0.01443  0  -0.15098  -0.176011  0  3.834246  0
C  C161  1  0.60826278  0.37956836  0.26156820  1  -0.033379  0  -0.071577  -0.085794  0  3.644035  0
C  C162  1  0.19987889  0.86511685  0.89050620  1  -0.14412  0  -0.043428  -0.210371  0  3.958674  0
C  C163  1  0.13208590  0.77902067  0.70925058  1  0.12858  0  0.001171  0.181853  0  3.892674  0
C  C164  1  0.74350949  0.28753569  0.22478205  1  -0.024223  0  -0.069769  -0.080868  0  3.625482  0
C  C165  1  0.03397580  0.70126004  0.79001605  1  -0.01597  0  -0.153642  -0.195813  0  3.868244  0
C  C166  1  0.16482330  0.81160783  0.79989379  1  0.135798  0  0.000582  0.114214  0  3.896744  0
C  C167  1  0.25799245  0.77921146  0.77929379  1  0.47799  0  0.007716  0.133295  0  3.824947  0
C  C168  1  0.22555713  0.74233384  0.72748744  1  -0.016657  0  -0.159163  -0.274429  0  3.841005  0
C  C169  1  0.18370584  0.83544588  0.84964426  1  -0.116369  0  -0.01393  -0.013468  0  4.017995  0
C  C170  1  0.11443151  0.75954306  0.65916873  1  -0.462426  0  -0.019047  -0.023579  0  4.015412  0
C  C171  1  0.10089266  0.73994276  0.61732846  1  0.185602  0  -0.051511  -0.219708  0  3.973852  0
C  C172  1  0.23013307  0.26689886  0.06753554  1  1.65644  0  0.275643  0.722779  0  4.15442  0
C  C173  1  0.71524052  0.44969695  0.22444973  1  -0.02873  0  -0.067795  -0.077617  0  3.626031  0
C  C174  1  0.55916124  0.27034391  0.05889395  1  1.650804  0  0.285828  0.723675  0  4.14976  0
C  C175  1  0.79699570  0.41024527  0.25258852  1  -0.037764  0  -0.066816  -0.072623  0  3.583872  0
C  C176  1  0.22604083  0.93041593  0.06674401  1  1.667188  0  0.277647  0.722491  0  4.156475  0
C  C177  1  0.23268421  0.28745360  0.93282919  1  1.667395  0  0.279958  0.716002  0  4.158166  0
C  C178  1  0.53792009  0.26533393  0.92862842  1  1.656514  0  0.284565  0.730988  0  4.141124  0
C  C179  1  0.22553547  0.92611442  0.93471762  1  1.660613  0  0.280684  0.715249  0  4.161852  0
C  C180  1  0.61531909  0.29966838  0.10426551  1  0.243636  0  -0.042758  -0.211431  0  3.95791  0
C  C181  1  0.32975974  0.73599919  0.33752055  1  0.396745  0  -0.077736  0.032976  0  3.870661  0
C  C182  1  0.46798683  0.82078628  0.34279768  1  -0.007847  0  -0.170008  -0.123051  0  4.003886  0
C  C183  1  0.50547686  0.81097039  0.39323942  1  -0.082556  0  -0.246091  -0.36239  0  3.949463  0
C  C184  1  0.81883833  0.69782525  0.30233677  1  0.427977  0  -0.072454  0.031244  0  3.930115  0
C  C185  1  0.81662458  0.70979186  0.35536229  1  -0.029901  0  -0.178611  -0.153814  0  3.997367  0
C  C186  1  0.63975801  0.31465350  0.14602947  1  -0.5058  0  -0.010148  -0.006584  0  4.041185  0
C  C187  1  0.69415733  0.69402134  0.37163817  1  -0.007983  0  -0.242543  -0.34637  0  3.977607  0
C  C188  1  0.03724258  0.55100239  0.33956624  1  0.33706  0  -0.1565  -0.182898  0  3.908571  0
C  C189  1  0.70697432  0.58261684  0.80124817  1  0.396173  0  -0.146105  -0.175793  0  3.952477  0
C  C190  1  0.47108310  0.85019818  0.79096670  1  0.42474  0  -0.071654  0.028183  0  3.943477  0
C  C191  1  0.47608832  0.81200954  0.84199652  1  -0.002137  0  -0.170303  -0.145084  0  3.988708  0
C  C192  1  0.56973775  0.76949416  0.84765001  1  -0.06234  0  -0.240985  -0.35291  0  3.972062  0
C  C193  1  0.83273906  0.08519711  0.29098062  1  0.437129  0  -0.14213  -0.170735  0  3.9745  0
O  O194  1  0.17322923  0.49979544  0.44216679  1  -1.224036  0  -0.207884  -0.554871  0  2.291393  0
O  O195  1  0.52984235  0.16428532  0.04253099  1  -1.237262  0  -0.225556  -0.585717  0  2.242199  0
O  O196  1  0.32979827  0.95617776  0.04784098  1  -1.253711  0  -0.243353  -0.60662  0  2.233819  0
O  O197  1  0.17070988  0.71761670  0.45189542  1  -1.222286  0  -0.199543  -0.53707  0  2.287758  0
O  O198  1  0.15013669  0.95683470  0.94868577  1  -1.21154  0  -0.200084  -0.535434  0  2.284639  0
O  O199  1  0.15646851  0.17661194  0.94595700  1  -1.20961  0  -0.201137  -0.540192  0  2.286827  0
O  O200  1  0.32714133  0.36735082  0.95621047  1  -1.260979  0  -0.245017  -0.610818  0  2.221873  0
O  O201  1  0.51472648  0.34433805  0.94626829  1  -1.236238  0  -0.226171  -0.586059  0  2.239528  0
O  O202  1  0.51915081  0.16419839  0.94908484  1  -1.251064  0  -0.22894  -0.593123  0  2.244458  0
O  O203  1  0.32658585  0.94917226  0.95505817  1  -1.256219  0  -0.242309  -0.607257  0  2.234358  0
O  O204  1  0.31862076  0.15011634  0.99846653  1  -1.612773  0  -0.391354  -1.274932  0  2.2981  0
O  O205  1  0.78140889  0.47608572  0.53928929  1  -1.252987  0  -0.227971  -0.591378  0  2.239433  0
O  O206  1  0.98772204  0.71244151  0.45687583  1  -1.263568  0  -0.237976  -0.597391  0  2.226319  0
O  O207  1  0.80807225  0.48982216  0.44653778  1  -1.253602  0  -0.226692  -0.589431  0  2.251573  0
O  O208  1  0.81146559  0.30902531  0.44794051  1  -1.244536  0  -0.23002  -0.592235  0  2.238807  0
O  O209  1  0.01107714  0.30281687  0.45619026  1  -1.255822  0  -0.244374  -0.611669  0  2.230965  0
O  O210  1  0.17908011  0.47511952  0.54176464  1  -1.232636  0  -0.216211  -0.580131  0  2.289179  0
O  O211  1  0.16668034  0.68358469  0.55200800  1  -1.217873  0  -0.213768  -0.566785  0  2.291175  0
O  O212  1  0.98347486  0.67889496  0.54955106  1  -1.258546  0  -0.245459  -0.612019  0  2.238646  0
O  O213  1  0.29606053  0.74745117  0.28962880  1  -1.039637  0  -0.223789  -0.310614  0  2.462844  0
O  O214  1  0.92426618  0.69397740  0.28557254  1  -1.055277  0  -0.224512  -0.257982  0  2.492771  0
O  O215  1  0.08472406  0.59104928  0.29239456  1  -1.058375  0  -0.222282  -0.258052  0  2.545737  0
O  O216  1  0.79018356  0.29853447  0.54098755  1  -1.239553  0  -0.223814  -0.58387  0  2.24323  0
O  O217  1  0.58565293  0.49280573  0.78693657  1  -1.052271  0  -0.231933  -0.213649  0  2.514522  0
O  O218  1  0.37941191  0.88440479  0.78321005  1  -1.047837  0  -0.226762  -0.257988  0  2.478523  0
O  O219  1  0.96228290  0.13396443  0.29139701  1  -1.060418  0  -0.233754  -0.216466  0  2.502206  0
O  O220  1  0.98987394  0.29916290  0.54911151  1  -1.251574  0  -0.24129  -0.601181  0  2.224107  0
O  O221  1  0.00419514  0.50449110  0.49756287  1  -1.613536  0  -0.392244  -1.275455  0  2.308228  0
O  O222  1  0.14654599  0.95148041  0.04866396  1  -1.22247  0  -0.212058  -0.567469  0  2.292562  0
O  O223  1  0.14820140  0.16974331  0.04814610  1  -1.235531  0  -0.215312  -0.574674  0  2.287291  0
O  O224  1  0.33608835  0.34823806  0.04947934  1  -1.254411  0  -0.242385  -0.60565  0  2.232951  0
O  O225  1  0.53623166  0.34983232  0.03907082  1  -1.242848  0  -0.22703  -0.589002  0  2.246039  0
O  O226  1  0.34190740  0.68958038  0.49362013  1  -1.358665  0  -0.561144  -0.983872  0  1.841834  0
O  O227  1  0.98029821  0.97966436  0.99517320  1  -1.367167  0  -0.578541  -0.996567  0  1.792623  0
