# generated using pymatgen
data_ZnH12C14(NO)4
_symmetry_space_group_name_H-M   'P 1'
_cell_length_a   10.98343305
_cell_length_b   11.47345965
_cell_length_c   12.64775375
_cell_angle_alpha   90.00073515
_cell_angle_beta   111.30849542
_cell_angle_gamma   89.99998849
_symmetry_Int_Tables_number   1
_chemical_formula_structural   ZnH12C14(NO)4
_chemical_formula_sum   'Zn4 H48 C56 N16 O16'
_cell_volume   1484.88491700
_cell_formula_units_Z   4
loop_
 _symmetry_equiv_pos_site_id
 _symmetry_equiv_pos_as_xyz
  1  'x, y, z'
loop_
 _atom_site_type_symbol
 _atom_site_label
 _atom_site_symmetry_multiplicity
 _atom_site_fract_x
 _atom_site_fract_y
 _atom_site_fract_z
 _atom_site_occupancy
 _atom_site_hle17_bader_spin_density
 _atom_site_hle17_ddec_charge
 _atom_site_hle17_ddec_spin_density
 _atom_site_hle17_ddec_sum_bond_order
 _atom_site_hle17_magmom
 _atom_site_hse06_10hf_bader_spin_density
 _atom_site_hse06_10hf_ddec_charge
 _atom_site_hse06_10hf_ddec_spin_density
 _atom_site_hse06_10hf_ddec_sum_bond_order
 _atom_site_hse06_10hf_magmom
 _atom_site_hse06_bader_spin_density
 _atom_site_hse06_ddec_charge
 _atom_site_hse06_ddec_spin_density
 _atom_site_hse06_ddec_sum_bond_order
 _atom_site_hse06_magmom
 _atom_site_pbe_bader_spin_density
 _atom_site_pbe_cm5_charge
 _atom_site_pbe_ddec_charge
 _atom_site_pbe_ddec_spin_density
 _atom_site_pbe_ddec_sum_bond_order
 _atom_site_pbe_magmom
Zn  Zn0  1  0.02072627  0.07244379  0.25935811  1  0  1.011614  0  1.873604  0  0  0.819401  0  2.351238  0  0  0.865532  0  2.297647  0  0  0.697567  0.787207  0  2.388128  0
Zn  Zn1  1  0.52072836  0.42755552  0.75936557  1  0  1.011687  0  1.873585  0  0  0.819476  0  2.351228  0  0  0.865602  0  2.297636  0  0  0.697599  0.787282  0  2.388127  0
Zn  Zn2  1  0.97927127  0.92755014  0.74063839  1  0  1.011622  0  1.873682  0  0  0.819394  0  2.35132  0  0  0.865523  0  2.297721  0  0  0.697559  0.787192  0  2.388224  0
Zn  Zn3  1  0.47927403  0.57244713  0.24063077  1  0  1.011734  0  1.873651  0  0  0.819525  0  2.351308  0  0  0.865652  0  2.297712  0  0  0.697621  0.787325  0  2.388212  0
H  H4  1  0.04530666  0.63776819  0.34208200  1  0  0.306371  0  0.857961  0  0  0.299408  0  0.898475  0  0  0.304931  0  0.895789  0  0  0.340625  0.295464  0  0.900572  0
H  H5  1  0.54530399  0.86223493  0.84207069  1  0  0.306202  0  0.858109  0  0  0.299331  0  0.898513  0  0  0.304852  0  0.895834  0  0  0.340619  0.295388  0  0.900613  0
H  H6  1  0.95468929  0.36222749  0.65792588  1  0  0.306261  0  0.858124  0  0  0.299311  0  0.898636  0  0  0.304831  0  0.895952  0  0  0.340586  0.295366  0  0.900741  0
H  H7  1  0.45469966  0.13776424  0.15793552  1  0  0.306168  0  0.858087  0  0  0.299374  0  0.898413  0  0  0.304895  0  0.895733  0  0  0.340628  0.295434  0  0.900514  0
H  H8  1  0.42229262  0.28787851  0.52929463  1  0  0.313128  0  0.927537  0  0  0.29047  0  0.993348  0  0  0.299239  0  0.986674  0  0  0.309819  0.284304  0  0.998132  0
H  H9  1  0.92229505  0.21212361  0.02928890  1  0  0.313003  0  0.927827  0  0  0.290418  0  0.993538  0  0  0.299182  0  0.986882  0  0  0.309835  0.284248  0  0.998311  0
H  H10  1  0.57770004  0.71212240  0.47070042  1  0  0.31312  0  0.927592  0  0  0.290497  0  0.993384  0  0  0.299266  0  0.986704  0  0  0.309824  0.284325  0  0.998176  0
H  H11  1  0.07770543  0.78788166  0.97070846  1  0  0.312994  0  0.92771  0  0  0.290386  0  0.993466  0  0  0.299151  0  0.986804  0  0  0.309806  0.284222  0  0.998245  0
H  H12  1  0.86688845  0.94594235  0.39632577  1  0  0.110875  0  0.954782  0  0  0.118525  0  1.017566  0  0  0.120945  0  1.017088  0  0  0.119661  0.11675  0  1.018066  0
H  H13  1  0.36689460  0.55406585  0.89633286  1  0  0.11088  0  0.954846  0  0  0.118551  0  1.017593  0  0  0.120972  0  1.017111  0  0  0.119652  0.11677  0  1.018091  0
H  H14  1  0.13310621  0.05405769  0.60367146  1  0  0.110903  0  0.954787  0  0  0.118552  0  1.017569  0  0  0.120972  0  1.017088  0  0  0.11967  0.116774  0  1.018078  0
H  H15  1  0.63310087  0.44593244  0.10365907  1  0  0.110869  0  0.95466  0  0  0.118529  0  1.017436  0  0  0.120954  0  1.016945  0  0  0.119616  0.116752  0  1.01794  0
H  H16  1  0.89470544  0.70806673  0.44240853  1  0  0.113505  0  0.949878  0  0  0.125325  0  1.00748  0  0  0.127037  0  1.007745  0  0  0.126797  0.12408  0  1.007381  0
H  H17  1  0.39470856  0.79194473  0.94240488  1  0  0.113416  0  0.949985  0  0  0.125264  0  1.007562  0  0  0.126971  0  1.007834  0  0  0.126789  0.124026  0  1.007444  0
H  H18  1  0.10528744  0.29193592  0.55759370  1  0  0.113392  0  0.95003  0  0  0.125221  0  1.007633  0  0  0.126934  0  1.007902  0  0  0.126756  0.123981  0  1.007522  0
H  H19  1  0.60529108  0.20805008  0.05759699  1  0  0.113418  0  0.949946  0  0  0.125255  0  1.007539  0  0  0.126962  0  1.007803  0  0  0.126758  0.124014  0  1.00742  0
H  H20  1  0.10819756  0.80382110  0.23486440  1  0  0.102094  0  0.949986  0  0  0.110538  0  1.013371  0  0  0.113149  0  1.010278  0  0  0.137104  0.108556  0  1.015645  0
H  H21  1  0.60819422  0.69617441  0.73485805  1  0  0.102077  0  0.950213  0  0  0.110547  0  1.013543  0  0  0.113189  0  1.010414  0  0  0.137147  0.108569  0  1.015813  0
H  H22  1  0.89180220  0.19617110  0.76514145  1  0  0.102063  0  0.950171  0  0  0.110509  0  1.013545  0  0  0.113151  0  1.010416  0  0  0.137128  0.108524  0  1.015819  0
H  H23  1  0.39180636  0.30382825  0.26514250  1  0  0.102068  0  0.950066  0  0  0.110538  0  1.013416  0  0  0.11318  0  1.010286  0  0  0.137128  0.108558  0  1.015689  0
H  H24  1  0.20405483  0.30357354  0.35697312  1  0  0.111978  0  0.968091  0  0  0.117732  0  1.0355  0  0  0.121554  0  1.030031  0  0  0.133411  0.114877  0  1.039496  0
H  H25  1  0.70404694  0.19643062  0.85697650  1  0  0.11193  0  0.968053  0  0  0.117726  0  1.035423  0  0  0.121549  0  1.02995  0  0  0.133439  0.114871  0  1.03942  0
H  H26  1  0.79594062  0.69641953  0.64301801  1  0  0.111977  0  0.9681  0  0  0.117748  0  1.035499  0  0  0.121573  0  1.030023  0  0  0.133405  0.114888  0  1.039508  0
H  H27  1  0.29594980  0.80357552  0.14302529  1  0  0.111973  0  0.968057  0  0  0.117664  0  1.035538  0  0  0.121484  0  1.030074  0  0  0.133394  0.114807  0  1.039538  0
H  H28  1  0.46641198  0.08029385  0.60105653  1  0  0.122562  0  0.944376  0  0  0.13393  0  0.998795  0  0  0.137084  0  0.996896  0  0  0.12529  0.131613  0  1.000353  0
H  H29  1  0.96642706  0.41970840  0.10105146  1  0  0.122511  0  0.944455  0  0  0.133949  0  0.9988  0  0  0.137102  0  0.996902  0  0  0.125284  0.131632  0  1.000363  0
H  H30  1  0.53357916  0.91971055  0.39895231  1  0  0.122558  0  0.944406  0  0  0.133901  0  0.998857  0  0  0.137054  0  0.996958  0  0  0.125278  0.131586  0  1.000412  0
H  H31  1  0.03358104  0.58029512  0.89894183  1  0  0.122582  0  0.944458  0  0  0.13402  0  0.998786  0  0  0.137133  0  0.996938  0  0  0.125314  0.1317  0  1.000353  0
H  H32  1  0.25855816  0.94952584  0.45282707  1  0  0.094992  0  0.989664  0  0  0.10298  0  1.055544  0  0  0.10472  0  1.055705  0  0  0.11177  0.101718  0  1.055521  0
H  H33  1  0.75856911  0.55047794  0.95283667  1  0  0.09505  0  0.989646  0  0  0.103026  0  1.055517  0  0  0.104766  0  1.055679  0  0  0.11181  0.101726  0  1.055541  0
H  H34  1  0.74143686  0.05047333  0.54718212  1  0  0.094983  0  0.989667  0  0  0.102979  0  1.055536  0  0  0.104718  0  1.055699  0  0  0.111799  0.10172  0  1.055504  0
H  H35  1  0.24143723  0.44952733  0.04716242  1  0  0.094975  0  0.989589  0  0  0.102956  0  1.055484  0  0  0.104695  0  1.055648  0  0  0.111759  0.101689  0  1.055468  0
H  H36  1  0.27818476  0.93784529  0.00436744  1  0  0.093031  0  0.971571  0  0  0.100947  0  1.039547  0  0  0.104059  0  1.037468  0  0  0.10105  0.098717  0  1.041116  0
H  H37  1  0.77818197  0.56214955  0.50436916  1  0  0.093066  0  0.971591  0  0  0.100995  0  1.039542  0  0  0.104108  0  1.037463  0  0  0.101101  0.098766  0  1.041108  0
H  H38  1  0.72181369  0.06216259  0.99562695  1  0  0.093029  0  0.971504  0  0  0.100945  0  1.039506  0  0  0.104058  0  1.037426  0  0  0.101045  0.098716  0  1.041068  0
H  H39  1  0.22181953  0.43784090  0.49563009  1  0  0.093003  0  0.971643  0  0  0.100924  0  1.039625  0  0  0.104038  0  1.037549  0  0  0.101044  0.098691  0  1.04119  0
H  H40  1  0.38609827  0.01604925  0.87429313  1  0  0.09365  0  0.953278  0  0  0.102805  0  1.01654  0  0  0.106956  0  1.013389  0  0  0.098652  0.099698  0  1.019074  0
H  H41  1  0.88609547  0.48394554  0.37429460  1  0  0.093634  0  0.953215  0  0  0.102821  0  1.016459  0  0  0.106945  0  1.013339  0  0  0.098686  0.099715  0  1.01899  0
H  H42  1  0.61389923  0.98395776  0.12570177  1  0  0.093718  0  0.95331  0  0  0.102876  0  1.016545  0  0  0.107019  0  1.013403  0  0  0.09869  0.099769  0  1.019075  0
H  H43  1  0.11390689  0.51605363  0.62570094  1  0  0.093609  0  0.953251  0  0  0.102816  0  1.016476  0  0  0.106926  0  1.01337  0  0  0.098664  0.099711  0  1.019009  0
H  H44  1  0.22542125  0.35307846  0.88568878  1  0  0.095852  0  0.954707  0  0  0.106759  0  1.01617  0  0  0.1107  0  1.013217  0  0  0.101872  0.10395  0  1.018364  0
H  H45  1  0.72542085  0.14691389  0.38569647  1  0  0.095864  0  0.95473  0  0  0.106775  0  1.016198  0  0  0.110706  0  1.013258  0  0  0.101864  0.103962  0  1.018391  0
H  H46  1  0.77457847  0.64692768  0.11431548  1  0  0.095916  0  0.954672  0  0  0.106822  0  1.01614  0  0  0.110765  0  1.013187  0  0  0.101877  0.104009  0  1.018329  0
H  H47  1  0.27458852  0.85308092  0.61430668  1  0  0.095904  0  0.954615  0  0  0.106808  0  1.016097  0  0  0.110722  0  1.01318  0  0  0.101898  0.103991  0  1.018293  0
H  H48  1  0.11323823  0.27554033  0.01203341  1  0  0.091807  0  0.968386  0  0  0.101486  0  1.032321  0  0  0.10463  0  1.030757  0  0  0.101508  0.099218  0  1.033534  0
H  H49  1  0.61323635  0.22445810  0.51203889  1  0  0.091812  0  0.968408  0  0  0.10153  0  1.032286  0  0  0.104681  0  1.030726  0  0  0.101516  0.099259  0  1.033496  0
H  H50  1  0.88675948  0.72446406  0.98796868  1  0  0.091757  0  0.968342  0  0  0.101493  0  1.032218  0  0  0.104645  0  1.030657  0  0  0.101481  0.099225  0  1.033436  0
H  H51  1  0.38677115  0.77553410  0.48796688  1  0  0.09181  0  0.968378  0  0  0.101524  0  1.032261  0  0  0.104673  0  1.0307  0  0  0.101534  0.099254  0  1.03348  0
C  C52  1  0.92119434  0.88046671  0.37011249  1  0  0.003711  0  3.703207  0  0  -0.027725  0  3.962812  0  0  -0.026939  0  3.984358  0  0  0.003192  -0.028256  0  3.94842  0
C  C53  1  0.42119676  0.61954112  0.87011371  1  0  0.003838  0  3.703149  0  0  -0.027607  0  3.962689  0  0  -0.026823  0  3.98424  0  0  0.003268  -0.028128  0  3.948287  0
C  C54  1  0.07880135  0.11953333  0.62988662  1  0  0.003678  0  3.703265  0  0  -0.02775  0  3.962868  0  0  -0.026966  0  3.984419  0  0  0.003202  -0.028289  0  3.948486  0
C  C55  1  0.57880071  0.38045543  0.12988039  1  0  0.00394  0  3.702957  0  0  -0.027481  0  3.962452  0  0  -0.026697  0  3.984001  0  0  0.00331  -0.02802  0  3.948067  0
C  C56  1  0.93354446  0.76323980  0.39288287  1  0  0.011472  0  3.665633  0  0  -0.028782  0  3.93249  0  0  -0.027606  0  3.953481  0  0  0.010305  -0.029582  0  3.918528  0
C  C57  1  0.43354834  0.73676747  0.89288116  1  0  0.011419  0  3.665595  0  0  -0.028871  0  3.932531  0  0  -0.027694  0  3.953517  0  0  0.010253  -0.029674  0  3.918572  0
C  C58  1  0.06645033  0.23676111  0.60711835  1  0  0.011594  0  3.665677  0  0  -0.028655  0  3.932529  0  0  -0.027485  0  3.953523  0  0  0.010355  -0.02945  0  3.918569  0
C  C59  1  0.56645221  0.26323082  0.10711860  1  0  0.011332  0  3.665679  0  0  -0.028944  0  3.932608  0  0  -0.027765  0  3.953595  0  0  0.010266  -0.029734  0  3.918639  0
C  C60  1  0.04601051  0.81017873  0.28433455  1  0  0.219915  0  3.66526  0  0  0.159385  0  3.9358  0  0  0.173224  0  3.948784  0  0  0.148744  0.150506  0  3.926751  0
C  C61  1  0.54601104  0.68982096  0.78432927  1  0  0.219909  0  3.665126  0  0  0.159357  0  3.935679  0  0  0.173172  0  3.948648  0  0  0.148704  0.150479  0  3.926628  0
C  C62  1  0.95398532  0.18981608  0.71566934  1  0  0.219908  0  3.665191  0  0  0.159394  0  3.935742  0  0  0.173206  0  3.948713  0  0  0.148682  0.15053  0  3.926679  0
C  C63  1  0.45399142  0.31017907  0.21566947  1  0  0.219894  0  3.665081  0  0  0.15933  0  3.935688  0  0  0.173148  0  3.948655  0  0  0.148726  0.150454  0  3.926636  0
C  C64  1  0.24594404  0.22419587  0.40207730  1  0  0.203317  0  3.654956  0  0  0.144348  0  3.921037  0  0  0.157956  0  3.933021  0  0  0.137098  0.13559  0  3.912682  0
C  C65  1  0.74594520  0.27580716  0.90207875  1  0  0.203504  0  3.654749  0  0  0.144559  0  3.920862  0  0  0.158171  0  3.932842  0  0  0.13711  0.135791  0  3.91251  0
C  C66  1  0.75405155  0.77579806  0.59791862  1  0  0.20331  0  3.654993  0  0  0.144377  0  3.921089  0  0  0.157984  0  3.933073  0  0  0.137078  0.135615  0  3.912743  0
C  C67  1  0.25405339  0.72419898  0.09792043  1  0  0.203284  0  3.654991  0  0  0.144413  0  3.921121  0  0  0.158023  0  3.933101  0  0  0.137073  0.135657  0  3.912763  0
C  C68  1  0.38252283  0.10468877  0.52731029  1  0  -0.009128  0  3.695523  0  0  -0.046601  0  3.952375  0  0  -0.045104  0  3.971768  0  0  0.001511  -0.047562  0  3.939338  0
C  C69  1  0.88253316  0.39531420  0.02731222  1  0  -0.008985  0  3.69541  0  0  -0.046476  0  3.952291  0  0  -0.044976  0  3.971686  0  0  0.001563  -0.047445  0  3.939251  0
C  C70  1  0.61747005  0.89531127  0.47269195  1  0  -0.009071  0  3.695683  0  0  -0.046474  0  3.952557  0  0  -0.044975  0  3.971949  0  0  0.00152  -0.047446  0  3.939522  0
C  C71  1  0.11747213  0.60469107  0.97268419  1  0  -0.009213  0  3.695551  0  0  -0.046718  0  3.952414  0  0  -0.045185  0  3.971827  0  0  0.001527  -0.047681  0  3.939376  0
C  C72  1  0.27875103  0.04204631  0.45544904  1  0  -0.028398  0  3.772435  0  0  -0.057767  0  4.032265  0  0  -0.057164  0  4.054039  0  0  -0.012865  -0.058134  0  4.017504  0
C  C73  1  0.77875809  0.45795922  0.95545597  1  0  -0.028462  0  3.772308  0  0  -0.057797  0  4.032126  0  0  -0.057198  0  4.0539  0  0  -0.012875  -0.058132  0  4.017399  0
C  C74  1  0.72124477  0.95795373  0.54455406  1  0  -0.028374  0  3.772271  0  0  -0.057736  0  4.03209  0  0  -0.057135  0  4.053866  0  0  -0.012826  -0.058102  0  4.017318  0
C  C75  1  0.22124532  0.54204692  0.04454226  1  0  -0.028313  0  3.772281  0  0  -0.05765  0  4.032101  0  0  -0.057045  0  4.053866  0  0  -0.012819  -0.058011  0  4.017342  0
C  C76  1  0.13230607  0.05497190  0.09900760  1  0  0.639414  0  3.9088  0  0  0.58684  0  4.205026  0  0  0.620481  0  4.197842  0  0  0.199419  0.564082  0  4.209155  0
C  C77  1  0.63230820  0.44502688  0.59901370  1  0  0.639341  0  3.90845  0  0  0.586792  0  4.204723  0  0  0.620428  0  4.197541  0  0  0.199402  0.564044  0  4.208847  0
C  C78  1  0.86769350  0.94503075  0.90099187  1  0  0.639493  0  3.908446  0  0  0.586933  0  4.204657  0  0  0.62057  0  4.197475  0  0  0.19944  0.564179  0  4.208783  0
C  C79  1  0.36769919  0.55496531  0.40098808  1  0  0.639447  0  3.908446  0  0  0.586927  0  4.204652  0  0  0.620556  0  4.197471  0  0  0.199456  0.564172  0  4.208775  0
C  C80  1  0.18854498  0.10155622  0.01593514  1  0  -0.067192  0  3.768918  0  0  -0.04661  0  4.006561  0  0  -0.053041  0  4.028429  0  0  -0.02287  -0.042419  0  3.991904  0
C  C81  1  0.68854488  0.39844139  0.51593924  1  0  -0.067041  0  3.768598  0  0  -0.046562  0  4.006404  0  0  -0.052981  0  4.028258  0  0  -0.02287  -0.042378  0  3.991749  0
C  C82  1  0.81145562  0.89844905  0.98406622  1  0  -0.067247  0  3.769051  0  0  -0.046645  0  4.00668  0  0  -0.053075  0  4.028548  0  0  -0.022902  -0.042459  0  3.992025  0
C  C83  1  0.31146353  0.60155429  0.48406442  1  0  -0.067068  0  3.768788  0  0  -0.046563  0  4.006512  0  0  -0.052974  0  4.028358  0  0  -0.022856  -0.042376  0  3.991853  0
C  C84  1  0.26572737  0.02836797  0.97685079  1  0  -0.086224  0  3.753717  0  0  -0.110452  0  4.010139  0  0  -0.110222  0  4.028181  0  0  -0.089379  -0.110692  0  3.998214  0
C  C85  1  0.76572846  0.47162827  0.47685484  1  0  -0.08627  0  3.753705  0  0  -0.110489  0  4.010166  0  0  -0.110251  0  4.028175  0  0  -0.089368  -0.110726  0  3.998235  0
C  C86  1  0.73427313  0.97163730  0.02314737  1  0  -0.086247  0  3.753911  0  0  -0.110515  0  4.010333  0  0  -0.110283  0  4.028369  0  0  -0.089363  -0.110749  0  3.99839  0
C  C87  1  0.23427507  0.52836654  0.52314738  1  0  -0.086203  0  3.753987  0  0  -0.110427  0  4.010421  0  0  -0.110193  0  4.028428  0  0  -0.08927  -0.110654  0  3.998479  0
C  C88  1  0.32622983  0.07153753  0.90573590  1  0  -0.072539  0  3.744007  0  0  -0.09584  0  3.994379  0  0  -0.096886  0  4.013346  0  0  -0.086817  -0.094939  0  3.981654  0
C  C89  1  0.82622778  0.42845509  0.40573931  1  0  -0.072521  0  3.743905  0  0  -0.095818  0  3.994299  0  0  -0.09684  0  4.013266  0  0  -0.086878  -0.094917  0  3.981569  0
C  C90  1  0.67376972  0.92847122  0.09426277  1  0  -0.072666  0  3.744285  0  0  -0.095919  0  3.994649  0  0  -0.096957  0  4.013616  0  0  -0.086872  -0.09502  0  3.981916  0
C  C91  1  0.17377763  0.57153885  0.59426109  1  0  -0.072618  0  3.744273  0  0  -0.095935  0  3.994676  0  0  -0.096951  0  4.013664  0  0  -0.086944  -0.095037  0  3.981948  0
C  C92  1  0.31314402  0.18920103  0.87379111  1  0  -0.053782  0  3.751896  0  0  -0.029393  0  3.978823  0  0  -0.035005  0  4.001056  0  0  -0.016396  -0.025801  0  3.964058  0
C  C93  1  0.81314523  0.31079201  0.37379331  1  0  -0.053776  0  3.751922  0  0  -0.029424  0  3.978936  0  0  -0.035031  0  4.001154  0  0  -0.016419  -0.025833  0  3.964172  0
C  C94  1  0.68685765  0.81080772  0.12621372  1  0  -0.053631  0  3.751868  0  0  -0.029334  0  3.978881  0  0  -0.034956  0  4.001132  0  0  -0.016403  -0.025742  0  3.964115  0
C  C95  1  0.18685627  0.68920193  0.62620594  1  0  -0.053597  0  3.751902  0  0  -0.029275  0  3.978961  0  0  -0.034857  0  4.001127  0  0  -0.016345  -0.025688  0  3.964203  0
C  C96  1  0.23453062  0.26182804  0.91116757  1  0  -0.073458  0  3.744958  0  0  -0.099771  0  3.998431  0  0  -0.100115  0  4.017224  0  0  -0.088819  -0.099538  0  3.985831  0
C  C97  1  0.73452861  0.23816467  0.41117112  1  0  -0.073459  0  3.745079  0  0  -0.099743  0  3.998527  0  0  -0.100077  0  4.01732  0  0  -0.088738  -0.099512  0  3.985943  0
C  C98  1  0.76546907  0.73817984  0.08883589  1  0  -0.0736  0  3.744864  0  0  -0.099909  0  3.998396  0  0  -0.100252  0  4.017183  0  0  -0.088793  -0.099671  0  3.985806  0
C  C99  1  0.26547783  0.76182579  0.58883117  1  0  -0.073652  0  3.74506  0  0  -0.099972  0  3.99859  0  0  -0.100299  0  4.017386  0  0  -0.088917  -0.099727  0  3.985992  0
C  C100  1  0.17223281  0.21836127  0.98118291  1  0  -0.089633  0  3.75319  0  0  -0.114088  0  4.009554  0  0  -0.114968  0  4.029362  0  0  -0.092991  -0.113307  0  3.996098  0
C  C101  1  0.67223294  0.28163679  0.48118602  1  0  -0.08975  0  3.753272  0  0  -0.114207  0  4.009664  0  0  -0.115103  0  4.02948  0  0  -0.093063  -0.113424  0  3.996199  0
C  C102  1  0.82776785  0.78164313  0.01882084  1  0  -0.089447  0  3.753063  0  0  -0.11394  0  4.009389  0  0  -0.114833  0  4.029208  0  0  -0.092935  -0.113163  0  3.99594  0
C  C103  1  0.32777347  0.71835627  0.51881547  1  0  -0.089576  0  3.753403  0  0  -0.114025  0  4.009761  0  0  -0.114916  0  4.029568  0  0  -0.092952  -0.113248  0  3.996309  0
C  C104  1  0.39200574  0.23733252  0.80806966  1  0  0.623736  0  3.956083  0  0  0.575607  0  4.252179  0  0  0.608905  0  4.245679  0  0  0.193475  0.553071  0  4.255703  0
C  C105  1  0.89200086  0.26265523  0.30807027  1  0  0.62366  0  3.956222  0  0  0.575488  0  4.252416  0  0  0.608785  0  4.245923  0  0  0.193432  0.552943  0  4.255945  0
C  C106  1  0.60799386  0.76267450  0.19193061  1  0  0.623721  0  3.956271  0  0  0.575631  0  4.252332  0  0  0.608932  0  4.245826  0  0  0.19343  0.553087  0  4.255869  0
C  C107  1  0.10799962  0.73733696  0.69192709  1  0  0.623776  0  3.956443  0  0  0.575615  0  4.252576  0  0  0.608908  0  4.246088  0  0  0.193456  0.553072  0  4.256111  0
N  N108  1  0.99172789  0.90836714  0.30236714  1  0  -0.387506  0  3.301795  0  0  -0.301882  0  3.595297  0  0  -0.322388  0  3.608983  0  0  -0.35508  -0.288  0  3.585736  0
N  N109  1  0.49172924  0.59163362  0.80236930  1  0  -0.387533  0  3.301542  0  0  -0.301902  0  3.595059  0  0  -0.322407  0  3.60875  0  0  -0.355104  -0.288031  0  3.585526  0
N  N110  1  0.00826973  0.09162854  0.69763175  1  0  -0.387519  0  3.301802  0  0  -0.301928  0  3.595336  0  0  -0.322432  0  3.609026  0  0  -0.35509  -0.288055  0  3.585793  0
N  N111  1  0.50827122  0.40836554  0.19762726  1  0  -0.38763  0  3.301525  0  0  -0.302033  0  3.595078  0  0  -0.322537  0  3.608764  0  0  -0.355152  -0.288155  0  3.585543  0
N  N112  1  0.01187142  0.72083814  0.33769131  1  0  -0.27936  0  3.485625  0  0  -0.215036  0  3.720685  0  0  -0.231037  0  3.738463  0  0  -0.374644  -0.204383  0  3.708665  0
N  N113  1  0.51187436  0.77916580  0.83768700  1  0  -0.279133  0  3.485282  0  0  -0.2149  0  3.72036  0  0  -0.230898  0  3.738139  0  0  -0.37461  -0.204238  0  3.70834  0
N  N114  1  0.98812438  0.27916190  0.66231179  1  0  -0.279181  0  3.485398  0  0  -0.214896  0  3.720466  0  0  -0.230888  0  3.738247  0  0  -0.374592  -0.204248  0  3.708454  0
N  N115  1  0.48812922  0.22083250  0.16231681  1  0  -0.279002  0  3.48523  0  0  -0.214844  0  3.720276  0  0  -0.230845  0  3.738058  0  0  -0.374605  -0.204195  0  3.708262  0
N  N116  1  0.19387785  0.11768032  0.37837192  1  0  -0.397875  0  3.328146  0  0  -0.313126  0  3.619205  0  0  -0.333818  0  3.633437  0  0  -0.364835  -0.299048  0  3.609231  0
N  N117  1  0.69387974  0.38232413  0.87838038  1  0  -0.397992  0  3.328109  0  0  -0.313262  0  3.619197  0  0  -0.333954  0  3.633421  0  0  -0.364891  -0.29918  0  3.609216  0
N  N118  1  0.80611970  0.88231449  0.62162458  1  0  -0.397892  0  3.328113  0  0  -0.313158  0  3.619199  0  0  -0.333849  0  3.633427  0  0  -0.364842  -0.299078  0  3.609224  0
N  N119  1  0.30612079  0.61768114  0.12161858  1  0  -0.397935  0  3.328278  0  0  -0.313233  0  3.619364  0  0  -0.333923  0  3.633589  0  0  -0.364879  -0.299157  0  3.609393  0
N  N120  1  0.35992771  0.21885025  0.49192869  1  0  -0.280055  0  3.45436  0  0  -0.210791  0  3.690486  0  0  -0.227212  0  3.705971  0  0  -0.378061  -0.199802  0  3.67986  0
N  N121  1  0.85993171  0.28115317  0.99192709  1  0  -0.280117  0  3.45452  0  0  -0.211018  0  3.690821  0  0  -0.227443  0  3.706308  0  0  -0.378142  -0.200013  0  3.680185  0
N  N122  1  0.64006502  0.78114979  0.50806876  1  0  -0.280079  0  3.454647  0  0  -0.210962  0  3.690899  0  0  -0.227383  0  3.706382  0  0  -0.378122  -0.199965  0  3.68028  0
N  N123  1  0.14006874  0.71885123  0.00806948  1  0  -0.27986  0  3.454511  0  0  -0.21071  0  3.690732  0  0  -0.227127  0  3.706206  0  0  -0.378045  -0.199716  0  3.680101  0
O  O124  1  0.03780436  0.11534089  0.11243060  1  0  -0.659281  0  2.0925  0  0  -0.577532  0  2.361413  0  0  -0.606117  0  2.345479  0  0  -0.324968  -0.557669  0  2.37183  0
O  O125  1  0.53780524  0.38466071  0.61243721  1  0  -0.659405  0  2.092546  0  0  -0.577611  0  2.361405  0  0  -0.606207  0  2.3455  0  0  -0.325029  -0.557737  0  2.371788  0
O  O126  1  0.96219326  0.88466002  0.88756829  1  0  -0.659392  0  2.092402  0  0  -0.577657  0  2.361327  0  0  -0.606236  0  2.345389  0  0  -0.325028  -0.557791  0  2.371727  0
O  O127  1  0.46219917  0.61533236  0.38756211  1  0  -0.659512  0  2.092675  0  0  -0.577719  0  2.361488  0  0  -0.606335  0  2.345631  0  0  -0.325066  -0.557841  0  2.371879  0
O  O128  1  0.17854627  0.96495937  0.15445125  1  0  -0.60157  0  1.921064  0  0  -0.556106  0  2.147138  0  0  -0.578618  0  2.138772  0  0  -0.314984  -0.540387  0  2.152387  0
O  O129  1  0.67855132  0.53504109  0.65446050  1  0  -0.601539  0  1.920847  0  0  -0.556078  0  2.146886  0  0  -0.578588  0  2.138531  0  0  -0.314949  -0.540359  0  2.152129  0
O  O130  1  0.82145423  0.03504503  0.84554691  1  0  -0.601561  0  1.920844  0  0  -0.556099  0  2.146899  0  0  -0.578614  0  2.138542  0  0  -0.314934  -0.540374  0  2.152135  0
O  O131  1  0.32145897  0.46495197  0.34554135  1  0  -0.601595  0  1.920861  0  0  -0.556125  0  2.146857  0  0  -0.578633  0  2.138504  0  0  -0.314982  -0.540405  0  2.152099  0
O  O132  1  0.47160443  0.17293504  0.78617370  1  0  -0.61731  0  1.902288  0  0  -0.577506  0  2.125561  0  0  -0.599014  0  2.115849  0  0  -0.330891  -0.562424  0  2.131783  0
O  O133  1  0.97160172  0.32705326  0.28617176  1  0  -0.617341  0  1.902201  0  0  -0.577548  0  2.125549  0  0  -0.599056  0  2.115833  0  0  -0.33091  -0.562457  0  2.131765  0
O  O134  1  0.52839714  0.82707284  0.21382795  1  0  -0.617347  0  1.902314  0  0  -0.577547  0  2.12555  0  0  -0.599047  0  2.115827  0  0  -0.330904  -0.562463  0  2.131774  0
O  O135  1  0.02839958  0.67294416  0.71382110  1  0  -0.617344  0  1.902477  0  0  -0.577554  0  2.125803  0  0  -0.599071  0  2.116107  0  0  -0.330854  -0.562464  0  2.132023  0
O  O136  1  0.37389429  0.34760248  0.78317401  1  0  -0.659644  0  2.039999  0  0  -0.587443  0  2.316254  0  0  -0.615809  0  2.301498  0  0  -0.345263  -0.567436  0  2.325559  0
O  O137  1  0.87389182  0.15238666  0.28317642  1  0  -0.659542  0  2.040097  0  0  -0.587302  0  2.316342  0  0  -0.615666  0  2.30159  0  0  -0.345229  -0.567293  0  2.325645  0
O  O138  1  0.62610626  0.65240453  0.21682574  1  0  -0.659695  0  2.040235  0  0  -0.587463  0  2.31646  0  0  -0.615831  0  2.3017  0  0  -0.345212  -0.567438  0  2.325739  0
O  O139  1  0.12610777  0.84760727  0.71682385  1  0  -0.659719  0  2.040122  0  0  -0.587415  0  2.316311  0  0  -0.61578  0  2.301555  0  0  -0.345287  -0.567392  0  2.325592  0
