# generated using pymatgen
data_GdH16C9S3O8
_symmetry_space_group_name_H-M   'P 1'
_cell_length_a   9.16049573
_cell_length_b   9.93340347
_cell_length_c   10.84623191
_cell_angle_alpha   73.42256971
_cell_angle_beta   70.42299118
_cell_angle_gamma   82.80208180
_symmetry_Int_Tables_number   1
_chemical_formula_structural   GdH16C9S3O8
_chemical_formula_sum   'Gd2 H32 C18 S6 O16'
_cell_volume   890.76481760
_cell_formula_units_Z   2
loop_
 _symmetry_equiv_pos_site_id
 _symmetry_equiv_pos_as_xyz
  1  'x, y, z'
loop_
 _atom_site_type_symbol
 _atom_site_label
 _atom_site_symmetry_multiplicity
 _atom_site_fract_x
 _atom_site_fract_y
 _atom_site_fract_z
 _atom_site_occupancy
 _atom_site_pbe_bader_charge
 _atom_site_pbe_bader_spin_density
 _atom_site_pbe_cm5_charge
 _atom_site_pbe_ddec_charge
 _atom_site_pbe_ddec_spin_density
 _atom_site_pbe_ddec_sum_bond_order
 _atom_site_pbe_magmom
Gd  Gd0  1  0.72227527  0.51649721  0.02113323  1  2.195751  0  1.451697  2.070771  0  2.125575  0
Gd  Gd1  1  0.27773059  0.48350406  0.97886742  1  2.195748  0  1.451763  2.070807  0  2.125837  0
H  H2  1  0.23698719  0.78361532  0.67335847  1  0.063904  0  0.1051  0.139624  0  0.984532  0
H  H3  1  0.07827351  0.90776841  0.70123480  1  0.104364  0  0.101132  0.128523  0  1.012281  0
H  H4  1  0.04159013  0.55720262  0.62895567  1  0.068839  0  0.093783  0.107189  0  1.031097  0
H  H5  1  0.06306643  0.61106617  0.45395007  1  0.056931  0  0.092378  0.103754  0  1.017915  0
H  H6  1  0.33217688  0.60017997  0.57014803  1  0.119252  0  0.096803  0.121032  0  1.042021  0
H  H7  1  0.35140598  0.62787191  0.39760535  1  0.071941  0  0.093001  0.105182  0  0.99624  0
H  H8  1  0.29485699  0.25283671  0.38214454  1  0.126716  0  0.118942  0.157245  0  0.953189  0
H  H9  1  0.19866539  0.41555256  0.34647552  1  0.119946  0  0.108895  0.14109  0  1.018818  0
H  H10  1  0.85820048  0.07017415  0.08774694  1  0.092625  0  0.098814  0.116294  0  0.997297  0
H  H11  1  0.88481062  0.88651684  0.10008231  1  0.083929  0  0.099208  0.119991  0  1.005987  0
H  H12  1  0.96835045  0.19572665  0.74122444  1  0.09229  0  0.099285  0.123247  0  1.007569  0
H  H13  1  0.77394329  0.20002133  0.74397732  1  0.12144  0  0.111698  0.14953  0  0.987035  0
H  H14  1  0.47500387  0.74750904  0.01837984  1  0.647341  0  0.299292  0.401307  0  0.935032  0
H  H15  1  0.92104474  0.62541969  0.14975849  1  0.667415  0  0.303928  0.399904  0  0.937098  0
H  H16  1  0.74717361  0.65298077  0.23075532  1  0.609829  0  0.303485  0.384581  0  0.938936  0
H  H17  1  0.62698053  0.82150012  0.00448668  1  0.612424  0  0.293413  0.370256  0  0.963713  0
H  H18  1  0.76302536  0.21639913  0.32663056  1  0.063488  0  0.105085  0.139639  0  0.984667  0
H  H19  1  0.92173056  0.09223818  0.29875956  1  0.104394  0  0.10113  0.128558  0  1.012324  0
H  H20  1  0.95841568  0.44280149  0.37105631  1  0.068681  0  0.093808  0.107278  0  1.030987  0
H  H21  1  0.93692604  0.38892921  0.54605320  1  0.056858  0  0.092312  0.103686  0  1.017835  0
H  H22  1  0.66783162  0.39981825  0.42985351  1  0.119227  0  0.09682  0.12106  0  1.042073  0
H  H23  1  0.64859011  0.37212346  0.60240424  1  0.071898  0  0.093024  0.105246  0  0.996208  0
H  H24  1  0.70512940  0.74717310  0.61785704  1  0.126627  0  0.118974  0.157285  0  0.953079  0
H  H25  1  0.80134810  0.58445337  0.65351991  1  0.12013  0  0.108849  0.141065  0  1.018859  0
H  H26  1  0.14181146  0.92982521  0.91225700  1  0.092647  0  0.098859  0.116328  0  0.997317  0
H  H27  1  0.11519783  0.11348145  0.89991646  1  0.083934  0  0.099199  0.119939  0  1.006009  0
H  H28  1  0.03164280  0.80426224  0.25878755  1  0.092165  0  0.099336  0.123349  0  1.007521  0
H  H29  1  0.22605513  0.79995974  0.25602212  1  0.12173  0  0.111703  0.149518  0  0.987105  0
H  H30  1  0.52499442  0.25249818  0.98162069  1  0.647362  0  0.299314  0.401417  0  0.934912  0
H  H31  1  0.07893698  0.37458995  0.85024174  1  0.667352  0  0.303844  0.399745  0  0.937279  0
H  H32  1  0.25280731  0.34702562  0.76924778  1  0.610056  0  0.303545  0.384607  0  0.938883  0
H  H33  1  0.37301450  0.17850392  0.99551006  1  0.612461  0  0.293443  0.370302  0  0.963625  0
C  C34  1  0.02161143  0.69733599  0.81467535  1  1.616317  0  0.228277  0.706836  0  4.101595  0
C  C35  1  0.11292223  0.80197763  0.68605608  1  -0.127859  0  -0.153113  -0.336812  0  3.888284  0
C  C36  1  0.11033246  0.62264077  0.53097150  1  -0.118671  0  -0.163594  -0.195862  0  3.955594  0
C  C37  1  0.28078101  0.57621729  0.50107068  1  -0.127327  0  -0.161333  -0.191579  0  3.938867  0
C  C38  1  0.30355226  0.36582579  0.36950470  1  -0.167732  0  -0.145614  -0.331368  0  3.88951  0
C  C39  1  0.44383774  0.41965154  0.24854976  1  1.562893  0  0.219804  0.685915  0  4.109449  0
C  C40  1  0.91275679  0.99149158  0.03124005  1  -0.118014  0  -0.158553  -0.190023  0  3.939634  0
C  C41  1  0.84842243  0.18082856  0.80909868  1  -0.168159  0  -0.152811  -0.339268  0  3.908084  0
C  C42  1  0.80716956  0.29010346  0.88940376  1  1.569576  0  0.209211  0.647991  0  4.134261  0
C  C43  1  0.97839146  0.30266873  0.18530875  1  1.615916  0  0.228332  0.706816  0  4.101647  0
C  C44  1  0.88708003  0.19802363  0.31393919  1  -0.127214  0  -0.153148  -0.336892  0  3.888419  0
C  C45  1  0.88965301  0.37735434  0.46903022  1  -0.118509  0  -0.163582  -0.195833  0  3.95542  0
C  C46  1  0.71921150  0.42377803  0.49893444  1  -0.127207  0  -0.161358  -0.191706  0  3.938987  0
C  C47  1  0.69645370  0.63417352  0.63049087  1  -0.167799  0  -0.145676  -0.331475  0  3.889201  0
C  C48  1  0.55616279  0.58033728  0.75147670  1  1.56347  0  0.219689  0.685738  0  4.110619  0
C  C49  1  0.08723494  0.00851023  0.96875635  1  -0.152242  0  -0.158659  -0.190101  0  3.939806  0
C  C50  1  0.15156861  0.81915732  0.19090455  1  -0.168254  0  -0.15285  -0.339244  0  3.90828  0
C  C51  1  0.19283063  0.70989462  0.11058920  1  1.56994  0  0.209132  0.647811  0  4.13417  0
S  S52  1  0.81864164  0.00022626  0.90645403  1  0.004094  0  0.000483  0.028729  0  2.697015  0
S  S53  1  0.31016260  0.38707576  0.52703977  1  -0.041019  0  -0.028367  -0.019531  0  2.685909  0
S  S54  1  0.07222609  0.80614447  0.53286007  1  -0.007678  0  -0.042727  -0.025357  0  2.666721  0
S  S55  1  0.18136092  0.99975842  0.09353501  1  0.003968  0  0.000483  0.028627  0  2.697124  0
S  S56  1  0.68983078  0.61292181  0.47296086  1  -0.041037  0  -0.028394  -0.019499  0  2.68602  0
S  S57  1  0.92777440  0.19386209  0.46712983  1  -0.007842  0  -0.042743  -0.025369  0  2.66692  0
O  O58  1  0.89115209  0.39788712  0.84420708  1  -1.187832  0  -0.351437  -0.622876  0  2.281474  0
O  O59  1  0.69130231  0.27758168  0.99685948  1  -1.199716  0  -0.344895  -0.614833  0  2.262845  0
O  O60  1  0.57344904  0.43214761  0.26122767  1  -1.185064  0  -0.361857  -0.623489  0  2.241681  0
O  O61  1  0.87765110  0.68607740  0.83935380  1  -1.202303  0  -0.394807  -0.665398  0  2.292189  0
O  O62  1  0.81578147  0.64953200  0.14055073  1  -1.26213  0  -0.614574  -0.808308  0  2.098158  0
O  O63  1  0.09665442  0.62759347  0.89343548  1  -1.216109  0  -0.409123  -0.697942  0  2.345265  0
O  O64  1  0.57196792  0.73315278  0.04427875  1  -1.255811  0  -0.633726  -0.827229  0  2.070118  0
O  O65  1  0.42807285  0.45243278  0.13027091  1  -1.205191  0  -0.41205  -0.71911  0  2.368607  0
O  O66  1  0.10883151  0.60210271  0.15579278  1  -1.188012  0  -0.351513  -0.623043  0  2.280953  0
O  O67  1  0.30869215  0.72240536  0.00314522  1  -1.199952  0  -0.344811  -0.614535  0  2.263158  0
O  O68  1  0.42655992  0.56783567  0.73878472  1  -1.185114  0  -0.361827  -0.623425  0  2.241835  0
O  O69  1  0.12237160  0.31391745  0.16064066  1  -1.201558  0  -0.394865  -0.665549  0  2.291814  0
O  O70  1  0.18420981  0.35048658  0.85944451  1  -1.262233  0  -0.614567  -0.80819  0  2.098306  0
O  O71  1  0.90337203  0.37241096  0.10655925  1  -1.216706  0  -0.409013  -0.697744  0  2.345767  0
O  O72  1  0.42803259  0.26685559  0.95572177  1  -1.25599  0  -0.633792  -0.827341  0  2.069838  0
O  O73  1  0.57193189  0.54758977  0.86971571  1  -1.205581  0  -0.411895  -0.71888  0  2.369886  0
