# generated using pymatgen
data_AgH5C2N5ClO4
_symmetry_space_group_name_H-M   'P 1'
_cell_length_a   6.49414793
_cell_length_b   7.19495735
_cell_length_c   18.16076611
_cell_angle_alpha   89.99985610
_cell_angle_beta   97.58209987
_cell_angle_gamma   89.99993840
_symmetry_Int_Tables_number   1
_chemical_formula_structural   AgH5C2N5ClO4
_chemical_formula_sum   'Ag4 H20 C8 N20 Cl4 O16'
_cell_volume   841.14477370
_cell_formula_units_Z   4
loop_
 _symmetry_equiv_pos_site_id
 _symmetry_equiv_pos_as_xyz
  1  'x, y, z'
loop_
 _atom_site_type_symbol
 _atom_site_label
 _atom_site_symmetry_multiplicity
 _atom_site_fract_x
 _atom_site_fract_y
 _atom_site_fract_z
 _atom_site_occupancy
 _atom_site_hle17_bader_spin_density
 _atom_site_hle17_ddec_charge
 _atom_site_hle17_ddec_spin_density
 _atom_site_hle17_ddec_sum_bond_order
 _atom_site_hle17_magmom
 _atom_site_hse06_10hf_bader_spin_density
 _atom_site_hse06_10hf_ddec_charge
 _atom_site_hse06_10hf_ddec_spin_density
 _atom_site_hse06_10hf_ddec_sum_bond_order
 _atom_site_hse06_10hf_magmom
 _atom_site_hse06_bader_spin_density
 _atom_site_hse06_ddec_charge
 _atom_site_hse06_ddec_spin_density
 _atom_site_hse06_ddec_sum_bond_order
 _atom_site_hse06_magmom
 _atom_site_pbe_bader_spin_density
 _atom_site_pbe_cm5_charge
 _atom_site_pbe_ddec_charge
 _atom_site_pbe_ddec_spin_density
 _atom_site_pbe_ddec_sum_bond_order
 _atom_site_pbe_magmom
Ag  Ag0  1  0.95933568  0.21510306  0.83784998  1  0  0.601251  0  1.343285  0  0  0.468942  0  1.767346  0  0  0.49393  0  1.723115  0  0  0.486653  0.450563  0  1.798734  0
Ag  Ag1  1  0.04066588  0.71510147  0.66214910  1  0  0.601234  0  1.343324  0  0  0.468881  0  1.767397  0  0  0.493867  0  1.723166  0  0  0.486623  0.450501  0  1.798784  0
Ag  Ag2  1  0.04066335  0.78489640  0.16214960  1  0  0.601235  0  1.343264  0  0  0.468926  0  1.767337  0  0  0.493913  0  1.723105  0  0  0.486641  0.450546  0  1.798725  0
Ag  Ag3  1  0.95933471  0.28489937  0.33785110  1  0  0.601208  0  1.343355  0  0  0.468887  0  1.767426  0  0  0.493872  0  1.723196  0  0  0.486619  0.450505  0  1.798812  0
H  H4  1  0.55094354  0.15892820  0.71339253  1  0  0.344611  0  0.910693  0  0  0.325951  0  0.976304  0  0  0.333054  0  0.970162  0  0  0.301535  0.320918  0  0.980639  0
H  H5  1  0.44905504  0.65892959  0.78660867  1  0  0.344633  0  0.910655  0  0  0.325974  0  0.976275  0  0  0.333078  0  0.97013  0  0  0.301523  0.320939  0  0.980612  0
H  H6  1  0.44905550  0.84107126  0.28660760  1  0  0.344631  0  0.910665  0  0  0.325972  0  0.976273  0  0  0.333074  0  0.970132  0  0  0.301535  0.320938  0  0.980608  0
H  H7  1  0.55094401  0.34107126  0.21339256  1  0  0.344654  0  0.910652  0  0  0.325994  0  0.976266  0  0  0.333098  0  0.970122  0  0  0.301534  0.32096  0  0.980602  0
H  H8  1  0.28540642  0.13749110  0.71344759  1  0  0.343182  0  0.910695  0  0  0.324901  0  0.976536  0  0  0.331445  0  0.971363  0  0  0.300898  0.320269  0  0.980191  0
H  H9  1  0.71459529  0.63749222  0.78655322  1  0  0.343204  0  0.910645  0  0  0.324929  0  0.976491  0  0  0.331473  0  0.971318  0  0  0.30089  0.320296  0  0.980146  0
H  H10  1  0.71459259  0.86250836  0.28655143  1  0  0.343205  0  0.91071  0  0  0.324911  0  0.976578  0  0  0.331454  0  0.971407  0  0  0.300888  0.320278  0  0.980236  0
H  H11  1  0.28540531  0.36251001  0.21344753  1  0  0.343222  0  0.910646  0  0  0.324942  0  0.97649  0  0  0.331485  0  0.971317  0  0  0.300898  0.320309  0  0.980144  0
H  H12  1  0.42229481  0.30148305  0.03713478  1  0  0.146391  0  0.938916  0  0  0.162784  0  0.999488  0  0  0.164551  0  0.998625  0  0  0.119652  0.161397  0  1.000241  0
H  H13  1  0.57770787  0.80148318  0.46286557  1  0  0.146413  0  0.938921  0  0  0.162807  0  0.999481  0  0  0.164573  0  0.998622  0  0  0.119669  0.161421  0  1.000234  0
H  H14  1  0.57770732  0.69851780  0.96286494  1  0  0.1464  0  0.938946  0  0  0.16279  0  0.999505  0  0  0.164558  0  0.998643  0  0  0.11965  0.161403  0  1.000259  0
H  H15  1  0.42229273  0.19851767  0.53713518  1  0  0.1464  0  0.938916  0  0  0.162796  0  0.999478  0  0  0.164561  0  0.998621  0  0  0.119657  0.161409  0  1.000232  0
H  H16  1  0.20041506  0.16668011  0.99846164  1  0  0.142676  0  0.945339  0  0  0.16106  0  1.006706  0  0  0.162781  0  1.005164  0  0  0.115109  0.159736  0  1.007909  0
H  H17  1  0.79958506  0.66668020  0.50153962  1  0  0.142702  0  0.945295  0  0  0.161065  0  1.006684  0  0  0.162788  0  1.005138  0  0  0.115125  0.159743  0  1.007883  0
H  H18  1  0.79958708  0.83331934  0.00153863  1  0  0.142766  0  0.945321  0  0  0.161105  0  1.006721  0  0  0.162827  0  1.005174  0  0  0.115121  0.159782  0  1.007919  0
H  H19  1  0.20041399  0.33331925  0.49846161  1  0  0.142748  0  0.945356  0  0  0.161117  0  1.006726  0  0  0.162839  0  1.005183  0  0  0.115135  0.159793  0  1.007927  0
H  H20  1  0.20603294  0.41263992  0.98220887  1  0  0.130209  0  0.935904  0  0  0.144146  0  1.007451  0  0  0.145379  0  1.006401  0  0  0.112883  0.143175  0  1.008265  0
H  H21  1  0.79396833  0.91263992  0.51779110  1  0  0.130204  0  0.935892  0  0  0.144145  0  1.007434  0  0  0.145378  0  1.006384  0  0  0.112866  0.143174  0  1.008248  0
H  H22  1  0.79396765  0.58735953  0.01779133  1  0  0.130216  0  0.935903  0  0  0.144154  0  1.007439  0  0  0.145388  0  1.006388  0  0  0.112865  0.143183  0  1.008253  0
H  H23  1  0.20603226  0.08735954  0.48220910  1  0  0.130212  0  0.935888  0  0  0.144155  0  1.007428  0  0  0.145388  0  1.006378  0  0  0.112866  0.143184  0  1.008242  0
C  C24  1  0.29972404  0.28583160  0.99012837  1  0  -0.250646  0  3.583598  0  0  -0.352367  0  3.835621  0  0  -0.350997  0  3.842  0  0  -0.127817  -0.352981  0  3.831444  0
C  C25  1  0.70027589  0.78583173  0.50987221  1  0  -0.250655  0  3.583548  0  0  -0.352367  0  3.835582  0  0  -0.350994  0  3.841956  0  0  -0.127815  -0.35298  0  3.831406  0
C  C26  1  0.70027654  0.71416786  0.00987128  1  0  -0.250737  0  3.583582  0  0  -0.352416  0  3.835598  0  0  -0.351046  0  3.841976  0  0  -0.127792  -0.353029  0  3.831422  0
C  C27  1  0.29972471  0.21416773  0.49012854  1  0  -0.250686  0  3.583592  0  0  -0.352405  0  3.835616  0  0  -0.351037  0  3.841997  0  0  -0.127782  -0.353018  0  3.83144  0
C  C28  1  0.45279801  0.19175647  0.81495546  1  0  0.567401  0  3.852985  0  0  0.517125  0  4.136775  0  0  0.539359  0  4.147888  0  0  0.339897  0.501925  0  4.129089  0
C  C29  1  0.54720212  0.69175147  0.68504798  1  0  0.567509  0  3.853083  0  0  0.517219  0  4.136856  0  0  0.539452  0  4.147971  0  0  0.33992  0.502017  0  4.129172  0
C  C30  1  0.54719947  0.80824021  0.18504405  1  0  0.567447  0  3.852956  0  0  0.51721  0  4.136703  0  0  0.539447  0  4.147814  0  0  0.339948  0.50201  0  4.129017  0
C  C31  1  0.45279540  0.30824799  0.31495373  1  0  0.567511  0  3.853069  0  0  0.517246  0  4.13684  0  0  0.539481  0  4.147954  0  0  0.339936  0.502044  0  4.129156  0
N  N32  1  0.29857141  0.21574683  0.85724200  1  0  -0.403776  0  3.034142  0  0  -0.340589  0  3.323548  0  0  -0.359629  0  3.333604  0  0  -0.251683  -0.327393  0  3.316826  0
N  N33  1  0.70143016  0.71574611  0.64275762  1  0  -0.403868  0  3.034091  0  0  -0.340602  0  3.323419  0  0  -0.359642  0  3.333475  0  0  -0.251669  -0.327404  0  3.316695  0
N  N34  1  0.70142762  0.78425124  0.14275758  1  0  -0.403732  0  3.034115  0  0  -0.3406  0  3.32357  0  0  -0.359642  0  3.333624  0  0  -0.25171  -0.327405  0  3.316849  0
N  N35  1  0.29856889  0.28425474  0.35724306  1  0  -0.403871  0  3.034205  0  0  -0.340694  0  3.323614  0  0  -0.359736  0  3.333671  0  0  -0.251714  -0.327496  0  3.31689  0
N  N36  1  0.64054087  0.21736723  0.85794540  1  0  -0.353194  0  3.181534  0  0  -0.286488  0  3.497613  0  0  -0.305879  0  3.504808  0  0  -0.247698  -0.2731  0  3.492524  0
N  N37  1  0.35945914  0.71736686  0.64205415  1  0  -0.353148  0  3.18148  0  0  -0.286442  0  3.497561  0  0  -0.305835  0  3.504762  0  0  -0.247668  -0.273053  0  3.492471  0
N  N38  1  0.35945814  0.78262944  0.14205363  1  0  -0.353187  0  3.181522  0  0  -0.286485  0  3.497595  0  0  -0.305876  0  3.50479  0  0  -0.247683  -0.273096  0  3.492506  0
N  N39  1  0.64053989  0.28263399  0.35794598  1  0  -0.353185  0  3.181577  0  0  -0.286471  0  3.497642  0  0  -0.305864  0  3.504841  0  0  -0.247678  -0.273081  0  3.492551  0
N  N40  1  0.60336378  0.25619006  0.92672393  1  0  -0.060665  0  2.855174  0  0  -0.060197  0  3.118251  0  0  -0.05287  0  3.128911  0  0  -0.061832  -0.064682  0  3.110974  0
N  N41  1  0.39663619  0.75619147  0.57327668  1  0  -0.060663  0  2.855215  0  0  -0.060193  0  3.118303  0  0  -0.052864  0  3.128964  0  0  -0.061833  -0.064678  0  3.111027  0
N  N42  1  0.39663678  0.74380940  0.07327517  1  0  -0.060699  0  2.855198  0  0  -0.060247  0  3.118301  0  0  -0.05292  0  3.128964  0  0  -0.061848  -0.064732  0  3.111024  0
N  N43  1  0.60336286  0.24380798  0.42672400  1  0  -0.060649  0  2.855222  0  0  -0.06018  0  3.11829  0  0  -0.052852  0  3.128953  0  0  -0.061805  -0.064665  0  3.111013  0
N  N44  1  0.42950771  0.14370500  0.74329686  1  0  -0.680861  0  3.094565  0  0  -0.647213  0  3.328281  0  0  -0.668053  0  3.325761  0  0  -0.576705  -0.63254  0  3.329741  0
N  N45  1  0.57049082  0.64370786  0.75670049  1  0  -0.680961  0  3.094797  0  0  -0.647289  0  3.328449  0  0  -0.668128  0  3.325929  0  0  -0.576702  -0.632614  0  3.329909  0
N  N46  1  0.57049130  0.85629167  0.25670216  1  0  -0.680939  0  3.09452  0  0  -0.647274  0  3.328189  0  0  -0.668114  0  3.325669  0  0  -0.57672  -0.632598  0  3.329644  0
N  N47  1  0.42950821  0.35629438  0.24329964  1  0  -0.680996  0  3.094754  0  0  -0.647322  0  3.328425  0  0  -0.668161  0  3.325903  0  0  -0.57672  -0.632648  0  3.329884  0
N  N48  1  0.40211755  0.25329925  0.92498298  1  0  0.293238  0  3.565315  0  0  0.340636  0  3.840536  0  0  0.339117  0  3.863173  0  0  -0.002797  0.341288  0  3.825373  0
N  N49  1  0.59788243  0.75330046  0.57501763  1  0  0.293221  0  3.565318  0  0  0.340592  0  3.840533  0  0  0.339072  0  3.86317  0  0  -0.002829  0.341242  0  3.825371  0
N  N50  1  0.59788148  0.74670021  0.07501659  1  0  0.293247  0  3.565263  0  0  0.340656  0  3.840469  0  0  0.339136  0  3.863104  0  0  -0.002797  0.341306  0  3.825307  0
N  N51  1  0.40211662  0.24669900  0.42498305  1  0  0.293255  0  3.565346  0  0  0.340649  0  3.840566  0  0  0.339129  0  3.863203  0  0  -0.002841  0.3413  0  3.825404  0
Cl  Cl52  1  0.91135303  0.24964599  0.63201900  1  0  1.388449  0  6.178463  0  0  1.324367  0  6.740655  0  0  1.376106  0  6.718899  0  0  0.727555  1.28885  0  6.754223  0
Cl  Cl53  1  0.08864695  0.74964582  0.86798162  1  0  1.38852  0  6.178459  0  0  1.324452  0  6.740644  0  0  1.376203  0  6.718868  0  0  0.727552  1.288931  0  6.754215  0
Cl  Cl54  1  0.08864756  0.75035486  0.36798119  1  0  1.38852  0  6.17849  0  0  1.324436  0  6.740679  0  0  1.376181  0  6.71891  0  0  0.727572  1.288917  0  6.754247  0
Cl  Cl55  1  0.91135363  0.25035503  0.13201858  1  0  1.388478  0  6.178559  0  0  1.324387  0  6.740754  0  0  1.376141  0  6.718979  0  0  0.727579  1.288868  0  6.754321  0
O  O56  1  0.91982170  0.37843499  0.57119332  1  0  -0.519472  0  1.912949  0  0  -0.498285  0  2.173995  0  0  -0.515385  0  2.160937  0  0  -0.294043  -0.486339  0  2.182408  0
O  O57  1  0.08017807  0.87843444  0.92880662  1  0  -0.519517  0  1.913028  0  0  -0.49831  0  2.174063  0  0  -0.515401  0  2.160997  0  0  -0.294042  -0.48636  0  2.182472  0
O  O58  1  0.08017889  0.62156586  0.42880688  1  0  -0.51951  0  1.913021  0  0  -0.498324  0  2.174065  0  0  -0.515421  0  2.161003  0  0  -0.294054  -0.486375  0  2.182473  0
O  O59  1  0.91982249  0.12157058  0.07119193  1  0  -0.519519  0  1.913086  0  0  -0.498299  0  2.174081  0  0  -0.515392  0  2.161014  0  0  -0.294062  -0.486354  0  2.182498  0
O  O60  1  0.70201870  0.17155947  0.62897793  1  0  -0.543295  0  1.878836  0  0  -0.509617  0  2.115712  0  0  -0.525771  0  2.103606  0  0  -0.305353  -0.498344  0  2.123519  0
O  O61  1  0.29798138  0.67156046  0.87102112  1  0  -0.543323  0  1.878831  0  0  -0.509631  0  2.115704  0  0  -0.5258  0  2.103608  0  0  -0.305334  -0.49836  0  2.123526  0
O  O62  1  0.29798189  0.82844138  0.37102227  1  0  -0.543306  0  1.878876  0  0  -0.509619  0  2.115746  0  0  -0.525776  0  2.103643  0  0  -0.305362  -0.498347  0  2.123562  0
O  O63  1  0.70201766  0.32843899  0.12897901  1  0  -0.543292  0  1.878796  0  0  -0.509621  0  2.115685  0  0  -0.525785  0  2.103578  0  0  -0.305386  -0.49835  0  2.123506  0
O  O64  1  0.96512185  0.34692775  0.70352815  1  0  -0.589243  0  1.938181  0  0  -0.557138  0  2.230737  0  0  -0.572452  0  2.20925  0  0  -0.329142  -0.546353  0  2.245285  0
O  O65  1  0.03487641  0.84692949  0.79647174  1  0  -0.589272  0  1.938166  0  0  -0.55718  0  2.230723  0  0  -0.572496  0  2.209233  0  0  -0.329152  -0.546395  0  2.245272  0
O  O66  1  0.03487873  0.65307309  0.29647204  1  0  -0.589262  0  1.938156  0  0  -0.557157  0  2.230725  0  0  -0.572472  0  2.209234  0  0  -0.329145  -0.546371  0  2.245274  0
O  O67  1  0.96512417  0.15306858  0.20352790  1  0  -0.589196  0  1.938117  0  0  -0.557103  0  2.230704  0  0  -0.572423  0  2.209217  0  0  -0.3291  -0.546318  0  2.24525  0
O  O68  1  0.06112905  0.09835991  0.62758200  1  0  -0.556277  0  1.890569  0  0  -0.518032  0  2.145115  0  0  -0.534697  0  2.13032  0  0  -0.307127  -0.506401  0  2.154932  0
O  O69  1  0.93887116  0.59835888  0.87241823  1  0  -0.556205  0  1.890468  0  0  -0.518033  0  2.145067  0  0  -0.534707  0  2.130279  0  0  -0.307108  -0.5064  0  2.154881  0
O  O70  1  0.93886998  0.90164094  0.37241813  1  0  -0.556292  0  1.89052  0  0  -0.518055  0  2.145073  0  0  -0.534722  0  2.130275  0  0  -0.307119  -0.506428  0  2.1549  0
O  O71  1  0.06112944  0.40164197  0.12758252  1  0  -0.556305  0  1.890601  0  0  -0.518062  0  2.145145  0  0  -0.534737  0  2.130358  0  0  -0.307123  -0.50643  0  2.15496  0
