# generated using pymatgen
data_AgH13C6N2O5
_symmetry_space_group_name_H-M   'P 1'
_cell_length_a   10.40592521
_cell_length_b   10.91813262
_cell_length_c   10.91814514
_cell_angle_alpha   68.59856114
_cell_angle_beta   66.36664684
_cell_angle_gamma   66.36676925
_symmetry_Int_Tables_number   1
_chemical_formula_structural   AgH13C6N2O5
_chemical_formula_sum   'Ag4 H52 C24 N8 O20'
_cell_volume   1009.81711775
_cell_formula_units_Z   4
loop_
 _symmetry_equiv_pos_site_id
 _symmetry_equiv_pos_as_xyz
  1  'x, y, z'
loop_
 _atom_site_type_symbol
 _atom_site_label
 _atom_site_symmetry_multiplicity
 _atom_site_fract_x
 _atom_site_fract_y
 _atom_site_fract_z
 _atom_site_occupancy
 _atom_site_hle17_bader_spin_density
 _atom_site_hle17_ddec_charge
 _atom_site_hle17_ddec_spin_density
 _atom_site_hle17_ddec_sum_bond_order
 _atom_site_hle17_magmom
 _atom_site_hse06_10hf_bader_spin_density
 _atom_site_hse06_10hf_ddec_charge
 _atom_site_hse06_10hf_ddec_spin_density
 _atom_site_hse06_10hf_ddec_sum_bond_order
 _atom_site_hse06_10hf_magmom
 _atom_site_hse06_bader_spin_density
 _atom_site_hse06_ddec_charge
 _atom_site_hse06_ddec_spin_density
 _atom_site_hse06_ddec_sum_bond_order
 _atom_site_hse06_magmom
 _atom_site_pbe_bader_spin_density
 _atom_site_pbe_cm5_charge
 _atom_site_pbe_ddec_charge
 _atom_site_pbe_ddec_spin_density
 _atom_site_pbe_ddec_sum_bond_order
 _atom_site_pbe_magmom
Ag  Ag0  1  0.17553083  0.01437711  0.89512257  1  0  0.577531  0  1.396449  0  0  0.447105  0  1.872158  0  0  0.487687  0  1.801512  0  0  0.394173  0.418311  0  1.921875  0
Ag  Ag1  1  0.32446938  0.10487768  0.98562297  1  0  0.577515  0  1.396474  0  0  0.44708  0  1.872186  0  0  0.487662  0  1.801536  0  0  0.394166  0.418287  0  1.9219  0
Ag  Ag2  1  0.82446844  0.98562291  0.10487958  1  0  0.577523  0  1.396471  0  0  0.447093  0  1.872171  0  0  0.48767  0  1.801526  0  0  0.394167  0.418296  0  1.921887  0
Ag  Ag3  1  0.67553093  0.89512235  0.01437695  1  0  0.577532  0  1.396469  0  0  0.447102  0  1.872176  0  0  0.487682  0  1.801529  0  0  0.394176  0.418308  0  1.92189  0
H  H4  1  0.73576073  0.77434960  0.79439701  1  0  0.117093  0  0.971637  0  0  0.127006  0  1.040669  0  0  0.129997  0  1.038725  0  0  0.099606  0.124509  0  1.042674  0
H  H5  1  0.76423956  0.20560383  0.22564853  1  0  0.117081  0  0.971615  0  0  0.12699  0  1.040679  0  0  0.129979  0  1.038737  0  0  0.099593  0.124496  0  1.042682  0
H  H6  1  0.26423782  0.22564939  0.20560306  1  0  0.117083  0  0.971634  0  0  0.127004  0  1.040656  0  0  0.129996  0  1.038712  0  0  0.0996  0.124507  0  1.042661  0
H  H7  1  0.23576009  0.79439826  0.77435089  1  0  0.117093  0  0.971659  0  0  0.12702  0  1.04067  0  0  0.13001  0  1.038726  0  0  0.099604  0.124523  0  1.042673  0
H  H8  1  0.67005056  0.77758562  0.66580983  1  0  0.11593  0  0.959223  0  0  0.126127  0  1.026608  0  0  0.129305  0  1.024383  0  0  0.101086  0.123733  0  1.028358  0
H  H9  1  0.82994934  0.33419156  0.22241280  1  0  0.115897  0  0.959252  0  0  0.126124  0  1.026614  0  0  0.1293  0  1.024394  0  0  0.10109  0.123731  0  1.028366  0
H  H10  1  0.32994766  0.22241440  0.33418999  1  0  0.115975  0  0.959232  0  0  0.126139  0  1.026657  0  0  0.12932  0  1.024426  0  0  0.101089  0.123744  0  1.028408  0
H  H11  1  0.17004926  0.66581052  0.77758794  1  0  0.115946  0  0.959216  0  0  0.126143  0  1.026597  0  0  0.129319  0  1.024379  0  0  0.101078  0.123748  0  1.028351  0
H  H12  1  0.54552706  0.59898079  0.83314733  1  0  0.091936  0  0.946944  0  0  0.102602  0  1.013121  0  0  0.104221  0  1.01226  0  0  0.113892  0.101378  0  1.013872  0
H  H13  1  0.95447410  0.16685323  0.40101591  1  0  0.091939  0  0.946929  0  0  0.102602  0  1.01312  0  0  0.104224  0  1.012259  0  0  0.113886  0.101378  0  1.013873  0
H  H14  1  0.45447254  0.40101820  0.16685233  1  0  0.091933  0  0.946918  0  0  0.102594  0  1.013118  0  0  0.104214  0  1.012261  0  0  0.11388  0.10137  0  1.013873  0
H  H15  1  0.04552726  0.83314681  0.59898268  1  0  0.091922  0  0.946929  0  0  0.102581  0  1.01313  0  0  0.104202  0  1.012271  0  0  0.113874  0.101359  0  1.013886  0
H  H16  1  0.60935165  0.59648519  0.96291483  1  0  0.077113  0  0.952027  0  0  0.088499  0  1.018153  0  0  0.088399  0  1.019885  0  0  0.112186  0.088457  0  1.017038  0
H  H17  1  0.89064876  0.03708646  0.40351110  1  0  0.077096  0  0.952071  0  0  0.088496  0  1.018181  0  0  0.088398  0  1.019913  0  0  0.112195  0.088456  0  1.017065  0
H  H18  1  0.39064690  0.40351380  0.03708524  1  0  0.077128  0  0.95207  0  0  0.088526  0  1.018186  0  0  0.088428  0  1.019918  0  0  0.112198  0.088485  0  1.017073  0
H  H19  1  0.10935259  0.96291357  0.59648567  1  0  0.077129  0  0.952082  0  0  0.088528  0  1.01819  0  0  0.08843  0  1.019921  0  0  0.112199  0.088489  0  1.017077  0
H  H20  1  0.83799495  0.27988775  0.86827934  1  0  0.134189  0  0.952035  0  0  0.148239  0  1.016968  0  0  0.150367  0  1.015305  0  0  0.112591  0.146575  0  1.018268  0
H  H21  1  0.66201000  0.13171989  0.72011036  1  0  0.13421  0  0.952051  0  0  0.14821  0  1.01703  0  0  0.150334  0  1.015376  0  0  0.112582  0.146546  0  1.018329  0
H  H22  1  0.16200570  0.72011125  0.13172083  1  0  0.134203  0  0.952067  0  0  0.148234  0  1.016999  0  0  0.150362  0  1.015337  0  0  0.112588  0.14657  0  1.0183  0
H  H23  1  0.33799484  0.86827913  0.27988910  1  0  0.134206  0  0.95205  0  0  0.148227  0  1.017005  0  0  0.150352  0  1.015351  0  0  0.112602  0.146563  0  1.018306  0
H  H24  1  0.64711316  0.35840993  0.87719256  1  0  0.121881  0  0.956581  0  0  0.133765  0  1.026191  0  0  0.135847  0  1.024763  0  0  0.109195  0.131993  0  1.02755  0
H  H25  1  0.85289020  0.12280947  0.64158558  1  0  0.121911  0  0.956529  0  0  0.133794  0  1.026121  0  0  0.135877  0  1.024691  0  0  0.109219  0.132022  0  1.027481  0
H  H26  1  0.35288644  0.64158906  0.12280710  1  0  0.121894  0  0.956594  0  0  0.133772  0  1.026193  0  0  0.135854  0  1.024765  0  0  0.109192  0.132  0  1.027552  0
H  H27  1  0.14711292  0.87719161  0.35841195  1  0  0.121888  0  0.956587  0  0  0.133772  0  1.026195  0  0  0.135855  0  1.024766  0  0  0.109195  0.131999  0  1.027556  0
H  H28  1  0.71332583  0.36184605  0.00478251  1  0  0.126526  0  0.931671  0  0  0.141407  0  0.995516  0  0  0.142877  0  0.995471  0  0  0.112224  0.140294  0  0.995594  0
H  H29  1  0.78667849  0.99521745  0.63815090  1  0  0.126518  0  0.931657  0  0  0.141416  0  0.995456  0  0  0.142887  0  0.995408  0  0  0.112233  0.140303  0  0.995536  0
H  H30  1  0.28667377  0.63815294  0.99521715  1  0  0.126528  0  0.931668  0  0  0.141395  0  0.99551  0  0  0.142866  0  0.995464  0  0  0.112215  0.140281  0  0.995589  0
H  H31  1  0.21332635  0.00478157  0.36184764  1  0  0.126545  0  0.931657  0  0  0.141417  0  0.995508  0  0  0.142889  0  0.99546  0  0  0.112227  0.140304  0  0.995587  0
H  H32  1  0.83311627  0.59685866  0.59641830  1  0  0.123397  0  0.983206  0  0  0.135153  0  1.048792  0  0  0.137184  0  1.048139  0  0  0.108256  0.133556  0  1.049404  0
H  H33  1  0.66688343  0.40358199  0.40313979  1  0  0.123369  0  0.983193  0  0  0.135116  0  1.04879  0  0  0.137146  0  1.048137  0  0  0.10825  0.13352  0  1.049403  0
H  H34  1  0.16688438  0.40314034  0.40358187  1  0  0.123387  0  0.983205  0  0  0.135141  0  1.048794  0  0  0.137173  0  1.048141  0  0  0.108248  0.133544  0  1.049409  0
H  H35  1  0.33311512  0.59641699  0.59686028  1  0  0.123364  0  0.983203  0  0  0.13512  0  1.048787  0  0  0.137149  0  1.048137  0  0  0.108255  0.133523  0  1.049404  0
H  H36  1  0.70225950  0.50385498  0.64917641  1  0  0.12121  0  0.941  0  0  0.140455  0  0.997077  0  0  0.141901  0  0.996771  0  0  0.113532  0.139216  0  0.997581  0
H  H37  1  0.79774028  0.35082615  0.49614177  1  0  0.121191  0  0.940949  0  0  0.140432  0  0.997047  0  0  0.141882  0  0.996732  0  0  0.113516  0.139194  0  0.997556  0
H  H38  1  0.29774220  0.49614402  0.35082427  1  0  0.121205  0  0.940943  0  0  0.140462  0  0.997016  0  0  0.141908  0  0.996709  0  0  0.113541  0.139225  0  0.997524  0
H  H39  1  0.20225866  0.64917490  0.50385739  1  0  0.121185  0  0.940967  0  0  0.140436  0  0.997049  0  0  0.141883  0  0.996741  0  0  0.113522  0.139199  0  0.997557  0
H  H40  1  0.89191810  0.41136575  0.63655767  1  0  0.119016  0  0.955896  0  0  0.132827  0  1.02061  0  0  0.134251  0  1.02061  0  0  0.109425  0.131674  0  1.020712  0
H  H41  1  0.60808179  0.36344297  0.58863235  1  0  0.118989  0  0.955909  0  0  0.132806  0  1.020613  0  0  0.134228  0  1.020615  0  0  0.109426  0.131654  0  1.020718  0
H  H42  1  0.10808184  0.58863221  0.36344315  1  0  0.118998  0  0.955931  0  0  0.132822  0  1.020629  0  0  0.134246  0  1.020631  0  0  0.109418  0.131669  0  1.020735  0
H  H43  1  0.39191748  0.63655706  0.41136798  1  0  0.118999  0  0.955905  0  0  0.132812  0  1.020614  0  0  0.134236  0  1.020614  0  0  0.109425  0.13166  0  1.020717  0
H  H44  1  0.87277614  0.50977789  0.93653352  1  0  0.129481  0  0.925005  0  0  0.148179  0  0.98105  0  0  0.149313  0  0.981354  0  0  0.115643  0.147149  0  0.981219  0
H  H45  1  0.62722392  0.06346630  0.49022325  1  0  0.12951  0  0.924959  0  0  0.148181  0  0.981045  0  0  0.149315  0  0.981349  0  0  0.115645  0.14715  0  0.981213  0
H  H46  1  0.12722313  0.49022213  0.06346680  1  0  0.129487  0  0.924988  0  0  0.148194  0  0.981039  0  0  0.149328  0  0.981343  0  0  0.115651  0.147163  0  0.981211  0
H  H47  1  0.37277673  0.93653270  0.50977783  1  0  0.129489  0  0.925  0  0  0.148191  0  0.98104  0  0  0.149326  0  0.981344  0  0  0.115654  0.14716  0  0.981211  0
H  H48  1  0.92923133  0.59853068  0.75906310  1  0  0.129656  0  0.928712  0  0  0.148775  0  0.984205  0  0  0.150237  0  0.983903  0  0  0.117162  0.147557  0  0.984726  0
H  H49  1  0.57076896  0.24093701  0.40147032  1  0  0.129653  0  0.928721  0  0  0.148773  0  0.984218  0  0  0.150234  0  0.983916  0  0  0.117167  0.147554  0  0.984737  0
H  H50  1  0.07076761  0.40147037  0.24093697  1  0  0.129645  0  0.928658  0  0  0.148775  0  0.984159  0  0  0.150237  0  0.983856  0  0  0.11716  0.147558  0  0.984681  0
H  H51  1  0.42923169  0.75906199  0.59853077  1  0  0.129706  0  0.928638  0  0  0.148805  0  0.984157  0  0  0.150268  0  0.983855  0  0  0.117162  0.147587  0  0.984679  0
H  H52  1  0.99253670  0.41327645  0.80919827  1  0  0.128642  0  0.914942  0  0  0.148079  0  0.970707  0  0  0.149166  0  0.970559  0  0  0.118503  0.147092  0  0.971114  0
H  H53  1  0.50746556  0.19080129  0.58672297  1  0  0.128645  0  0.914942  0  0  0.148089  0  0.970699  0  0  0.149175  0  0.970551  0  0  0.11851  0.147099  0  0.971107  0
H  H54  1  0.00746257  0.58672358  0.19080206  1  0  0.128622  0  0.914991  0  0  0.148082  0  0.970739  0  0  0.149171  0  0.97059  0  0  0.118493  0.147094  0  0.971147  0
H  H55  1  0.49253614  0.80919772  0.41327770  1  0  0.128628  0  0.914976  0  0  0.148073  0  0.970732  0  0  0.149159  0  0.970583  0  0  0.118504  0.147086  0  0.971141  0
C  C56  1  0.50322666  0.86626747  0.82822157  1  0  0.702335  0  3.841944  0  0  0.656984  0  4.121479  0  0  0.691803  0  4.119393  0  0  0.208139  0.633033  0  4.122136  0
C  C57  1  0.99677480  0.17178109  0.13372956  1  0  0.702456  0  3.841869  0  0  0.657045  0  4.121483  0  0  0.691865  0  4.119402  0  0  0.208201  0.633098  0  4.12214  0
C  C58  1  0.49677295  0.13373152  0.17177901  1  0  0.702494  0  3.84173  0  0  0.657103  0  4.121313  0  0  0.691925  0  4.119228  0  0  0.208201  0.633152  0  4.121971  0
C  C59  1  0.00322590  0.82822100  0.86626946  1  0  0.702443  0  3.84181  0  0  0.657046  0  4.121407  0  0  0.691866  0  4.119321  0  0  0.208173  0.633094  0  4.122069  0
C  C60  1  0.64722886  0.75844606  0.77766925  1  0  -0.299168  0  3.656146  0  0  -0.337471  0  3.89808  0  0  -0.345123  0  3.906407  0  0  -0.17409  -0.33182  0  3.892358  0
C  C61  1  0.85277175  0.22233301  0.24155121  1  0  -0.299133  0  3.65604  0  0  -0.337481  0  3.898038  0  0  -0.345135  0  3.906369  0  0  -0.174095  -0.331842  0  3.89233  0
C  C62  1  0.35276970  0.24155292  0.22233172  1  0  -0.29925  0  3.656132  0  0  -0.33751  0  3.89807  0  0  -0.345167  0  3.906398  0  0  -0.174108  -0.331863  0  3.892357  0
C  C63  1  0.14722757  0.77767011  0.75844796  1  0  -0.29923  0  3.656122  0  0  -0.337542  0  3.898123  0  0  -0.345195  0  3.906449  0  0  -0.174079  -0.331892  0  3.892413  0
C  C64  1  0.63342709  0.61434284  0.85165838  1  0  -0.012421  0  3.520981  0  0  -0.063041  0  3.759761  0  0  -0.06017  0  3.772639  0  0  -0.062694  -0.064812  0  3.750782  0
C  C65  1  0.86657389  0.14834239  0.38565582  1  0  -0.012431  0  3.520951  0  0  -0.063039  0  3.759698  0  0  -0.060171  0  3.772577  0  0  -0.062704  -0.064807  0  3.75072  0
C  C66  1  0.36657113  0.38565717  0.14834235  1  0  -0.01241  0  3.520988  0  0  -0.063079  0  3.759837  0  0  -0.060212  0  3.772721  0  0  -0.062683  -0.064839  0  3.750824  0
C  C67  1  0.13342852  0.85165765  0.61434329  1  0  -0.012405  0  3.521001  0  0  -0.063072  0  3.759861  0  0  -0.060208  0  3.772748  0  0  -0.062705  -0.06483  0  3.750835  0
C  C68  1  0.73954922  0.36459566  0.89649556  1  0  -0.221312  0  3.499974  0  0  -0.312886  0  3.737768  0  0  -0.311807  0  3.745221  0  0  -0.140455  -0.313166  0  3.732773  0
C  C69  1  0.76045473  0.10350536  0.63540116  1  0  -0.221338  0  3.499984  0  0  -0.312861  0  3.737733  0  0  -0.311782  0  3.745182  0  0  -0.140471  -0.313141  0  3.73274  0
C  C70  1  0.26045038  0.63540333  0.10350501  1  0  -0.22137  0  3.500128  0  0  -0.312881  0  3.737858  0  0  -0.311801  0  3.745309  0  0  -0.140444  -0.313162  0  3.732863  0
C  C71  1  0.23954873  0.89649468  0.36459754  1  0  -0.22137  0  3.500075  0  0  -0.31291  0  3.737861  0  0  -0.311831  0  3.745313  0  0  -0.140492  -0.313192  0  3.732868  0
C  C72  1  0.80206005  0.50347524  0.66091081  1  0  -0.217414  0  3.501167  0  0  -0.301677  0  3.726453  0  0  -0.301327  0  3.735032  0  0  -0.140033  -0.301439  0  3.720644  0
C  C73  1  0.69794021  0.33909066  0.49652326  1  0  -0.217331  0  3.50108  0  0  -0.301586  0  3.72635  0  0  -0.301235  0  3.734929  0  0  -0.140008  -0.301343  0  3.720521  0
C  C74  1  0.19793923  0.49652479  0.33909134  1  0  -0.217385  0  3.501131  0  0  -0.301667  0  3.72641  0  0  -0.301315  0  3.734982  0  0  -0.140022  -0.301434  0  3.720599  0
C  C75  1  0.30206010  0.66090936  0.50347666  1  0  -0.217342  0  3.501135  0  0  -0.3016  0  3.726395  0  0  -0.301251  0  3.734974  0  0  -0.140033  -0.301358  0  3.720566  0
C  C76  1  0.90097658  0.50568375  0.82969417  1  0  -0.198976  0  3.473924  0  0  -0.286499  0  3.699178  0  0  -0.285308  0  3.707993  0  0  -0.128719  -0.287181  0  3.69357  0
C  C77  1  0.59902408  0.17030618  0.49431623  1  0  -0.198985  0  3.473875  0  0  -0.286506  0  3.69915  0  0  -0.285315  0  3.707965  0  0  -0.128732  -0.287194  0  3.693553  0
C  C78  1  0.09902168  0.49431936  0.17030540  1  0  -0.198935  0  3.473899  0  0  -0.28651  0  3.699181  0  0  -0.285325  0  3.708008  0  0  -0.128713  -0.287185  0  3.693555  0
C  C79  1  0.40097763  0.82969282  0.50568445  1  0  -0.198992  0  3.473884  0  0  -0.286516  0  3.699139  0  0  -0.285323  0  3.707953  0  0  -0.128738  -0.287202  0  3.693533  0
N  N80  1  0.11702137  0.18277999  0.60075148  1  0  0.67635  0  4.17339  0  0  0.717549  0  4.458861  0  0  0.74602  0  4.464185  0  0  0.085341  0.698482  0  4.454687  0
N  N81  1  0.38297880  0.39924912  0.81721962  1  0  0.676311  0  4.173477  0  0  0.717507  0  4.458959  0  0  0.745979  0  4.464283  0  0  0.085304  0.69844  0  4.454783  0
N  N82  1  0.88297895  0.81722004  0.39924935  1  0  0.676354  0  4.173374  0  0  0.717565  0  4.45883  0  0  0.746038  0  4.464152  0  0  0.085338  0.6985  0  4.45465  0
N  N83  1  0.61702046  0.60075090  0.18277979  1  0  0.676326  0  4.173517  0  0  0.717524  0  4.458965  0  0  0.745997  0  4.464288  0  0  0.085317  0.698459  0  4.454783  0
N  N84  1  0.77031457  0.49819573  0.80891739  1  0  0.164538  0  3.370174  0  0  0.265636  0  3.591012  0  0  0.257027  0  3.614037  0  0  -0.228784  0.271326  0  3.575217  0
N  N85  1  0.72968605  0.19108392  0.50180330  1  0  0.164499  0  3.370104  0  0  0.265592  0  3.590931  0  0  0.256983  0  3.613953  0  0  -0.228791  0.271283  0  3.575137  0
N  N86  1  0.22968471  0.50180430  0.19108477  1  0  0.164537  0  3.370204  0  0  0.265638  0  3.591067  0  0  0.257027  0  3.614091  0  0  -0.228789  0.27133  0  3.575274  0
N  N87  1  0.27031461  0.80891508  0.49819778  1  0  0.164513  0  3.370225  0  0  0.265628  0  3.591035  0  0  0.257021  0  3.614056  0  0  -0.228732  0.27132  0  3.575244  0
O  O88  1  0.03608388  0.14383572  0.72245276  1  0  -0.481796  0  1.813362  0  0  -0.457851  0  2.047572  0  0  -0.476601  0  2.037606  0  0  -0.20108  -0.444375  0  2.05445  0
O  O89  1  0.46391675  0.27754759  0.85616397  1  0  -0.4818  0  1.813375  0  0  -0.457849  0  2.047589  0  0  -0.4766  0  2.037624  0  0  -0.201071  -0.444371  0  2.054466  0
O  O90  1  0.96391644  0.85616431  0.27754716  1  0  -0.481794  0  1.813353  0  0  -0.457854  0  2.047557  0  0  -0.4766  0  2.037591  0  0  -0.20108  -0.444375  0  2.054435  0
O  O91  1  0.53608461  0.72245244  0.14383463  1  0  -0.481777  0  1.813394  0  0  -0.457834  0  2.047604  0  0  -0.47658  0  2.037639  0  0  -0.201059  -0.444355  0  2.054481  0
O  O92  1  0.05811042  0.24357761  0.50344696  1  0  -0.499708  0  1.758992  0  0  -0.492654  0  1.975179  0  0  -0.506907  0  1.968402  0  0  -0.208356  -0.482727  0  1.979983  0
O  O93  1  0.44189072  0.49655228  0.75642177  1  0  -0.49965  0  1.759043  0  0  -0.492616  0  1.975244  0  0  -0.506851  0  1.968443  0  0  -0.208328  -0.482688  0  1.980047  0
O  O94  1  0.94188989  0.75642242  0.49655205  1  0  -0.499706  0  1.759016  0  0  -0.492663  0  1.975209  0  0  -0.506912  0  1.968421  0  0  -0.208353  -0.482739  0  1.980011  0
O  O95  1  0.55810992  0.50344671  0.24357748  1  0  -0.499666  0  1.759062  0  0  -0.492616  0  1.975253  0  0  -0.50686  0  1.968462  0  0  -0.208326  -0.48269  0  1.980053  0
O  O96  1  0.25237663  0.16056698  0.57723368  1  0  -0.466301  0  1.721685  0  0  -0.461403  0  1.925289  0  0  -0.475352  0  1.91794  0  0  -0.194687  -0.451654  0  1.930594  0
O  O97  1  0.24762337  0.42276664  0.83943279  1  0  -0.466305  0  1.721697  0  0  -0.461396  0  1.925294  0  0  -0.475352  0  1.917951  0  0  -0.194689  -0.451653  0  1.930606  0
O  O98  1  0.74762297  0.83943201  0.42276690  1  0  -0.466303  0  1.721649  0  0  -0.461405  0  1.925245  0  0  -0.47536  0  1.917899  0  0  -0.194688  -0.451659  0  1.93055  0
O  O99  1  0.75237729  0.57723236  0.16056738  1  0  -0.466322  0  1.721664  0  0  -0.461421  0  1.925268  0  0  -0.475379  0  1.917924  0  0  -0.194716  -0.451683  0  1.930581  0
O  O100  1  0.38575127  0.85202727  0.83345400  1  0  -0.616077  0  2.069885  0  0  -0.536946  0  2.33092  0  0  -0.569686  0  2.321086  0  0  -0.321721  -0.513805  0  2.337147  0
O  O101  1  0.11424735  0.16654764  0.14797051  1  0  -0.616143  0  2.069929  0  0  -0.536981  0  2.330996  0  0  -0.569709  0  2.321133  0  0  -0.321762  -0.513842  0  2.33722  0
O  O102  1  0.61424624  0.14797171  0.16654647  1  0  -0.616144  0  2.069876  0  0  -0.536974  0  2.330917  0  0  -0.569706  0  2.321064  0  0  -0.32176  -0.513833  0  2.337143  0
O  O103  1  0.88575125  0.83345445  0.85202841  1  0  -0.616132  0  2.069792  0  0  -0.536963  0  2.330838  0  0  -0.569698  0  2.320994  0  0  -0.321749  -0.513823  0  2.337064  0
O  O104  1  0.98745489  0.14113881  0.03618232  1  0  -0.643678  0  2.145363  0  0  -0.557942  0  2.425804  0  0  -0.593312  0  2.413989  0  0  -0.330337  -0.533339  0  2.433511  0
O  O105  1  0.51254458  0.96381549  0.85886286  1  0  -0.643648  0  2.145447  0  0  -0.557952  0  2.425883  0  0  -0.59332  0  2.414066  0  0  -0.330331  -0.53335  0  2.433591  0
O  O106  1  0.01254404  0.85886225  0.96381685  1  0  -0.643673  0  2.145438  0  0  -0.557963  0  2.425896  0  0  -0.593331  0  2.414079  0  0  -0.33034  -0.533361  0  2.433607  0
O  O107  1  0.48745293  0.03618349  0.14113853  1  0  -0.643703  0  2.145292  0  0  -0.557989  0  2.42574  0  0  -0.593357  0  2.413924  0  0  -0.330342  -0.533386  0  2.433449  0
