# generated using pymatgen
data_MnH8(C7N4)2
_symmetry_space_group_name_H-M   'P 1'
_cell_length_a   6.47018085
_cell_length_b   9.21815664
_cell_length_c   12.70604146
_cell_angle_alpha   89.38792314
_cell_angle_beta   87.96010793
_cell_angle_gamma   69.49007777
_symmetry_Int_Tables_number   1
_chemical_formula_structural   MnH8(C7N4)2
_chemical_formula_sum   'Mn2 H16 C28 N16'
_cell_volume   709.33954383
_cell_formula_units_Z   2
loop_
 _symmetry_equiv_pos_site_id
 _symmetry_equiv_pos_as_xyz
  1  'x, y, z'
loop_
 _atom_site_type_symbol
 _atom_site_label
 _atom_site_symmetry_multiplicity
 _atom_site_fract_x
 _atom_site_fract_y
 _atom_site_fract_z
 _atom_site_occupancy
 _atom_site_hle17_ddec_charge
 _atom_site_hle17_ddec_spin_density
 _atom_site_hle17_ddec_sum_bond_order
 _atom_site_hle17_magmom
 _atom_site_hse06_10hf_ddec_charge
 _atom_site_hse06_10hf_ddec_spin_density
 _atom_site_hse06_10hf_ddec_sum_bond_order
 _atom_site_hse06_10hf_magmom
 _atom_site_hse06_ddec_charge
 _atom_site_hse06_ddec_spin_density
 _atom_site_hse06_ddec_sum_bond_order
 _atom_site_hse06_magmom
 _atom_site_pbe_cm5_charge
 _atom_site_pbe_ddec_charge
 _atom_site_pbe_ddec_spin_density
 _atom_site_pbe_ddec_sum_bond_order
 _atom_site_pbe_magmom
Mn  Mn0  1  0.60811093  0.77945165  0.74928301  1  0.82264  1.076717  3.060145  1.022  0.748534  1.062229  3.631119  1.014  0.786192  1.048068  3.56672  0.997  0.767441  0.72133  1.04573  3.671908  0.996
Mn  Mn1  1  0.39180006  0.21701007  0.24999638  1  1.095267  -4.803193  2.07549  -4.634  0.934646  -4.680472  2.620353  -4.458  0.984937  -4.739735  2.551154  -4.539  0.668278  0.899288  -4.607568  2.6709  -4.368
H  H2  1  0.03012457  0.18730166  0.79990121  1  0.108987  -9.9e-05  0.966349  0.0  0.11836  -4.6e-05  1.028004  0.0  0.121168  -3.9e-05  1.027311  0.0  0.10922  0.116194  -5.6e-05  1.028543  0.0
H  H3  1  0.21567675  0.81745513  0.29762805  1  0.106768  -0.000163  0.968507  0.0  0.117772  -0.00029  1.027831  0.0  0.120166  -0.000171  1.027398  0.0  0.108432  0.116014  -0.000447  1.028427  0.0
H  H4  1  0.96691737  0.81714849  0.20246496  1  0.107223  -0.000137  0.967546  0.0  0.118186  -0.000264  1.027169  0.0  0.120529  -0.000155  1.026806  0.0  0.108697  0.116368  -0.000448  1.027654  0.0
H  H5  1  0.78282550  0.18824194  0.70004385  1  0.109501  -8.3e-05  0.964665  0.0  0.11837  -6.4e-05  1.026873  0.0  0.121162  -8.6e-05  1.026291  0.0  0.108904  0.115956  -5.7e-05  1.02806  0.0
H  H6  1  0.32654096  0.20655393  0.90926790  1  0.090092  9.2e-05  0.958006  0.0  0.102214  -0.000199  1.015872  0.0  0.104163  -0.000115  1.014386  0.0  0.106269  0.100219  -0.00025  1.017956  0.0
H  H7  1  0.53194936  0.80090493  0.40487929  1  0.086303  0.000128  0.96374  0.0  0.099712  6.5e-05  1.020437  0.0  0.101026  9.7e-05  1.020182  0.0  0.106357  0.098431  2.6e-05  1.021345  0.0
H  H8  1  0.66712913  0.79966905  0.09561116  1  0.08574  0.000109  0.965644  0.0  0.099197  5.9e-05  1.022041  0.0  0.100538  9e-05  1.021788  0.0  0.106379  0.098114  2.5e-05  1.02253  0.0
H  H9  1  0.46713901  0.20711749  0.59063735  1  0.091204  0.000122  0.957448  0.0  0.102784  -0.000283  1.01612  0.0  0.104918  -0.000158  1.014093  0.0  0.106577  0.100866  -0.000284  1.018018  0.0
H  H10  1  0.34087182  0.47098655  0.94897406  1  0.106406  1.1e-05  0.939254  0.0  0.117339  9e-05  0.997242  0.0  0.120113  0.000102  0.996694  0.0  0.108929  0.115046  6.9e-05  0.998342  0.0
H  H11  1  0.81405316  0.53766695  0.44412567  1  0.104669  -0.000204  0.941694  0.0  0.114841  -0.000303  1.001521  0.0  0.117717  -0.00021  1.001078  0.0  0.107642  0.113033  -0.000394  1.001484  0.0
H  H12  1  0.64844166  0.53611070  0.05639781  1  0.104145  -0.000176  0.941268  0.0  0.114613  -0.000273  1.0007  0.0  0.117491  -0.000185  1.000308  0.0  0.107772  0.112716  -0.000394  1.001018  0.0
H  H13  1  0.18911349  0.47186837  0.55158540  1  0.107397  -6e-05  0.939556  0.0  0.118578  6.7e-05  0.997129  0.0  0.121436  8.5e-05  0.99649  0.0  0.109215  0.11626  0.000104  0.99801  0.0
H  H14  1  0.04814469  0.70367570  0.87663344  1  0.083945  -5.7e-05  0.949847  0.0  0.092222  -6.5e-05  1.013394  0.0  0.093539  -4.1e-05  1.012443  0.0  0.120631  0.091177  -9.5e-05  1.014368  0.0
H  H15  1  0.75160316  0.30333594  0.37454012  1  0.078105  -6.4e-05  0.957728  0.0  0.08556  -0.000553  1.023364  -0.001  0.087154  -0.000285  1.022642  0.0  0.115569  0.084117  -0.000784  1.024444  -0.001
H  H16  1  0.94562048  0.30229431  0.12550795  1  0.078274  -5.6e-05  0.958124  0.0  0.085618  -0.000523  1.02423  -0.001  0.08724  -0.00026  1.02343  0.0  0.115462  0.08473  -0.000763  1.024268  -0.001
H  H17  1  0.24944424  0.70418640  0.62411112  1  0.084284  3.2e-05  0.950931  0.0  0.092407  -6e-05  1.01463  0.0  0.093823  -3.6e-05  1.013449  0.0  0.120429  0.090776  -8e-05  1.016556  0.0
C  C18  1  0.87563304  0.43556539  0.78177022  1  0.166768  -0.004891  3.747694  -0.003  0.162089  -0.007097  3.992598  -0.005  0.171277  -0.003837  4.008246  -0.002  0.119003  0.155219  -0.009284  3.983108  -0.006
C  C19  1  0.31008365  0.56817051  0.28151222  1  0.176365  -0.001168  3.748455  -0.001  0.172618  -0.00385  3.988562  -0.003  0.17903  -0.003048  4.008106  -0.003  0.12531  0.168254  -0.004802  3.975032  -0.004
C  C20  1  0.12203469  0.56792493  0.21840498  1  0.177415  -0.001253  3.747344  -0.001  0.173454  -0.004008  3.988079  -0.003  0.179996  -0.00316  4.007523  -0.003  0.12552  0.16912  -0.004773  3.974497  -0.004
C  C21  1  0.68982861  0.43626420  0.71852635  1  0.165224  -0.007589  3.739169  -0.006  0.159952  -0.008283  3.984427  -0.006  0.169696  -0.004726  3.999784  -0.003  0.118379  0.152291  -0.010515  3.975443  -0.007
C  C22  1  0.03692538  0.30040195  0.81777149  1  -0.132245  0.001257  3.712854  0.001  -0.154855  0.000165  3.96679  0.001  -0.161332  0.000466  3.985554  0.001  -0.077983  -0.150747  -6.4e-05  3.955287  0.001
C  C23  1  0.33478447  0.70459736  0.31614652  1  -0.131981  0.000178  3.711028  0.0  -0.15506  7.7e-05  3.964533  0.0  -0.160923  0.000644  3.985621  0.001  -0.078197  -0.15106  -0.000539  3.949852  0.0
C  C24  1  0.96081258  0.70408100  0.18393373  1  -0.133697  4.6e-05  3.710922  0.0  -0.156863  -1.9e-05  3.964898  0.0  -0.162777  0.000514  3.986062  0.001  -0.078953  -0.152814  -0.000538  3.95015  0.0
C  C25  1  0.66296665  0.30129054  0.68224347  1  -0.13253  0.003965  3.713643  0.004  -0.154671  0.000928  3.968795  0.001  -0.161263  0.001175  3.986967  0.001  -0.078503  -0.150709  0.00049  3.957871  0.001
C  C26  1  0.20453317  0.31137123  0.87900267  1  -0.003961  -0.004695  3.723767  -0.004  -0.02469  -0.005567  3.978508  -0.004  -0.019133  -0.002698  3.994727  -0.002  -0.070249  -0.030401  -0.00914  3.969937  -0.007
C  C27  1  0.51450714  0.69507516  0.37627886  1  -0.00439  -0.001411  3.729756  -0.001  -0.023075  -0.003331  3.981606  -0.003  -0.020589  -0.002871  4.00193  -0.002  -0.067392  -0.023978  -0.003656  3.967348  -0.003
C  C28  1  0.79050785  0.69407677  0.12402713  1  -0.003045  -0.001064  3.72967  -0.001  -0.021435  -0.002963  3.981118  -0.002  -0.019014  -0.002567  4.001347  -0.002  -0.067236  -0.02271  -0.003623  3.967021  -0.003
C  C29  1  0.48453054  0.31197103  0.62104199  1  -0.004165  -0.00821  3.724539  -0.007  -0.026223  -0.007983  3.980963  -0.006  -0.019359  -0.00431  3.995887  -0.003  -0.071104  -0.031092  -0.010788  3.971875  -0.008
C  C30  1  0.21249246  0.45730153  0.90118423  1  -0.103576  -0.000452  3.720634  0.0  -0.119922  -0.001514  3.97816  -0.001  -0.125495  0.000146  3.997897  0.0  -0.08031  -0.116919  -0.003072  3.967441  -0.002
C  C31  1  0.66960539  0.55034568  0.39842007  1  -0.1083  0.000113  3.721436  0.0  -0.124462  0.00028  3.978501  0.0  -0.130882  0.00075  4.000978  0.0  -0.080231  -0.119905  -0.000202  3.962333  0.0
C  C32  1  0.78030311  0.54915493  0.10187440  1  -0.106667  -8.1e-05  3.720916  0.0  -0.123051  0.000201  3.977961  0.0  -0.129353  0.000664  4.000232  0.0  -0.080344  -0.118897  -0.000219  3.962793  0.0
C  C33  1  0.33127157  0.45798841  0.59926935  1  -0.106289  0.002289  3.724549  0.002  -0.122716  -0.000661  3.983247  0.0  -0.128613  0.000976  4.002401  0.001  -0.081601  -0.119536  -0.002487  3.97188  -0.001
C  C34  1  0.04942472  0.58721370  0.86221183  1  0.12843  -0.002318  3.687088  -0.001  0.095723  -0.002455  3.94844  -0.001  0.1043  -0.001425  3.964811  -0.001  0.052358  0.088644  -0.003806  3.938456  -0.002
C  C35  1  0.63530819  0.41961914  0.36048639  1  0.136573  -0.001695  3.703509  -0.002  0.106713  -0.004592  3.956307  -0.003  0.11282  -0.003705  3.975547  -0.003  0.054569  0.102922  -0.00531  3.943114  -0.004
C  C36  1  0.94553505  0.41870511  0.13958504  1  0.135049  -0.001356  3.705062  -0.001  0.105099  -0.004251  3.958563  -0.003  0.111212  -0.00339  3.977777  -0.003  0.054444  0.101106  -0.005242  3.944953  -0.004
C  C37  1  0.36474171  0.58789295  0.63844101  1  0.129159  -0.00475  3.679591  -0.003  0.095627  -0.003439  3.941449  -0.002  0.104917  -0.002211  3.957175  -0.001  0.052432  0.088811  -0.004608  3.931881  -0.002
C  C38  1  0.74051776  0.00950994  0.88172667  1  0.469919  0.015345  3.959716  0.013  0.43653  0.008864  4.246725  0.007  0.460928  0.00778  4.261032  0.006  0.313828  0.418866  0.009699  4.235706  0.008
C  C39  1  0.77439553  0.96971109  0.38497052  1  0.501714  -0.022987  3.983474  -0.023  0.463187  -0.02871  4.274293  -0.028  0.489754  -0.025527  4.284098  -0.025  0.312749  0.444965  -0.031367  4.268472  -0.03
C  C40  1  0.25577002  0.96947564  0.11503085  1  0.501445  -0.022775  3.98369  -0.023  0.462473  -0.028622  4.27473  -0.028  0.489113  -0.02548  4.284402  -0.025  0.312083  0.444511  -0.031547  4.267897  -0.03
C  C41  1  0.24849611  0.00957128  0.61733746  1  0.470804  0.015649  3.957576  0.013  0.437269  0.008824  4.24483  0.007  0.461983  0.007686  4.258783  0.006  0.314603  0.419426  0.010187  4.234181  0.008
C  C42  1  0.67744679  0.16181940  0.02811064  1  0.492886  -0.019892  3.9698  -0.02  0.460937  -0.025535  4.250564  -0.026  0.486196  -0.022447  4.26358  -0.023  0.311543  0.443589  -0.029041  4.239869  -0.029
C  C43  1  0.82723618  0.83007611  0.53760026  1  0.479389  0.000175  3.953915  -0.001  0.446604  -0.003146  4.244797  -0.003  0.472298  -0.000624  4.253654  -0.001  0.308378  0.428053  -0.004909  4.239316  -0.004
C  C44  1  0.34108387  0.83012371  0.96187822  1  0.478133  0.001344  3.952413  0.0  0.444934  -0.003387  4.243482  -0.003  0.470704  -0.001241  4.25231  -0.001  0.306871  0.425929  -0.005031  4.238693  -0.005
C  C45  1  0.16054583  0.16273904  0.47163900  1  0.493448  -0.020165  3.969925  -0.021  0.461601  -0.025727  4.250794  -0.026  0.486712  -0.022607  4.263846  -0.023  0.311577  0.444553  -0.029154  4.239429  -0.029
N  N46  1  0.88356852  0.57727885  0.80529831  1  -0.291142  -0.013043  3.219323  -0.017  -0.236694  -0.009718  3.486187  -0.013  -0.257226  -0.005272  3.502923  -0.009  -0.292  -0.221356  -0.012995  3.472774  -0.017
N  N47  1  0.45932785  0.42802171  0.30492884  1  -0.351531  -0.031968  3.241913  -0.022  -0.283488  -0.036327  3.502556  -0.024  -0.302323  -0.031995  3.518923  -0.02  -0.308079  -0.270056  -0.040568  3.491365  -0.028
N  N48  1  0.11315557  0.42753303  0.19493210  1  -0.350579  -0.03211  3.239617  -0.023  -0.283448  -0.036442  3.501755  -0.024  -0.302293  -0.03209  3.517999  -0.02  -0.307322  -0.269642  -0.040558  3.490132  -0.028
N  N49  1  0.54069378  0.57869541  0.69538237  1  -0.290147  -0.011687  3.225611  -0.016  -0.234683  -0.009172  3.49387  -0.013  -0.255362  -0.00445  3.510436  -0.008  -0.296683  -0.219565  -0.012706  3.481176  -0.017
N  N50  1  0.70579590  0.92969507  0.81772386  1  -0.516995  -0.009599  3.079001  -0.019  -0.48117  -0.007715  3.385116  -0.017  -0.505807  -0.009079  3.392252  -0.018  -0.391725  -0.462424  -0.004103  3.377909  -0.014
N  N51  1  0.67843035  0.06209433  0.32208850  1  -0.602958  -0.016787  2.844353  0.005  -0.557962  -0.023633  3.142522  0.005  -0.580516  -0.019374  3.141697  0.008  -0.378298  -0.543209  -0.027906  3.145087  0.001
N  N52  1  0.25967776  0.06190132  0.17809940  1  -0.603468  -0.017245  2.846165  0.004  -0.558619  -0.024401  3.145328  0.004  -0.58114  -0.020019  3.144339  0.007  -0.378216  -0.54343  -0.027849  3.146421  0.001
N  N53  1  0.36184884  0.92879785  0.68109788  1  -0.517803  -0.009913  3.089609  -0.019  -0.48204  -0.00757  3.396963  -0.017  -0.506553  -0.00887  3.403593  -0.018  -0.394267  -0.462878  -0.00417  3.390169  -0.015
N  N54  1  0.57924753  0.22816550  0.10369129  1  -0.589211  -0.012713  2.816223  0.004  -0.550697  -0.020799  3.105676  0.002  -0.573811  -0.018112  3.109  0.003  -0.3652  -0.533523  -0.021811  3.102555  0.001
N  N55  1  0.78182004  0.78890216  0.62058235  1  -0.524907  -0.010776  3.063715  -0.013  -0.500859  -0.008807  3.379385  -0.011  -0.520321  -0.007468  3.379319  -0.011  -0.388897  -0.487606  -0.010051  3.380256  -0.011
N  N56  1  0.42637604  0.78920929  0.87851789  1  -0.523893  -0.011123  3.064316  -0.014  -0.500094  -0.008928  3.380896  -0.011  -0.519469  -0.007403  3.380635  -0.01  -0.388524  -0.486564  -0.010056  3.381187  -0.011
N  N57  1  0.19282932  0.22918046  0.39636726  1  -0.588958  -0.012127  2.815851  0.005  -0.551055  -0.02033  3.105704  0.002  -0.574034  -0.017794  3.109073  0.003  -0.364692  -0.53337  -0.021294  3.101964  0.002
N  N58  1  0.79670574  0.09574044  0.94613712  1  -0.453793  0.00393  3.300637  0.004  -0.404389  0.002294  3.565377  0.004  -0.429906  0.000624  3.571714  0.002  -0.304881  -0.384457  0.00519  3.558802  0.007
N  N59  1  0.89398761  0.86277950  0.44597293  1  -0.461474  -0.002881  3.314876  -0.002  -0.414337  -0.006931  3.58702  -0.005  -0.438172  -0.005459  3.591606  -0.004  -0.310148  -0.397679  -0.008975  3.583567  -0.007
N  N60  1  0.24287785  0.86241039  0.05389951  1  -0.461024  -0.002669  3.313612  -0.002  -0.413286  -0.006945  3.585479  -0.005  -0.437171  -0.005544  3.590129  -0.004  -0.309038  -0.396654  -0.008983  3.58227  -0.007
N  N61  1  0.10681083  0.09658449  0.55327615  1  -0.454943  0.004189  3.301598  0.005  -0.405916  0.002118  3.566631  0.003  -0.43141  0.000415  3.572868  0.001  -0.305777  -0.385716  0.005842  3.560098  0.007
