# generated using pymatgen
data_LiH10C5NO5
_symmetry_space_group_name_H-M   'P 1'
_cell_length_a   7.31244031
_cell_length_b   9.70301581
_cell_length_c   10.26218022
_cell_angle_alpha   89.99990748
_cell_angle_beta   90.00002813
_cell_angle_gamma   97.58537773
_symmetry_Int_Tables_number   1
_chemical_formula_structural   LiH10C5NO5
_chemical_formula_sum   'Li4 H40 C20 N4 O20'
_cell_volume   721.75796748
_cell_formula_units_Z   4
loop_
 _symmetry_equiv_pos_site_id
 _symmetry_equiv_pos_as_xyz
  1  'x, y, z'
loop_
 _atom_site_type_symbol
 _atom_site_label
 _atom_site_symmetry_multiplicity
 _atom_site_fract_x
 _atom_site_fract_y
 _atom_site_fract_z
 _atom_site_occupancy
 _atom_site_hle17_bader_spin_density
 _atom_site_hle17_ddec_charge
 _atom_site_hle17_ddec_spin_density
 _atom_site_hle17_ddec_sum_bond_order
 _atom_site_hle17_magmom
 _atom_site_hse06_10hf_bader_spin_density
 _atom_site_hse06_10hf_ddec_charge
 _atom_site_hse06_10hf_ddec_spin_density
 _atom_site_hse06_10hf_ddec_sum_bond_order
 _atom_site_hse06_10hf_magmom
 _atom_site_hse06_bader_spin_density
 _atom_site_hse06_ddec_charge
 _atom_site_hse06_ddec_spin_density
 _atom_site_hse06_ddec_sum_bond_order
 _atom_site_hse06_magmom
 _atom_site_pbe_bader_spin_density
 _atom_site_pbe_cm5_charge
 _atom_site_pbe_ddec_charge
 _atom_site_pbe_ddec_spin_density
 _atom_site_pbe_ddec_sum_bond_order
 _atom_site_pbe_magmom
Li  Li0  1  0.54103219  0.85745688  0.36232108  1  0  0.85695  0  0.402026  0  0  0.816944  0  0.509473  0  0  0.826565  0  0.492082  0  0  0.50233  0.809964  0  0.522009  0
Li  Li1  1  0.54103218  0.35745816  0.13767817  1  0  0.856936  0  0.402044  0  0  0.816935  0  0.509486  0  0  0.826556  0  0.492096  0  0  0.502317  0.809955  0  0.522023  0
Li  Li2  1  0.45896846  0.14254261  0.63767831  1  0  0.856943  0  0.402028  0  0  0.816949  0  0.509458  0  0  0.826569  0  0.492069  0  0  0.502336  0.809969  0  0.521995  0
Li  Li3  1  0.45896864  0.64254237  0.86232220  1  0  0.856968  0  0.401993  0  0  0.816967  0  0.50943  0  0  0.826588  0  0.492039  0  0  0.502323  0.809987  0  0.521966  0
H  H4  1  0.97855159  0.68390637  0.01054517  1  0  0.048244  0  0.922234  0  0  0.059069  0  0.986592  0  0  0.059832  0  0.986242  0  0  0.116676  0.058375  0  0.986939  0
H  H5  1  0.97855291  0.18390603  0.48945548  1  0  0.048194  0  0.92225  0  0  0.059063  0  0.986556  0  0  0.059826  0  0.986207  0  0  0.116679  0.05837  0  0.986904  0
H  H6  1  0.02144786  0.31609415  0.98945520  1  0  0.048263  0  0.922242  0  0  0.059082  0  0.986595  0  0  0.059845  0  0.986246  0  0  0.116673  0.058388  0  0.986942  0
H  H7  1  0.02144773  0.81609346  0.51054294  1  0  0.048269  0  0.922186  0  0  0.059091  0  0.986539  0  0  0.059856  0  0.986188  0  0  0.116695  0.058397  0  0.986887  0
H  H8  1  0.13453853  0.61074293  0.27667273  1  0  0.129256  0  0.934355  0  0  0.142963  0  0.994623  0  0  0.146222  0  0.99289  0  0  0.110626  0.140554  0  0.995989  0
H  H9  1  0.13453992  0.11074407  0.22332870  1  0  0.129257  0  0.934379  0  0  0.142969  0  0.994638  0  0  0.146228  0  0.992905  0  0  0.110636  0.140562  0  0.996001  0
H  H10  1  0.86546092  0.38925760  0.72332763  1  0  0.129241  0  0.934394  0  0  0.142951  0  0.994657  0  0  0.14621  0  0.992924  0  0  0.110625  0.140543  0  0.996022  0
H  H11  1  0.86546090  0.88925646  0.77667069  1  0  0.129274  0  0.934374  0  0  0.142984  0  0.994632  0  0  0.146243  0  0.9929  0  0  0.110639  0.140576  0  0.995997  0
H  H12  1  0.75249490  0.66278456  0.18953342  1  0  0.138325  0  0.924021  0  0  0.154195  0  0.978754  0  0  0.157001  0  0.977706  0  0  0.128569  0.152155  0  0.979718  0
H  H13  1  0.75249615  0.16278451  0.31046620  1  0  0.138339  0  0.924031  0  0  0.154207  0  0.97877  0  0  0.157014  0  0.97772  0  0  0.128582  0.152167  0  0.979733  0
H  H14  1  0.24750438  0.33721493  0.81046694  1  0  0.138345  0  0.924026  0  0  0.154221  0  0.978762  0  0  0.157028  0  0.977712  0  0  0.128577  0.15218  0  0.979725  0
H  H15  1  0.24750432  0.83721394  0.68953319  1  0  0.138353  0  0.924022  0  0  0.154226  0  0.97876  0  0  0.157033  0  0.977711  0  0  0.128581  0.152185  0  0.979724  0
H  H16  1  0.96889946  0.50358141  0.18505013  1  0  0.119535  0  0.960995  0  0  0.131564  0  1.02723  0  0  0.133532  0  1.027546  0  0  0.110403  0.130054  0  1.027154  0
H  H17  1  0.96890072  0.00358136  0.31495176  1  0  0.11953  0  0.961019  0  0  0.131553  0  1.027256  0  0  0.133522  0  1.027572  0  0  0.110413  0.130044  0  1.02718  0
H  H18  1  0.03110118  0.49641808  0.81495121  1  0  0.119532  0  0.961002  0  0  0.131559  0  1.027237  0  0  0.133527  0  1.027553  0  0  0.110408  0.130049  0  1.027161  0
H  H19  1  0.03110010  0.99641917  0.68504763  1  0  0.119526  0  0.961018  0  0  0.131549  0  1.027256  0  0  0.133517  0  1.027571  0  0  0.110402  0.13004  0  1.02718  0
H  H20  1  0.28542531  0.79323101  0.04772809  1  0  0.332115  0  0.864791  0  0  0.311905  0  0.927714  0  0  0.320487  0  0.920304  0  0  0.317836  0.305772  0  0.933149  0
H  H21  1  0.28542680  0.29323177  0.45227214  1  0  0.332107  0  0.864777  0  0  0.3119  0  0.927697  0  0  0.320482  0  0.92029  0  0  0.317844  0.305767  0  0.93313  0
H  H22  1  0.71457396  0.20676847  0.95227130  1  0  0.3321  0  0.864795  0  0  0.311897  0  0.927716  0  0  0.32048  0  0.920309  0  0  0.317839  0.305763  0  0.933149  0
H  H23  1  0.71457385  0.70676772  0.54772822  1  0  0.332098  0  0.864802  0  0  0.311888  0  0.927725  0  0  0.320469  0  0.920318  0  0  0.317838  0.305754  0  0.933159  0
H  H24  1  0.14202789  0.91202737  0.05121944  1  0  0.337168  0  0.880765  0  0  0.312949  0  0.948548  0  0  0.321658  0  0.941498  0  0  0.308831  0.306821  0  0.953488  0
H  H25  1  0.14202646  0.41202708  0.44877959  1  0  0.33717  0  0.880736  0  0  0.312959  0  0.948512  0  0  0.321667  0  0.941466  0  0  0.308834  0.306831  0  0.95345  0
H  H26  1  0.85797275  0.08797212  0.94877995  1  0  0.337167  0  0.880742  0  0  0.312962  0  0.948516  0  0  0.321672  0  0.941467  0  0  0.30883  0.306834  0  0.953453  0
H  H27  1  0.85797281  0.58797240  0.55121980  1  0  0.337171  0  0.880739  0  0  0.312959  0  0.948513  0  0  0.321668  0  0.941466  0  0  0.308831  0.306831  0  0.953451  0
H  H28  1  0.89719386  0.77765509  0.28799197  1  0  0.11349  0  0.933437  0  0  0.128329  0  0.994015  0  0  0.130941  0  0.992654  0  0  0.111561  0.126497  0  0.995063  0
H  H29  1  0.89719233  0.27765521  0.21200850  1  0  0.113473  0  0.933413  0  0  0.128324  0  0.993977  0  0  0.130939  0  0.992608  0  0  0.111553  0.126491  0  0.995029  0
H  H30  1  0.10280696  0.22234543  0.71200839  1  0  0.113474  0  0.933408  0  0  0.128331  0  0.993975  0  0  0.130945  0  0.992609  0  0  0.111548  0.126499  0  0.995024  0
H  H31  1  0.10280558  0.72234427  0.78799089  1  0  0.11346  0  0.933462  0  0  0.128334  0  0.993998  0  0  0.13095  0  0.992627  0  0  0.111546  0.126501  0  0.995046  0
H  H32  1  0.22656382  0.86052960  0.19490728  1  0  0.335022  0  0.895953  0  0  0.315379  0  0.955829  0  0  0.324482  0  0.94938  0  0  0.30572  0.308971  0  0.960339  0
H  H33  1  0.22656370  0.36052956  0.30509283  1  0  0.334997  0  0.896003  0  0  0.315321  0  0.955923  0  0  0.324448  0  0.949436  0  0  0.305708  0.308895  0  0.960467  0
H  H34  1  0.77343700  0.13947093  0.80509211  1  0  0.334995  0  0.896004  0  0  0.315325  0  0.955927  0  0  0.32445  0  0.949447  0  0  0.305709  0.3089  0  0.960467  0
H  H35  1  0.77343712  0.63947097  0.69490754  1  0  0.335013  0  0.895982  0  0  0.315336  0  0.955908  0  0  0.324461  0  0.949426  0  0  0.305723  0.30891  0  0.96045  0
H  H36  1  0.39717951  0.62174982  0.43111656  1  0  0.413306  0  0.897382  0  0  0.382913  0  0.961477  0  0  0.392855  0  0.946883  0  0  0.291806  0.375888  0  0.971781  0
H  H37  1  0.39717912  0.12174913  0.06888397  1  0  0.413331  0  0.897346  0  0  0.382935  0  0.961445  0  0  0.392877  0  0.946851  0  0  0.29181  0.375909  0  0.971751  0
H  H38  1  0.60281994  0.37825071  0.56888380  1  0  0.413323  0  0.897356  0  0  0.382929  0  0.961454  0  0  0.392871  0  0.946859  0  0  0.291811  0.375903  0  0.971759  0
H  H39  1  0.60282033  0.87825139  0.93111639  1  0  0.41331  0  0.897375  0  0  0.382913  0  0.961478  0  0  0.392856  0  0.946883  0  0  0.291802  0.375887  0  0.971783  0
H  H40  1  0.56809458  0.56988930  0.35940185  1  0  0.427791  0  0.87592  0  0  0.395991  0  0.941911  0  0  0.407039  0  0.925705  0  0  0.291396  0.388151  0  0.953401  0
H  H41  1  0.56809558  0.06988850  0.14059882  1  0  0.427793  0  0.875912  0  0  0.395987  0  0.941913  0  0  0.407036  0  0.925707  0  0  0.291405  0.388147  0  0.953404  0
H  H42  1  0.43190470  0.43011018  0.64059851  1  0  0.427755  0  0.875973  0  0  0.395957  0  0.941961  0  0  0.407005  0  0.925756  0  0  0.291379  0.388116  0  0.953452  0
H  H43  1  0.43190369  0.93011098  0.85940154  1  0  0.427783  0  0.875931  0  0  0.395987  0  0.941915  0  0  0.407035  0  0.92571  0  0  0.291394  0.388146  0  0.953407  0
C  C44  1  0.86027303  0.75330081  0.18589185  1  0  -0.346307  0  3.637504  0  0  -0.386807  0  3.886091  0  0  -0.393748  0  3.893104  0  0  -0.154061  -0.38201  0  3.881158  0
C  C45  1  0.86027309  0.25330180  0.31410865  1  0  -0.346356  0  3.63754  0  0  -0.386865  0  3.886098  0  0  -0.393806  0  3.893111  0  0  -0.154079  -0.382067  0  3.881165  0
C  C46  1  0.13972624  0.24669867  0.81410852  1  0  -0.346367  0  3.637466  0  0  -0.386929  0  3.886086  0  0  -0.393873  0  3.893098  0  0  -0.154082  -0.38213  0  3.881152  0
C  C47  1  0.13972636  0.74669873  0.68589074  1  0  -0.346379  0  3.63757  0  0  -0.386922  0  3.886134  0  0  -0.393865  0  3.893149  0  0  -0.154061  -0.382123  0  3.8812  0
C  C48  1  0.77091157  0.87174544  0.12676980  1  0  0.725781  0  3.845789  0  0  0.675039  0  4.151608  0  0  0.707599  0  4.143558  0  0  0.223075  0.652963  0  4.156375  0
C  C49  1  0.77091148  0.37174529  0.37323048  1  0  0.725908  0  3.845696  0  0  0.675189  0  4.151496  0  0  0.707749  0  4.143446  0  0  0.223101  0.653112  0  4.156267  0
C  C50  1  0.22908771  0.12825405  0.87322959  1  0  0.7259  0  3.845682  0  0  0.675203  0  4.151455  0  0  0.707764  0  4.143402  0  0  0.22316  0.653126  0  4.156221  0
C  C51  1  0.22908797  0.62825524  0.62676988  1  0  0.72596  0  3.845693  0  0  0.675264  0  4.15147  0  0  0.707823  0  4.143419  0  0  0.223167  0.653188  0  4.156238  0
C  C52  1  0.08858761  0.58429087  0.17645915  1  0  -0.358803  0  3.627376  0  0  -0.3985  0  3.871368  0  0  -0.406165  0  3.879567  0  0  -0.165989  -0.393039  0  3.865588  0
C  C53  1  0.08858750  0.08429080  0.32354231  1  0  -0.358782  0  3.627324  0  0  -0.398495  0  3.871376  0  0  -0.40616  0  3.879572  0  0  -0.166001  -0.393035  0  3.865597  0
C  C54  1  0.91141303  0.41570861  0.82354122  1  0  -0.358753  0  3.62743  0  0  -0.398449  0  3.871415  0  0  -0.406116  0  3.879615  0  0  -0.165972  -0.392989  0  3.865635  0
C  C55  1  0.91141332  0.91570972  0.67645708  1  0  -0.358754  0  3.627331  0  0  -0.398462  0  3.871352  0  0  -0.406127  0  3.879553  0  0  -0.165963  -0.393003  0  3.865572  0
C  C56  1  0.02251432  0.70948463  0.11076930  1  0  0.265184  0  3.539973  0  0  0.234451  0  3.79376  0  0  0.240737  0  3.807269  0  0  0.013478  0.230302  0  3.784348  0
C  C57  1  0.02251322  0.20948653  0.38923097  1  0  0.265198  0  3.539889  0  0  0.234455  0  3.793679  0  0  0.240739  0  3.807197  0  0  0.01348  0.230306  0  3.784267  0
C  C58  1  0.97748496  0.29051485  0.88923107  1  0  0.265122  0  3.540031  0  0  0.234434  0  3.793788  0  0  0.24072  0  3.807303  0  0  0.013492  0.230284  0  3.784372  0
C  C59  1  0.97748760  0.79051400  0.61076842  1  0  0.265127  0  3.539862  0  0  0.234413  0  3.79366  0  0  0.240696  0  3.807177  0  0  0.013419  0.230266  0  3.784245  0
C  C60  1  0.24060578  0.52153690  0.10497539  1  0  0.748315  0  3.850046  0  0  0.703087  0  4.154401  0  0  0.735679  0  4.145052  0  0  0.227104  0.680956  0  4.160195  0
C  C61  1  0.24060706  0.02153672  0.39502525  1  0  0.748356  0  3.849998  0  0  0.703108  0  4.154389  0  0  0.7357  0  4.145038  0  0  0.227146  0.680976  0  4.160188  0
C  C62  1  0.75939557  0.47846674  0.89502205  1  0  0.748256  0  3.850086  0  0  0.70303  0  4.154436  0  0  0.735622  0  4.145087  0  0  0.227067  0.680899  0  4.160228  0
C  C63  1  0.75939548  0.97846589  0.60497707  1  0  0.748165  0  3.850101  0  0  0.702936  0  4.154461  0  0  0.735527  0  4.145116  0  0  0.227065  0.680806  0  4.160256  0
N  N64  1  0.17810382  0.82572567  0.10087660  1  0  -0.540877  0  3.151069  0  0  -0.488158  0  3.349689  0  0  -0.504841  0  3.345545  0  0  -0.607668  -0.476775  0  3.352774  0
N  N65  1  0.17810374  0.32572548  0.39912452  1  0  -0.540826  0  3.151018  0  0  -0.488117  0  3.349697  0  0  -0.504802  0  3.345505  0  0  -0.607664  -0.476726  0  3.35281  0
N  N66  1  0.82189563  0.17427485  0.89912474  1  0  -0.540812  0  3.151065  0  0  -0.488134  0  3.349749  0  0  -0.50482  0  3.345553  0  0  -0.607669  -0.476747  0  3.352874  0
N  N67  1  0.82189571  0.67427505  0.60087487  1  0  -0.540847  0  3.151029  0  0  -0.488131  0  3.349698  0  0  -0.504815  0  3.345501  0  0  -0.607662  -0.476738  0  3.352811  0
O  O68  1  0.65335212  0.92393292  0.19669056  1  0  -0.722042  0  1.976429  0  0  -0.668691  0  2.211652  0  0  -0.692538  0  2.199908  0  0  -0.379977  -0.651907  0  2.219365  0
O  O69  1  0.65335045  0.42393184  0.30330961  1  0  -0.722113  0  1.97636  0  0  -0.668779  0  2.211591  0  0  -0.692627  0  2.199844  0  0  -0.379986  -0.651994  0  2.219306  0
O  O70  1  0.34664870  0.07606761  0.80330883  1  0  -0.7221  0  1.976409  0  0  -0.668784  0  2.211633  0  0  -0.692631  0  2.199886  0  0  -0.380042  -0.652  0  2.219347  0
O  O71  1  0.34664918  0.57606973  0.69668978  1  0  -0.722151  0  1.976404  0  0  -0.668834  0  2.211631  0  0  -0.692683  0  2.199888  0  0  -0.380043  -0.65205  0  2.219345  0
O  O72  1  0.29725718  0.41504587  0.15732303  1  0  -0.721576  0  1.950122  0  0  -0.674463  0  2.188021  0  0  -0.697282  0  2.175666  0  0  -0.389486  -0.658675  0  2.196227  0
O  O73  1  0.29725718  0.91504462  0.34267702  1  0  -0.72163  0  1.950128  0  0  -0.674515  0  2.188036  0  0  -0.697322  0  2.175685  0  0  -0.389528  -0.658733  0  2.196237  0
O  O74  1  0.70274347  0.58495362  0.84267733  1  0  -0.721519  0  1.950181  0  0  -0.674402  0  2.188079  0  0  -0.697219  0  2.175724  0  0  -0.389439  -0.658615  0  2.196286  0
O  O75  1  0.70274448  0.08495279  0.65732237  1  0  -0.721546  0  1.950257  0  0  -0.674426  0  2.188148  0  0  -0.69724  0  2.175793  0  0  -0.389494  -0.658638  0  2.196355  0
O  O76  1  0.29968659  0.57600590  0.99909725  1  0  -0.725849  0  1.952013  0  0  -0.682562  0  2.196465  0  0  -0.703489  0  2.182991  0  0  -0.393232  -0.668156  0  2.205522  0
O  O77  1  0.29968891  0.07600533  0.50090233  1  0  -0.725847  0  1.951984  0  0  -0.682563  0  2.196455  0  0  -0.703492  0  2.182987  0  0  -0.393248  -0.668155  0  2.205512  0
O  O78  1  0.70031405  0.42399359  0.00090409  1  0  -0.725834  0  1.951949  0  0  -0.682552  0  2.196407  0  0  -0.703488  0  2.182947  0  0  -0.393249  -0.668142  0  2.20546  0
O  O79  1  0.70031310  0.92399416  0.49909414  1  0  -0.725734  0  1.951823  0  0  -0.682442  0  2.196263  0  0  -0.70338  0  2.182812  0  0  -0.393201  -0.668033  0  2.205315  0
O  O80  1  0.81448913  0.90912640  0.01088895  1  0  -0.663693  0  1.981987  0  0  -0.600327  0  2.203983  0  0  -0.624437  0  2.194414  0  0  -0.319839  -0.583608  0  2.210172  0
O  O81  1  0.81448909  0.40912606  0.48911129  1  0  -0.663719  0  1.981965  0  0  -0.600364  0  2.203946  0  0  -0.624474  0  2.194377  0  0  -0.319841  -0.583646  0  2.210138  0
O  O82  1  0.18550997  0.09087204  0.98911142  1  0  -0.663727  0  1.981963  0  0  -0.600357  0  2.203924  0  0  -0.624466  0  2.194354  0  0  -0.31985  -0.583639  0  2.210114  0
O  O83  1  0.18551001  0.59087239  0.51088810  1  0  -0.663728  0  1.981927  0  0  -0.60037  0  2.203885  0  0  -0.624474  0  2.194313  0  0  -0.319852  -0.583652  0  2.210076  0
O  O84  1  0.51852631  0.65502513  0.39129558  1  0  -0.911327  0  1.782163  0  0  -0.865246  0  1.957119  0  0  -0.882116  0  1.924799  0  0  -0.64916  -0.853221  0  1.979795  0
O  O85  1  0.51852748  0.15502542  0.10870494  1  0  -0.911344  0  1.7821  0  0  -0.865257  0  1.95706  0  0  -0.882133  0  1.924747  0  0  -0.649165  -0.85323  0  1.979736  0
O  O86  1  0.48147314  0.34497540  0.60870575  1  0  -0.911298  0  1.782176  0  0  -0.865214  0  1.957122  0  0  -0.882093  0  1.924817  0  0  -0.649146  -0.853188  0  1.979798  0
O  O87  1  0.48147334  0.84497511  0.89129542  1  0  -0.911327  0  1.782159  0  0  -0.865242  0  1.957108  0  0  -0.882116  0  1.924794  0  0  -0.649148  -0.853216  0  1.979784  0
