# generated using pymatgen
data_AgH6C8NO4
_symmetry_space_group_name_H-M   'P 1'
_cell_length_a   4.96037560
_cell_length_b   12.36110918
_cell_length_c   13.91764576
_cell_angle_alpha   95.06022617
_cell_angle_beta   89.99987117
_cell_angle_gamma   89.99998832
_symmetry_Int_Tables_number   1
_chemical_formula_structural   AgH6C8NO4
_chemical_formula_sum   'Ag4 H24 C32 N4 O16'
_cell_volume   850.04482669
_cell_formula_units_Z   4
loop_
 _symmetry_equiv_pos_site_id
 _symmetry_equiv_pos_as_xyz
  1  'x, y, z'
loop_
 _atom_site_type_symbol
 _atom_site_label
 _atom_site_symmetry_multiplicity
 _atom_site_fract_x
 _atom_site_fract_y
 _atom_site_fract_z
 _atom_site_occupancy
 _atom_site_hle17_bader_spin_density
 _atom_site_hle17_ddec_charge
 _atom_site_hle17_ddec_spin_density
 _atom_site_hle17_ddec_sum_bond_order
 _atom_site_hle17_magmom
 _atom_site_hse06_10hf_bader_spin_density
 _atom_site_hse06_10hf_ddec_charge
 _atom_site_hse06_10hf_ddec_spin_density
 _atom_site_hse06_10hf_ddec_sum_bond_order
 _atom_site_hse06_10hf_magmom
 _atom_site_hse06_bader_spin_density
 _atom_site_hse06_ddec_charge
 _atom_site_hse06_ddec_spin_density
 _atom_site_hse06_ddec_sum_bond_order
 _atom_site_hse06_magmom
 _atom_site_pbe_bader_spin_density
 _atom_site_pbe_cm5_charge
 _atom_site_pbe_ddec_charge
 _atom_site_pbe_ddec_spin_density
 _atom_site_pbe_ddec_sum_bond_order
 _atom_site_pbe_magmom
Ag  Ag0  1  0.00010030  0.93266529  0.72678469  1  0  0.639356  0  1.331209  0  0  0.525914  0  1.780859  0  0  0.561325  0  1.718819  0  0  0.419762  0.501153  0  1.824155  0
Ag  Ag1  1  0.50009274  0.06734022  0.77321307  1  0  0.63933  0  1.331215  0  0  0.525909  0  1.780839  0  0  0.561319  0  1.7188  0  0  0.419759  0.501147  0  1.824138  0
Ag  Ag2  1  0.99990324  0.06734300  0.27321411  1  0  0.639312  0  1.331225  0  0  0.525879  0  1.780866  0  0  0.561293  0  1.718827  0  0  0.419746  0.501115  0  1.824164  0
Ag  Ag3  1  0.49990274  0.93266482  0.22678692  1  0  0.639325  0  1.331215  0  0  0.525888  0  1.780858  0  0  0.561304  0  1.718817  0  0  0.419768  0.501129  0  1.824153  0
H  H4  1  0.74291046  0.86150325  0.89618387  1  0  0.129833  0  0.951651  0  0  0.133247  0  1.020055  0  0  0.138103  0  1.013781  0  0  0.1351  0.129518  0  1.024867  0
H  H5  1  0.24290708  0.13849817  0.60381769  1  0  0.129856  0  0.951655  0  0  0.133264  0  1.020078  0  0  0.138127  0  1.013792  0  0  0.135109  0.12953  0  1.024903  0
H  H6  1  0.25709307  0.13849692  0.10381647  1  0  0.129835  0  0.951684  0  0  0.133243  0  1.020103  0  0  0.138103  0  1.013819  0  0  0.135094  0.129511  0  1.02492  0
H  H7  1  0.75709444  0.86150038  0.39618325  1  0  0.129857  0  0.951641  0  0  0.133275  0  1.020069  0  0  0.13814  0  1.01378  0  0  0.135115  0.129538  0  1.024902  0
H  H8  1  0.23454748  0.62591039  0.99896443  1  0  0.108658  0  0.91938  0  0  0.120786  0  0.974892  0  0  0.123588  0  0.972635  0  0  0.136523  0.118694  0  0.976575  0
H  H9  1  0.73454956  0.37408860  0.50103552  1  0  0.108683  0  0.919389  0  0  0.12081  0  0.97489  0  0  0.123612  0  0.972638  0  0  0.136535  0.118717  0  0.976574  0
H  H10  1  0.76545001  0.37408898  0.00103656  1  0  0.108647  0  0.919397  0  0  0.120782  0  0.974894  0  0  0.123582  0  0.97264  0  0  0.136523  0.11869  0  0.976578  0
H  H11  1  0.26543583  0.62591074  0.49895973  1  0  0.108693  0  0.919393  0  0  0.120769  0  0.974913  0  0  0.123575  0  0.972662  0  0  0.136518  0.118676  0  0.976595  0
H  H12  1  0.00503500  0.47635644  0.88844298  1  0  0.125377  0  0.967867  0  0  0.131429  0  1.030104  0  0  0.135789  0  1.028028  0  0  0.113056  0.12826  0  1.031844  0
H  H13  1  0.50503833  0.52364259  0.61155859  1  0  0.125388  0  0.967851  0  0  0.131411  0  1.030125  0  0  0.13577  0  1.028051  0  0  0.113052  0.12824  0  1.031865  0
H  H14  1  0.99496853  0.52364374  0.11155880  1  0  0.125401  0  0.967888  0  0  0.131453  0  1.030119  0  0  0.135812  0  1.028043  0  0  0.113053  0.128283  0  1.031857  0
H  H15  1  0.49495311  0.47635594  0.38843803  1  0  0.125371  0  0.96787  0  0  0.131423  0  1.030113  0  0  0.135783  0  1.028036  0  0  0.11307  0.128255  0  1.031848  0
H  H16  1  0.64034005  0.52808679  0.78086429  1  0  0.109271  0  0.94881  0  0  0.118962  0  1.01204  0  0  0.12183  0  1.00947  0  0  0.113573  0.116797  0  1.013987  0
H  H17  1  0.14034989  0.47191386  0.71914017  1  0  0.109337  0  0.948847  0  0  0.118989  0  1.012117  0  0  0.121855  0  1.009545  0  0  0.113614  0.116825  0  1.01406  0
H  H18  1  0.35965744  0.47191177  0.21913880  1  0  0.109317  0  0.948795  0  0  0.118981  0  1.01206  0  0  0.121848  0  1.00949  0  0  0.11359  0.116817  0  1.014003  0
H  H19  1  0.85965365  0.52808306  0.28085921  1  0  0.109321  0  0.948834  0  0  0.118958  0  1.012124  0  0  0.121826  0  1.009554  0  0  0.113582  0.116795  0  1.014064  0
H  H20  1  0.22840891  0.88687186  0.95626667  1  0  0.144768  0  0.917556  0  0  0.156862  0  0.97578  0  0  0.159435  0  0.974428  0  0  0.127713  0.154912  0  0.97687  0
H  H21  1  0.72840479  0.11312550  0.54373244  1  0  0.144796  0  0.917539  0  0  0.156883  0  0.975764  0  0  0.159455  0  0.974412  0  0  0.127721  0.154932  0  0.976854  0
H  H22  1  0.77159060  0.11312750  0.04373361  1  0  0.144819  0  0.917528  0  0  0.156909  0  0.97574  0  0  0.15948  0  0.97439  0  0  0.12774  0.154958  0  0.976831  0
H  H23  1  0.27158867  0.88687223  0.45626628  1  0  0.144812  0  0.917503  0  0  0.156904  0  0.975712  0  0  0.159477  0  0.974361  0  0  0.127734  0.154954  0  0.976801  0
H  H24  1  0.30971009  0.79505435  0.04385633  1  0  0.132078  0  0.930957  0  0  0.140472  0  1.000294  0  0  0.144256  0  0.996284  0  0  0.123579  0.137705  0  1.003249  0
H  H25  1  0.80970534  0.20494455  0.45614131  1  0  0.132083  0  0.930967  0  0  0.140464  0  1.000308  0  0  0.144251  0  0.99629  0  0  0.12357  0.137697  0  1.003262  0
H  H26  1  0.69029748  0.20494663  0.95614407  1  0  0.132084  0  0.930986  0  0  0.14047  0  1.000326  0  0  0.144255  0  0.996309  0  0  0.123569  0.137713  0  1.003271  0
H  H27  1  0.19029215  0.79505318  0.54385957  1  0  0.132073  0  0.930953  0  0  0.140452  0  1.000294  0  0  0.144244  0  0.996281  0  0  0.123567  0.137684  0  1.003248  0
C  C28  1  0.43230539  0.73714691  0.76655088  1  0  0.633989  0  3.989554  0  0  0.58303  0  4.29264  0  0  0.617364  0  4.28786  0  0  0.18856  0.559964  0  4.294694  0
C  C29  1  0.93230807  0.26285369  0.73345478  1  0  0.633993  0  3.989381  0  0  0.582998  0  4.292524  0  0  0.617332  0  4.287744  0  0  0.188531  0.559933  0  4.294577  0
C  C30  1  0.56769411  0.26285247  0.23345443  1  0  0.634012  0  3.989391  0  0  0.583034  0  4.292501  0  0  0.617367  0  4.287719  0  0  0.188506  0.559968  0  4.29455  0
C  C31  1  0.06769748  0.73714486  0.26654688  1  0  0.633946  0  3.989407  0  0  0.582953  0  4.292548  0  0  0.617286  0  4.287772  0  0  0.18854  0.559887  0  4.2946  0
C  C32  1  0.65888885  0.69886575  0.82974676  1  0  -0.086335  0  3.697098  0  0  -0.061897  0  3.938689  0  0  -0.07412  0  3.959138  0  0  -0.000168  -0.054655  0  3.925696  0
C  C33  1  0.15888699  0.30113813  0.67025649  1  0  -0.086446  0  3.697152  0  0  -0.061974  0  3.938714  0  0  -0.074197  0  3.959165  0  0  -0.000214  -0.054732  0  3.925721  0
C  C34  1  0.34111670  0.30113361  0.17025495  1  0  -0.086415  0  3.697066  0  0  -0.061945  0  3.93863  0  0  -0.074169  0  3.959079  0  0  -0.000182  -0.054702  0  3.925632  0
C  C35  1  0.84110647  0.69886204  0.32974385  1  0  -0.086382  0  3.697111  0  0  -0.061878  0  3.938655  0  0  -0.0741  0  3.959109  0  0  -0.000171  -0.054634  0  3.925657  0
C  C36  1  0.79318895  0.77551133  0.89146310  1  0  0.095543  0  3.536261  0  0  0.045059  0  3.786201  0  0  0.05727  0  3.795621  0  0  0.074549  0.036781  0  3.780666  0
C  C37  1  0.29318550  0.22449091  0.60854064  1  0  0.095551  0  3.536315  0  0  0.045053  0  3.786268  0  0  0.057258  0  3.7957  0  0  0.074567  0.036774  0  3.78073  0
C  C38  1  0.20681257  0.22448885  0.10854083  1  0  0.095522  0  3.536359  0  0  0.045033  0  3.78629  0  0  0.057247  0  3.795711  0  0  0.074549  0.036754  0  3.780748  0
C  C39  1  0.70681602  0.77550846  0.39146108  1  0  0.095526  0  3.536324  0  0  0.044959  0  3.786367  0  0  0.057164  0  3.795796  0  0  0.074497  0.036681  0  3.780824  0
C  C40  1  0.07254377  0.64113635  0.94925966  1  0  0.093197  0  3.589373  0  0  0.049039  0  3.840846  0  0  0.057968  0  3.856598  0  0  0.068312  0.043321  0  3.830313  0
C  C41  1  0.57254554  0.35886266  0.55074042  1  0  0.093126  0  3.5894  0  0  0.048983  0  3.84085  0  0  0.057908  0  3.856603  0  0  0.068287  0.043264  0  3.830316  0
C  C42  1  0.92745775  0.35886219  0.05073984  1  0  0.09315  0  3.589408  0  0  0.049007  0  3.840846  0  0  0.057936  0  3.856596  0  0  0.068266  0.043288  0  3.83031  0
C  C43  1  0.42744388  0.64113750  0.44925632  1  0  0.093064  0  3.589402  0  0  0.049031  0  3.840761  0  0  0.05795  0  3.856519  0  0  0.068277  0.043311  0  3.830229  0
C  C44  1  0.94433280  0.56127462  0.89000609  1  0  -0.123224  0  3.731254  0  0  -0.135046  0  3.990501  0  0  -0.144271  0  4.010486  0  0  -0.078753  -0.129432  0  3.97749  0
C  C45  1  0.44434134  0.43872433  0.60999512  1  0  -0.12311  0  3.731322  0  0  -0.134905  0  3.990548  0  0  -0.14413  0  4.010535  0  0  -0.078681  -0.129292  0  3.977537  0
C  C46  1  0.05566267  0.43872393  0.10999484  1  0  -0.123275  0  3.73122  0  0  -0.135092  0  3.99045  0  0  -0.144317  0  4.010435  0  0  -0.078736  -0.129481  0  3.977441  0
C  C47  1  0.55565414  0.56127421  0.39000366  1  0  -0.123106  0  3.731267  0  0  -0.134954  0  3.990474  0  0  -0.144177  0  4.01046  0  0  -0.0787  -0.129341  0  3.977464  0
C  C48  1  0.73850986  0.59042162  0.82883579  1  0  0.013987  0  3.645768  0  0  -0.017924  0  3.892191  0  0  -0.009185  0  3.905981  0  0  -0.046679  -0.023421  0  3.883005  0
C  C49  1  0.23851803  0.40958062  0.67116656  1  0  0.013923  0  3.646027  0  0  -0.017976  0  3.892444  0  0  -0.009233  0  3.906233  0  0  -0.04674  -0.023474  0  3.883256  0
C  C50  1  0.26149166  0.40957775  0.17116593  1  0  0.014078  0  3.64562  0  0  -0.017835  0  3.892053  0  0  -0.009092  0  3.905836  0  0  -0.046644  -0.023334  0  3.882866  0
C  C51  1  0.76148148  0.59041711  0.32883288  1  0  0.013929  0  3.645971  0  0  -0.017961  0  3.892387  0  0  -0.009221  0  3.906179  0  0  -0.046722  -0.02346  0  3.883198  0
C  C52  1  0.14380542  0.83203548  0.00620820  1  0  -0.189878  0  3.561793  0  0  -0.250609  0  3.807478  0  0  -0.253221  0  3.814062  0  0  -0.057227  -0.248581  0  3.803151  0
C  C53  1  0.64380449  0.16796590  0.49379263  1  0  -0.189938  0  3.561891  0  0  -0.250617  0  3.807457  0  0  -0.253225  0  3.814039  0  0  -0.057214  -0.248588  0  3.803126  0
C  C54  1  0.85619610  0.16796306  0.99379202  1  0  -0.189964  0  3.561816  0  0  -0.25068  0  3.807498  0  0  -0.25329  0  3.814085  0  0  -0.057241  -0.248663  0  3.803162  0
C  C55  1  0.35619502  0.83203265  0.50620687  1  0  -0.18999  0  3.561884  0  0  -0.250662  0  3.807451  0  0  -0.253285  0  3.814029  0  0  -0.057268  -0.248628  0  3.803117  0
C  C56  1  0.96879310  0.89577736  0.08191054  1  0  0.696774  0  3.874831  0  0  0.645209  0  4.170775  0  0  0.680273  0  4.166059  0  0  0.209196  0.621201  0  4.173014  0
C  C57  1  0.46878775  0.10422640  0.41809093  1  0  0.696705  0  3.874917  0  0  0.645168  0  4.170807  0  0  0.680232  0  4.16609  0  0  0.209227  0.621161  0  4.173041  0
C  C58  1  0.03121044  0.10422525  0.91808999  1  0  0.696806  0  3.874873  0  0  0.64524  0  4.170816  0  0  0.680302  0  4.166102  0  0  0.209225  0.621232  0  4.173056  0
C  C59  1  0.53121175  0.89577538  0.58190738  1  0  0.69686  0  3.874893  0  0  0.64534  0  4.170751  0  0  0.680407  0  4.166032  0  0  0.209311  0.621332  0  4.172991  0
N  N60  1  0.99728219  0.74625417  0.94807405  1  0  0.044097  0  3.558773  0  0  0.137069  0  3.764548  0  0  0.124734  0  3.789535  0  0  -0.202835  0.14467  0  3.747969  0
N  N61  1  0.49727506  0.25374559  0.55192646  1  0  0.044093  0  3.558784  0  0  0.137044  0  3.764572  0  0  0.12471  0  3.789564  0  0  -0.202874  0.144648  0  3.747991  0
N  N62  1  0.00272538  0.25374438  0.05192617  1  0  0.044135  0  3.558728  0  0  0.137102  0  3.764462  0  0  0.124763  0  3.789453  0  0  -0.202845  0.144704  0  3.74788  0
N  N63  1  0.50272042  0.74625376  0.44807238  1  0  0.044176  0  3.558772  0  0  0.137126  0  3.764545  0  0  0.124794  0  3.789539  0  0  -0.20277  0.144727  0  3.747963  0
O  O64  1  0.34999297  0.83298690  0.79335704  1  0  -0.670249  0  2.091966  0  0  -0.611505  0  2.376466  0  0  -0.641846  0  2.363772  0  0  -0.335285  -0.59005  0  2.384363  0
O  O65  1  0.84998578  0.16701775  0.70664324  1  0  -0.670225  0  2.09186  0  0  -0.611486  0  2.376412  0  0  -0.641825  0  2.363719  0  0  -0.335248  -0.590028  0  2.384309  0
O  O66  1  0.65001258  0.16701652  0.20664354  1  0  -0.670214  0  2.092033  0  0  -0.611454  0  2.376533  0  0  -0.641795  0  2.363839  0  0  -0.335222  -0.589997  0  2.384427  0
O  O67  1  0.15001574  0.83298241  0.29335638  1  0  -0.67023  0  2.091859  0  0  -0.611469  0  2.376367  0  0  -0.641806  0  2.36367  0  0  -0.335255  -0.590013  0  2.384266  0
O  O68  1  0.34906797  0.67298257  0.69810806  1  0  -0.625946  0  1.886008  0  0  -0.58452  0  2.111558  0  0  -0.609168  0  2.104377  0  0  -0.341183  -0.566884  0  2.115607  0
O  O69  1  0.84908430  0.32701725  0.80190048  1  0  -0.625914  0  1.885944  0  0  -0.584484  0  2.111511  0  0  -0.609133  0  2.104327  0  0  -0.341187  -0.566848  0  2.11556  0
O  O70  1  0.65092548  0.32701844  0.30189665  1  0  -0.625965  0  1.885858  0  0  -0.584543  0  2.111427  0  0  -0.609195  0  2.104244  0  0  -0.341182  -0.566909  0  2.115474  0
O  O71  1  0.15091722  0.67298292  0.19809914  1  0  -0.625907  0  1.885978  0  0  -0.584482  0  2.111543  0  0  -0.609133  0  2.104366  0  0  -0.341204  -0.566847  0  2.115592  0
O  O72  1  0.08561185  0.97972629  0.12118489  1  0  -0.660511  0  2.134886  0  0  -0.583286  0  2.412667  0  0  -0.616369  0  2.399332  0  0  -0.328108  -0.559872  0  2.420836  0
O  O73  1  0.58559155  0.02027186  0.37881718  1  0  -0.660432  0  2.134943  0  0  -0.583183  0  2.41262  0  0  -0.616298  0  2.39935  0  0  -0.32805  -0.55977  0  2.420789  0
O  O74  1  0.91439370  0.02027632  0.87881492  1  0  -0.660498  0  2.134964  0  0  -0.583233  0  2.412651  0  0  -0.616321  0  2.399334  0  0  -0.328097  -0.55982  0  2.420822  0
O  O75  1  0.41440191  0.97972749  0.62118094  1  0  -0.660518  0  2.135018  0  0  -0.58329  0  2.412712  0  0  -0.616377  0  2.399383  0  0  -0.328113  -0.559878  0  2.420884  0
O  O76  1  0.73719567  0.86007007  0.09915080  1  0  -0.61075  0  2.05426  0  0  -0.542279  0  2.31813  0  0  -0.573737  0  2.307456  0  0  -0.319673  -0.520063  0  2.324553  0
O  O77  1  0.23719445  0.13993534  0.40084667  1  0  -0.610775  0  2.054289  0  0  -0.54233  0  2.318164  0  0  -0.573784  0  2.307485  0  0  -0.31977  -0.520116  0  2.324589  0
O  O78  1  0.26280988  0.13993092  0.90085176  1  0  -0.610797  0  2.054275  0  0  -0.542338  0  2.318158  0  0  -0.573796  0  2.307485  0  0  -0.319718  -0.520123  0  2.324583  0
O  O79  1  0.76280707  0.86006888  0.59915182  1  0  -0.610872  0  2.054309  0  0  -0.542428  0  2.31817  0  0  -0.573885  0  2.307492  0  0  -0.319779  -0.520213  0  2.324597  0
