# generated using pymatgen
data_Zn2H36C38(N2O7)3
_symmetry_space_group_name_H-M   'P 1'
_cell_length_a   11.08623389
_cell_length_b   15.95305251
_cell_length_c   17.03427626
_cell_angle_alpha   86.56141006
_cell_angle_beta   88.34034805
_cell_angle_gamma   88.29047127
_symmetry_Int_Tables_number   1
_chemical_formula_structural   Zn2H36C38(N2O7)3
_chemical_formula_sum   'Zn2 H36 C38 N6 O21'
_cell_volume   3004.79241558
_cell_formula_units_Z   1
loop_
 _symmetry_equiv_pos_site_id
 _symmetry_equiv_pos_as_xyz
  1  'x, y, z'
loop_
 _atom_site_type_symbol
 _atom_site_label
 _atom_site_symmetry_multiplicity
 _atom_site_fract_x
 _atom_site_fract_y
 _atom_site_fract_z
 _atom_site_occupancy
 _atom_site_pbe_bader_charge
 _atom_site_pbe_bader_spin_density
 _atom_site_pbe_cm5_charge
 _atom_site_pbe_ddec_charge
 _atom_site_pbe_ddec_spin_density
 _atom_site_pbe_ddec_sum_bond_order
 _atom_site_pbe_magmom
Zn  Zn0  1  0.48761637  0.41539268  0.50006591  1  1.29659  0  0.683491  0.860746  0  2.364207  0
Zn  Zn1  1  0.50099458  0.59403864  0.50353287  1  1.288084  0  0.680885  0.834918  0  2.393298  0
H  H2  1  0.09686416  0.61517098  0.41829563  1  0.066879  0  0.106068  0.131684  0  1.006799  0
H  H3  1  0.65790938  0.58237749  0.88420447  1  0.105407  0  0.105822  0.117351  0  1.002344  0
H  H4  1  0.62986719  0.59031796  0.73736609  1  0.07772  0  0.103552  0.113187  0  0.991024  0
H  H5  1  0.59230595  0.27040895  0.58911651  1  0.156778  0  0.136142  0.128951  0  0.964352  0
H  H6  1  0.35487332  0.13591585  0.39406164  1  0.106657  0  0.119784  0.140989  0  1.002332  0
H  H7  1  0.36344289  0.73992455  0.44688552  1  0.118805  0  0.127488  0.129206  0  0.982803  0
H  H8  1  0.50986429  0.65739791  0.25606551  1  0.082905  0  0.103392  0.126757  0  1.011498  0
H  H9  1  0.50636683  0.72453572  0.13446595  1  0.604209  0  0.340137  0.36773  0  0.863547  0
H  H10  1  0.61403757  0.04564993  0.58258798  1  0.653162  0  0.30639  0.305867  0  1.031994  0
H  H11  1  0.75251184  0.82191633  0.61891814  1  0.650383  0  0.345046  0.382286  0  0.861671  0
H  H12  1  0.70374210  0.64647535  0.56296664  1  0.660993  0  0.31108  0.386345  0  0.945333  0
H  H13  1  0.24182033  0.23191384  0.32872834  1  0.029591  0  0.098232  0.050913  0  0.97428  0
H  H14  1  0.39025536  0.25575458  0.28986204  1  0.069291  0  0.107582  0.069926  0  0.966207  0
H  H15  1  0.32449669  0.40740074  0.26892192  1  0.05912  0  0.097235  0.143035  0  1.00399  0
H  H16  1  0.23470211  0.34061656  0.21555520  1  0.048869  0  0.096105  0.12641  0  0.998369  0
H  H17  1  0.17565036  0.38231004  0.30408117  1  0.050782  0  0.09647  0.132925  0  0.986852  0
H  H18  1  0.37604044  0.96482887  0.44256244  1  0.626735  0  0.299796  0.291602  0  1.060106  0
H  H19  1  0.15980480  0.44431958  0.59113106  1  0.629747  0  0.330256  0.362801  0  0.892494  0
H  H20  1  0.92018772  0.68802865  0.45085746  1  0.589454  0  0.333162  0.358071  0  0.881244  0
H  H21  1  0.82056929  0.32519448  0.52495183  1  0.051696  0  0.090667  0.054069  0  1.01134  0
H  H22  1  0.90853630  0.38133459  0.58960571  1  0.085274  0  0.096868  0.060913  0  0.979955  0
H  H23  1  0.09917905  0.32068614  0.52714181  1  0.039774  0  0.086648  0.12136  0  1.01865  0
H  H24  1  0.00401021  0.23985978  0.56786104  1  0.006572  0  0.090839  0.121859  0  0.997404  0
H  H25  1  0.01023918  0.26396201  0.46444169  1  0.052053  0  0.084801  0.113194  0  1.011027  0
H  H26  1  0.75128239  0.41974077  0.32654473  1  0.055729  0  0.095544  0.059443  0  0.990983  0
H  H27  1  0.78770216  0.37081289  0.23653435  1  0.039594  0  0.093502  0.05053  0  0.970891  0
H  H28  1  0.84450140  0.27682248  0.35227315  1  0.014151  0  0.091236  0.122984  0  1.004827  0
H  H29  1  0.69451983  0.28257097  0.39151647  1  0.054436  0  0.085004  0.120581  0  1.024522  0
H  H30  1  0.72575849  0.23146718  0.30194636  1  0.031243  0  0.086901  0.116722  0  1.002418  0
H  H31  1  0.57986822  0.39835694  0.05039479  1  0.642107  0  0.298379  0.28991  0  1.054954  0
H  H32  1  0.23575430  0.42059319  0.88360191  1  0.040333  0  0.097046  0.056076  0  0.967632  0
H  H33  1  0.30194289  0.46393504  0.96599005  1  0.016399  0  0.094625  0.051457  0  0.979298  0
H  H34  1  0.26316024  0.33050731  0.04779618  1  0.045394  0  0.090487  0.122248  0  1.00414  0
H  H35  1  0.12693175  0.37643982  0.00926789  1  0.031301  0  0.094085  0.124424  0  0.994625  0
H  H36  1  0.19562378  0.28743274  0.96575184  1  0.065266  0  0.094364  0.129402  0  0.991202  0
H  H37  1  0.41743351  0.36197298  0.69978070  1  0.651834  0  0.306793  0.351788  0  0.949103  0
C  C38  1  0.49879700  0.48752074  0.65503458  1  1.558324  0  0.215023  0.614292  0  4.149925  0
C  C39  1  0.58697954  0.54197821  0.77561833  1  0.041543  0  -0.090929  -0.073171  0  4.032306  0
C  C40  1  0.60158065  0.53862624  0.85630345  1  -0.050702  0  -0.103392  -0.179169  0  4.033845  0
C  C41  1  0.54100878  0.47720848  0.90376103  1  0.337616  0  0.083175  0.091052  0  4.093102  0
C  C42  1  0.46906838  0.41807924  0.87041086  1  0.539635  0  0.073645  0.071242  0  4.021679  0
C  C43  1  0.46255382  0.41769036  0.78811124  1  0.544098  0  0.080231  0.206604  0  4.078479  0
C  C44  1  0.57839934  0.45347119  0.14524699  1  0.530552  0  0.092119  0.181293  0  4.054514  0
C  C45  1  0.57808136  0.45073700  0.22830450  1  0.626164  0  0.064503  0.091423  0  4.05379  0
C  C46  1  0.55658742  0.53158175  0.10105777  1  0.51162  0  0.06799  -0.04853  0  4.020389  0
C  C47  1  0.54754215  0.52430566  0.26650862  1  -0.035899  0  -0.013077  -0.068218  0  3.992512  0
C  C48  1  0.53021537  0.60156787  0.22357024  1  0.013857  0  -0.127986  -0.289844  0  4.058008  0
C  C49  1  0.73067435  0.49507318  0.49897279  1  1.532577  0  0.205865  0.564466  0  4.192752  0
C  C50  1  0.53670000  0.60615662  0.14208242  1  0.43259  0  0.083329  0.269319  0  4.105131  0
C  C51  1  0.43400231  0.77067725  0.47668089  1  0.560419  0  0.019572  -0.053733  0  3.943792  0
C  C52  1  0.43640197  0.85755520  0.47669126  1  0.537478  0  0.089003  0.217257  0  4.090299  0
C  C53  1  0.52897257  0.89448792  0.51971441  1  0.459716  0  0.085588  -0.019511  0  4.033601  0
C  C54  1  0.61437826  0.84025475  0.55820450  1  0.513217  0  0.095904  0.136978  0  4.045801  0
C  C55  1  0.60822681  0.75262558  0.55120879  1  1.219648  0  0.197947  0.325142  0  4.130943  0
C  C56  1  0.54937068  0.15082248  0.54464434  1  0.558058  0  0.097718  0.208068  0  4.0481  0
C  C57  1  0.54172580  0.23852742  0.54630968  1  0.551854  0  0.051058  0.003992  0  3.885462  0
C  C58  1  0.47835738  0.11341050  0.48858150  1  0.393383  0  0.096071  0.10604  0  4.07747  0
C  C59  1  0.40880986  0.25182348  0.44166965  1  1.092593  0  0.212057  0.383988  0  4.093092  0
C  C60  1  0.52448397  0.52321276  0.35358830  1  1.596952  0  0.216883  0.604195  0  4.155243  0
C  C61  1  0.40880629  0.16502158  0.43671913  1  0.010867  0  -0.092455  -0.310735  0  3.962769  0
C  C62  1  0.26367746  0.52592373  0.50336113  1  1.56497  0  0.212847  0.539446  0  4.216234  0
C  C63  1  0.05444138  0.57186114  0.46212190  1  0.052208  0  -0.13036  -0.341373  0  4.048562  0
C  C64  1  0.12880067  0.52748296  0.51203016  1  0.508194  0  0.084458  0.203564  0  4.047034  0
C  C65  1  0.92426415  0.56836222  0.46653936  1  0.487701  0  0.074352  0.267903  0  4.061178  0
C  C66  1  0.86113074  0.49583670  0.48119663  1  0.557657  0  0.041091  -0.065142  0  4.001794  0
C  C67  1  0.51831150  0.48226426  0.74108323  1  -0.048371  0  -0.037739  -0.166174  0  4.01268  0
C  C68  1  0.30922954  0.28138297  0.32002074  1  0.383409  0  -0.055267  0.095862  0  3.879872  0
C  C69  1  0.25771436  0.35792176  0.27469476  1  -0.052967  0  -0.239247  -0.390273  0  3.940784  0
C  C70  1  0.90815141  0.35424839  0.53170688  1  0.358295  0  -0.076184  0.075354  0  3.907628  0
C  C71  1  0.01172867  0.29121081  0.52214820  1  -0.055572  0  -0.247716  -0.389888  0  3.984139  0
C  C72  1  0.73002511  0.36722429  0.29051490  1  0.39745  0  -0.067168  0.092627  0  3.895389  0
C  C73  1  0.74908548  0.28421554  0.33668848  1  -0.049622  0  -0.245954  -0.387196  0  3.977357  0
C  C74  1  0.28463609  0.40478636  0.93830635  1  0.427532  0  -0.066286  0.092251  0  3.909452  0
C  C75  1  0.21379438  0.34588344  0.99358522  1  -0.081248  0  -0.242259  -0.393677  0  3.990276  0
N  N76  1  0.54916426  0.47016985  0.98601078  1  -0.528003  0  -0.15961  -0.128545  0  3.397265  0
N  N77  1  0.54931266  0.53966959  0.02010494  1  -0.56378  0  -0.153398  -0.080814  0  3.277201  0
N  N78  1  0.51842390  0.72058268  0.51298682  1  -1.240154  0  -0.328794  -0.267629  0  3.5718  0
N  N79  1  0.54079798  0.97978198  0.52546724  1  -0.575107  0  -0.142692  -0.075377  0  3.332635  0
N  N80  1  0.46974582  0.02746883  0.48240545  1  -0.556977  0  -0.153885  -0.116379  0  3.338354  0
N  N81  1  0.47466111  0.28699018  0.49632045  1  -1.21868  0  -0.318379  -0.280108  0  3.509825  0
O  O82  1  0.50158058  0.41694138  0.62155540  1  -1.171197  0  -0.31871  -0.571955  0  2.323421  0
O  O83  1  0.47773136  0.55914482  0.62124042  1  -1.160066  0  -0.312955  -0.531454  0  2.309011  0
O  O84  1  0.67345459  0.42924539  0.48647726  1  -1.158033  0  -0.306297  -0.535975  0  2.341591  0
O  O85  1  0.67956760  0.56043361  0.52846552  1  -1.183205  0  -0.321134  -0.567869  0  2.437146  0
O  O86  1  0.47725135  0.45799355  0.38624554  1  -1.151812  0  -0.307773  -0.542652  0  2.403407  0
O  O87  1  0.54904628  0.58930170  0.38775685  1  -1.156454  0  -0.316792  -0.531273  0  2.297197  0
O  O88  1  0.31095275  0.45504934  0.52627536  1  -1.163643  0  -0.313301  -0.552987  0  2.361072  0
O  O89  1  0.31887637  0.59095607  0.47794910  1  -1.165339  0  -0.309353  -0.520585  0  2.302141  0
O  O90  1  0.52048002  0.67994492  0.09834645  1  -1.107613  0  -0.348845  -0.435258  0  2.265039  0
O  O91  1  0.62071009  0.10633539  0.59518010  1  -1.13919  0  -0.330698  -0.387954  0  2.288319  0
O  O92  1  0.70394802  0.87086428  0.59919654  1  -1.12957  0  -0.327719  -0.392595  0  2.264142  0
O  O93  1  0.69647660  0.70517614  0.58495429  1  -1.167786  0  -0.347658  -0.49107  0  2.310861  0
O  O94  1  0.34477323  0.30716111  0.39618669  1  -1.068024  0  -0.160648  -0.194652  0  2.529687  0
O  O95  1  0.35217102  0.90461226  0.43754573  1  -1.133041  0  -0.346214  -0.403672  0  2.290064  0
O  O96  1  0.08780861  0.47635342  0.57247839  1  -1.130568  0  -0.327638  -0.395765  0  2.349061  0
O  O97  1  0.86242076  0.64329442  0.45007757  1  -1.091748  0  -0.348997  -0.4294  0  2.286919  0
O  O98  1  0.92297326  0.42107385  0.47093057  1  -1.038656  0  -0.195606  -0.188652  0  2.56203  0
O  O99  1  0.60450650  0.37522438  0.26826173  1  -1.063074  0  -0.206737  -0.220048  0  2.504224  0
O  O100  1  0.59788496  0.38217580  0.10867711  1  -1.137242  0  -0.335967  -0.39102  0  2.318899  0
O  O101  1  0.39987502  0.36456836  0.91794298  1  -1.052976  0  -0.208142  -0.224754  0  2.471851  0
O  O102  1  0.39661315  0.35810778  0.75692076  1  -1.169178  0  -0.362373  -0.435945  0  2.268166  0
