# generated using pymatgen
data_AgH8C16SN2O4F3
_symmetry_space_group_name_H-M   'P 1'
_cell_length_a   8.65084018
_cell_length_b   10.31755962
_cell_length_c   10.84406403
_cell_angle_alpha   82.02413259
_cell_angle_beta   69.26345094
_cell_angle_gamma   67.51494647
_symmetry_Int_Tables_number   1
_chemical_formula_structural   AgH8C16SN2O4F3
_chemical_formula_sum   'Ag2 H16 C32 S2 N4 O8 F6'
_cell_volume   836.37179055
_cell_formula_units_Z   2
loop_
 _symmetry_equiv_pos_site_id
 _symmetry_equiv_pos_as_xyz
  1  'x, y, z'
loop_
 _atom_site_type_symbol
 _atom_site_label
 _atom_site_symmetry_multiplicity
 _atom_site_fract_x
 _atom_site_fract_y
 _atom_site_fract_z
 _atom_site_occupancy
 _atom_site_hle17_bader_spin_density
 _atom_site_hle17_ddec_charge
 _atom_site_hle17_ddec_spin_density
 _atom_site_hle17_ddec_sum_bond_order
 _atom_site_hle17_magmom
 _atom_site_hse06_10hf_bader_spin_density
 _atom_site_hse06_10hf_ddec_charge
 _atom_site_hse06_10hf_ddec_spin_density
 _atom_site_hse06_10hf_ddec_sum_bond_order
 _atom_site_hse06_10hf_magmom
 _atom_site_hse06_bader_spin_density
 _atom_site_hse06_ddec_charge
 _atom_site_hse06_ddec_spin_density
 _atom_site_hse06_ddec_sum_bond_order
 _atom_site_hse06_magmom
 _atom_site_pbe_bader_spin_density
 _atom_site_pbe_cm5_charge
 _atom_site_pbe_ddec_charge
 _atom_site_pbe_ddec_spin_density
 _atom_site_pbe_ddec_sum_bond_order
 _atom_site_pbe_magmom
Ag  Ag0  1  0.46964468  0.32568002  0.52949370  1  0  0.730447  0  1.448382  0  0  0.628563  0  1.912399  0  0  0.644658  0  1.866515  0  0  0.555878  0.617768  0  1.943042  0
Ag  Ag1  1  0.53035190  0.67431733  0.47050929  1  0  0.730435  0  1.448363  0  0  0.628544  0  1.912373  0  0  0.64464  0  1.86649  0  0  0.555884  0.617745  0  1.943013  0
H  H2  1  0.34151176  0.19601068  0.24935348  1  0  0.119551  0  0.935336  0  0  0.128807  0  0.994504  0  0  0.132119  0  0.993073  0  0  0.111971  0.126118  0  0.996112  0
H  H3  1  0.65849102  0.80398671  0.75064950  1  0  0.11955  0  0.935371  0  0  0.128811  0  0.994535  0  0  0.13212  0  0.993109  0  0  0.111988  0.126121  0  0.996146  0
H  H4  1  0.30752628  0.26723439  0.03155544  1  0  0.117557  0  0.961685  0  0  0.12249  0  1.028727  0  0  0.126435  0  1.025589  0  0  0.104095  0.119784  0  1.030846  0
H  H5  1  0.69247433  0.73277035  0.96844811  1  0  0.117537  0  0.96168  0  0  0.122486  0  1.028706  0  0  0.126429  0  1.02557  0  0  0.1041  0.11978  0  1.030828  0
H  H6  1  0.86372594  0.02092822  0.84454176  1  0  0.122118  0  0.964398  0  0  0.131637  0  1.023875  0  0  0.134858  0  1.022681  0  0  0.109165  0.129148  0  1.024934  0
H  H7  1  0.13627426  0.97907444  0.15545666  1  0  0.122109  0  0.964429  0  0  0.131655  0  1.023881  0  0  0.134879  0  1.022675  0  0  0.109174  0.129168  0  1.024938  0
H  H8  1  0.89358618  0.94980664  0.06352181  1  0  0.101095  0  0.961569  0  0  0.111171  0  1.024049  0  0  0.113362  0  1.024147  0  0  0.105636  0.109511  0  1.024189  0
H  H9  1  0.10641472  0.05019182  0.93647605  1  0  0.10109  0  0.961637  0  0  0.111192  0  1.024072  0  0  0.113383  0  1.02417  0  0  0.105643  0.109532  0  1.024211  0
H  H10  1  0.78040846  0.77548424  0.19191958  1  0  0.096735  0  0.965941  0  0  0.105404  0  1.029841  0  0  0.107549  0  1.029593  0  0  0.101226  0.10394  0  1.029986  0
H  H11  1  0.21958905  0.22451629  0.80808085  1  0  0.096734  0  0.965947  0  0  0.105398  0  1.029858  0  0  0.107544  0  1.029609  0  0  0.101215  0.103933  0  1.030001  0
H  H12  1  0.00851355  0.56349291  0.24384523  1  0  0.123056  0  0.962764  0  0  0.13034  0  1.025151  0  0  0.134284  0  1.022079  0  0  0.106788  0.127442  0  1.027362  0
H  H13  1  0.99148037  0.43650756  0.75615997  1  0  0.123002  0  0.962796  0  0  0.13025  0  1.025227  0  0  0.134191  0  1.022162  0  0  0.106763  0.127354  0  1.02744  0
H  H14  1  0.04762327  0.80418069  0.52024440  1  0  0.106337  0  0.963246  0  0  0.114973  0  1.027766  0  0  0.118269  0  1.025523  0  0  0.106658  0.112614  0  1.029412  0
H  H15  1  0.95237628  0.19582617  0.47975641  1  0  0.106376  0  0.963207  0  0  0.115031  0  1.02771  0  0  0.118328  0  1.025463  0  0  0.106679  0.112676  0  1.029351  0
H  H16  1  0.80582372  0.01362329  0.47531524  1  0  0.102831  0  0.941411  0  0  0.111107  0  1.005133  0  0  0.114413  0  1.003167  0  0  0.108145  0.108735  0  1.006678  0
H  H17  1  0.19417079  0.98637826  0.52468411  1  0  0.102767  0  0.941318  0  0  0.111053  0  1.00505  0  0  0.114359  0  1.003084  0  0  0.10813  0.108679  0  1.006595  0
C  C18  1  0.63501011  0.03569004  0.30627739  1  0  0.405062  0  3.687565  0  0  0.384614  0  3.944912  0  0  0.406355  0  3.946597  0  0  0.171354  0.370494  0  3.943214  0
C  C19  1  0.36499139  0.96430735  0.69372412  1  0  0.405003  0  3.687594  0  0  0.384562  0  3.944948  0  0  0.406304  0  3.946631  0  0  0.171342  0.370442  0  3.943251  0
C  C20  1  0.61933628  0.06787198  0.17150335  1  0  -0.017413  0  3.726062  0  0  -0.002367  0  3.962096  0  0  -0.006329  0  3.984925  0  0  -0.005603  0.000135  0  3.946507  0
C  C21  1  0.38066595  0.93212647  0.82849780  1  0  -0.01735  0  3.726061  0  0  -0.002314  0  3.962118  0  0  -0.006277  0  3.984945  0  0  -0.005648  0.000188  0  3.946532  0
C  C22  1  0.45508367  0.15761391  0.16060251  1  0  -0.04836  0  3.675655  0  0  -0.072429  0  3.924234  0  0  -0.073962  0  3.944292  0  0  -0.069173  -0.071371  0  3.910867  0
C  C23  1  0.54491887  0.84238664  0.83940012  1  0  -0.048424  0  3.675931  0  0  -0.072504  0  3.924535  0  0  -0.074035  0  3.94459  0  0  -0.069226  -0.071444  0  3.911173  0
C  C24  1  0.43616830  0.19862544  0.03774289  1  0  -0.07134  0  3.677217  0  0  -0.095678  0  3.928559  0  0  -0.096743  0  3.94762  0  0  -0.070134  -0.094715  0  3.915343  0
C  C25  1  0.56383003  0.80137613  0.96225993  1  0  -0.071267  0  3.677416  0  0  -0.095604  0  3.928734  0  0  -0.09667  0  3.947797  0  0  -0.070065  -0.094642  0  3.915522  0
C  C26  1  0.58484865  0.15155244  0.92330959  1  0  0.016548  0  3.867627  0  0  0.036633  0  4.100663  0  0  0.033531  0  4.122753  0  0  0.006045  0.038442  0  4.08567  0
C  C27  1  0.41515434  0.84845234  0.07669049  1  0  0.01649  0  3.867352  0  0  0.036587  0  4.100396  0  0  0.033484  0  4.122491  0  0  0.00605  0.038396  0  4.085401  0
C  C28  1  0.74988869  0.06074365  0.93275276  1  0  -0.076066  0  3.680474  0  0  -0.098249  0  3.925132  0  0  -0.099632  0  3.944902  0  0  -0.071954  -0.096969  0  3.911691  0
C  C29  1  0.25011320  0.93925798  0.06724438  1  0  -0.07607  0  3.680501  0  0  -0.098282  0  3.925159  0  0  -0.099666  0  3.944936  0  0  -0.071987  -0.096998  0  3.911714  0
C  C30  1  0.76536444  0.01901474  0.05665570  1  0  -0.066709  0  3.702172  0  0  -0.090483  0  3.955682  0  0  -0.092915  0  3.977602  0  0  -0.075778  -0.088917  0  3.940981  0
C  C31  1  0.23463600  0.98098476  0.94334308  1  0  -0.066743  0  3.702208  0  0  -0.090525  0  3.955715  0  0  -0.092956  0  3.977636  0  0  -0.07577  -0.088957  0  3.941012  0
C  C32  1  0.56879972  0.19555784  0.79675352  1  0  0.33644  0  3.697023  0  0  0.318797  0  3.955353  0  0  0.332279  0  3.972969  0  0  0.226941  0.309748  0  3.943316  0
C  C33  1  0.43120697  0.80444483  0.20325497  1  0  0.33645  0  3.697445  0  0  0.318799  0  3.955774  0  0  0.332275  0  3.973392  0  0  0.226922  0.309753  0  3.943733  0
C  C34  1  0.78023670  0.90887505  0.32927892  1  0  -0.002727  0  3.718634  0  0  0.012092  0  3.95316  0  0  0.009155  0  3.973602  0  0  -0.002146  0.013963  0  3.939217  0
C  C35  1  0.21976034  0.09112125  0.67072315  1  0  -0.002794  0  3.718588  0  0  0.012028  0  3.953123  0  0  0.009088  0  3.973567  0  0  -0.002125  0.013897  0  3.939179  0
C  C36  1  0.83788829  0.78229268  0.26403422  1  0  -0.101975  0  3.765355  0  0  -0.126276  0  4.02913  0  0  -0.127458  0  4.047799  0  0  -0.085544  -0.125309  0  4.016348  0
C  C37  1  0.16211043  0.21770786  0.73596493  1  0  -0.101962  0  3.765401  0  0  -0.12626  0  4.029179  0  0  -0.127441  0  4.047843  0  0  -0.085549  -0.125291  0  4.016395  0
C  C38  1  0.96762127  0.66318484  0.29122229  1  0  -0.073605  0  3.700228  0  0  -0.100429  0  3.954245  0  0  -0.100782  0  3.97111  0  0  -0.073608  -0.099835  0  3.942543  0
C  C39  1  0.03237438  0.33681460  0.70878253  1  0  -0.07358  0  3.70026  0  0  -0.100386  0  3.954311  0  0  -0.100732  0  3.971173  0  0  -0.073603  -0.099795  0  3.942615  0
C  C40  1  0.04414628  0.67237323  0.38256392  1  0  0.026706  0  3.861311  0  0  0.046209  0  4.091358  0  0  0.043513  0  4.114192  0  0  0.007972  0.047991  0  4.075912  0
C  C41  1  0.95584566  0.32763144  0.61744038  1  0  0.026842  0  3.861306  0  0  0.046341  0  4.091364  0  0  0.043637  0  4.114198  0  0  0.008001  0.048121  0  4.07592  0
C  C42  1  0.98709118  0.79898774  0.44947602  1  0  -0.077117  0  3.682526  0  0  -0.098227  0  3.924702  0  0  -0.100349  0  3.94571  0  0  -0.070869  -0.096731  0  3.910553  0
C  C43  1  0.01290719  0.20101909  0.55052699  1  0  -0.077316  0  3.682513  0  0  -0.098439  0  3.924702  0  0  -0.10056  0  3.94571  0  0  -0.070916  -0.096942  0  3.910548  0
C  C44  1  0.85369960  0.91517454  0.42399822  1  0  -0.035947  0  3.676703  0  0  -0.056637  0  3.92147  0  0  -0.057926  0  3.941465  0  0  -0.06755  -0.055716  0  3.907922  0
C  C45  1  0.14629694  0.08482809  0.57600222  1  0  -0.035715  0  3.676454  0  0  -0.056406  0  3.921221  0  0  -0.057693  0  3.941219  0  0  -0.067509  -0.055488  0  3.907678  0
C  C46  1  0.17896401  0.55089490  0.40757319  1  0  0.336  0  3.684205  0  0  0.321645  0  3.936454  0  0  0.333455  0  3.954827  0  0  0.226621  0.313312  0  3.924258  0
C  C47  1  0.82103676  0.44911197  0.59242727  1  0  0.335894  0  3.684078  0  0  0.32154  0  3.936332  0  0  0.333353  0  3.954704  0  0  0.226557  0.313207  0  3.924138  0
C  C48  1  0.78822501  0.39970670  0.11156568  1  0  0.597669  0  3.669829  0  0  0.53112  0  4.031924  0  0  0.560173  0  4.002743  0  0  0.286947  0.510578  0  4.052626  0
C  C49  1  0.21178440  0.60028132  0.88842829  1  0  0.597744  0  3.670114  0  0  0.531145  0  4.032245  0  0  0.560222  0  4.003035  0  0  0.286899  0.510601  0  4.052947  0
S  S50  1  0.87064816  0.31296752  0.25031805  1  0  1.121165  0  5.857627  0  0  1.021392  0  6.393362  0  0  1.065629  0  6.372343  0  0  0.481572  0.99128  0  6.406349  0
S  S51  1  0.12935185  0.68702775  0.74968420  1  0  1.121048  0  5.857663  0  0  1.021248  0  6.393431  0  0  1.065482  0  6.372404  0  0  0.481556  0.991143  0  6.406416  0
N  N52  1  0.55406061  0.23247335  0.69344636  1  0  -0.443432  0  2.963126  0  0  -0.394164  0  3.276609  0  0  -0.409128  0  3.279475  0  0  -0.342517  -0.38417  0  3.274467  0
N  N53  1  0.44593533  0.76753560  0.30654971  1  0  -0.443349  0  2.963818  0  0  -0.394081  0  3.277299  0  0  -0.409041  0  3.280168  0  0  -0.342468  -0.384087  0  3.27515  0
N  N54  1  0.28820918  0.45007271  0.42802480  1  0  -0.413534  0  2.925827  0  0  -0.364284  0  3.221014  0  0  -0.37857  0  3.225801  0  0  -0.335664  -0.354802  0  3.217853  0
N  N55  1  0.71177634  0.54993507  0.57198006  1  0  -0.41348  0  2.925652  0  0  -0.364227  0  3.220844  0  0  -0.378517  0  3.225639  0  0  -0.335632  -0.354745  0  3.217685  0
O  O56  1  0.52609860  0.11427974  0.39907432  1  0  -0.467147  0  2.046968  0  0  -0.426423  0  2.30088  0  0  -0.44353  0  2.294102  0  0  -0.251899  -0.415045  0  2.305369  0
O  O57  1  0.47389837  0.88572184  0.60092429  1  0  -0.467139  0  2.047052  0  0  -0.426409  0  2.300957  0  0  -0.443516  0  2.294178  0  0  -0.251901  -0.41502  0  2.305423  0
O  O58  1  0.72371453  0.38600538  0.36573240  1  0  -0.671331  0  2.149845  0  0  -0.632655  0  2.461271  0  0  -0.651736  0  2.442496  0  0  -0.349133  -0.61917  0  2.473136  0
O  O59  1  0.27628241  0.61399094  0.63426601  1  0  -0.671284  0  2.149809  0  0  -0.6326  0  2.461244  0  0  -0.651677  0  2.442471  0  0  -0.349102  -0.619119  0  2.473106  0
O  O60  1  0.03121331  0.34287742  0.22240820  1  0  -0.592855  0  1.977184  0  0  -0.557593  0  2.221447  0  0  -0.576899  0  2.209586  0  0  -0.332201  -0.543689  0  2.228703  0
O  O61  1  0.96878472  0.65712205  0.77759314  1  0  -0.592857  0  1.9772  0  0  -0.557562  0  2.221452  0  0  -0.57687  0  2.209591  0  0  -0.332188  -0.543651  0  2.228679  0
O  O62  1  0.89693911  0.16612061  0.24088600  1  0  -0.609759  0  2.028891  0  0  -0.572631  0  2.283848  0  0  -0.593041  0  2.274616  0  0  -0.331177  -0.557829  0  2.28933  0
O  O63  1  0.10306333  0.83387254  0.75912319  1  0  -0.609701  0  2.028824  0  0  -0.57261  0  2.283854  0  0  -0.593018  0  2.274621  0  0  -0.331219  -0.557799  0  2.289307  0
F  F64  1  0.78385237  0.53435041  0.09636169  1  0  -0.242869  0  1.216408  0  0  -0.194248  0  1.382075  0  0  -0.207694  0  1.370027  0  0  -0.09273  -0.187051  0  1.393176  0
F  F65  1  0.21618559  0.46563159  0.90361631  1  0  -0.243047  0  1.216683  0  0  -0.194327  0  1.382293  0  0  -0.207796  0  1.370254  0  0  -0.092748  -0.187131  0  1.393395  0
F  F66  1  0.89713895  0.33105349  0.99654212  1  0  -0.228416  0  1.220088  0  0  -0.191189  0  1.399537  0  0  -0.201184  0  1.384438  0  0  -0.092205  -0.183535  0  1.409715  0
F  F67  1  0.10285190  0.66891856  0.00345676  1  0  -0.228342  0  1.220153  0  0  -0.19112  0  1.399616  0  0  -0.201118  0  1.384511  0  0  -0.092116  -0.183469  0  1.409795  0
F  F68  1  0.62289084  0.40333733  0.13152748  1  0  -0.218696  0  1.182455  0  0  -0.183031  0  1.345271  0  0  -0.192155  0  1.330716  0  0  -0.097128  -0.176162  0  1.3555  0
F  F69  1  0.37710907  0.59667377  0.86846804  1  0  -0.218669  0  1.182397  0  0  -0.183015  0  1.345223  0  0  -0.19214  0  1.330668  0  0  -0.097131  -0.176144  0  1.355457  0
