# generated using pymatgen
data_ZnH16C24Br2(NO3)2
_symmetry_space_group_name_H-M   'P 1'
_cell_length_a   8.76957585
_cell_length_b   11.40007762
_cell_length_c   13.76650075
_cell_angle_alpha   95.18652826
_cell_angle_beta   108.57760469
_cell_angle_gamma   112.61043822
_symmetry_Int_Tables_number   1
_chemical_formula_structural   ZnH16C24Br2(NO3)2
_chemical_formula_sum   'Zn2 H32 C48 Br4 N4 O12'
_cell_volume   1168.12249577
_cell_formula_units_Z   2
loop_
 _symmetry_equiv_pos_site_id
 _symmetry_equiv_pos_as_xyz
  1  'x, y, z'
loop_
 _atom_site_type_symbol
 _atom_site_label
 _atom_site_symmetry_multiplicity
 _atom_site_fract_x
 _atom_site_fract_y
 _atom_site_fract_z
 _atom_site_occupancy
 _atom_site_hle17_bader_spin_density
 _atom_site_hle17_ddec_charge
 _atom_site_hle17_ddec_spin_density
 _atom_site_hle17_ddec_sum_bond_order
 _atom_site_hle17_magmom
 _atom_site_hse06_10hf_bader_spin_density
 _atom_site_hse06_10hf_ddec_charge
 _atom_site_hse06_10hf_ddec_spin_density
 _atom_site_hse06_10hf_ddec_sum_bond_order
 _atom_site_hse06_10hf_magmom
 _atom_site_hse06_bader_spin_density
 _atom_site_hse06_ddec_charge
 _atom_site_hse06_ddec_spin_density
 _atom_site_hse06_ddec_sum_bond_order
 _atom_site_hse06_magmom
 _atom_site_pbe_bader_spin_density
 _atom_site_pbe_cm5_charge
 _atom_site_pbe_ddec_charge
 _atom_site_pbe_ddec_spin_density
 _atom_site_pbe_ddec_sum_bond_order
 _atom_site_pbe_magmom
Zn  Zn0  1  0.35617333  0.24993366  0.25005892  1  0  1.00329  0  1.798487  0  0  0.804952  0  2.255783  0  0  0.854996  0  2.203279  0  0  0.696293  0.770059  0  2.29179  0
Zn  Zn1  1  0.64383296  0.75006547  0.74994590  1  0  1.003305  0  1.798463  0  0  0.804998  0  2.255763  0  0  0.855042  0  2.203259  0  0  0.696338  0.770103  0  2.291769  0
H  H2  1  0.10248601  0.73232706  0.65655849  1  0  0.114998  0  0.934366  0  0  0.127669  0  0.989639  0  0  0.131129  0  0.988607  0  0  0.106992  0.125133  0  0.990556  0
H  H3  1  0.21395852  0.76733933  0.84360405  1  0  0.115081  0  0.933516  0  0  0.127453  0  0.989204  0  0  0.130982  0  0.988088  0  0  0.106812  0.124974  0  0.990136  0
H  H4  1  0.89751024  0.26767904  0.34345146  1  0  0.11509  0  0.934356  0  0  0.127756  0  0.989613  0  0  0.131186  0  0.988613  0  0  0.107021  0.125227  0  0.99052  0
H  H5  1  0.78604210  0.23267015  0.15639007  1  0  0.115117  0  0.933316  0  0  0.127455  0  0.989059  0  0  0.130985  0  0.98794  0  0  0.1068  0.124977  0  0.989992  0
H  H6  1  0.30769057  0.85590203  0.57572053  1  0  0.124348  0  0.965092  0  0  0.13227  0  1.02905  0  0  0.136346  0  1.024953  0  0  0.10343  0.12929  0  1.032045  0
H  H7  1  0.37664371  0.64406582  0.92476286  1  0  0.123645  0  0.966364  0  0  0.132205  0  1.029667  0  0  0.136187  0  1.02576  0  0  0.103989  0.129368  0  1.03238  0
H  H8  1  0.69231462  0.14410717  0.42429449  1  0  0.124379  0  0.965003  0  0  0.132299  0  1.028944  0  0  0.136375  0  1.024847  0  0  0.103421  0.129314  0  1.031941  0
H  H9  1  0.62335527  0.35593761  0.07522502  1  0  0.123748  0  0.966298  0  0  0.132302  0  1.029608  0  0  0.136286  0  1.025696  0  0  0.104014  0.129465  0  1.032321  0
H  H10  1  0.92351474  0.60786341  0.26748835  1  0  0.100859  0  0.963412  0  0  0.109891  0  1.030464  0  0  0.113772  0  1.026365  0  0  0.096872  0.107067  0  1.033455  0
H  H11  1  0.54821902  0.89247848  0.23280367  1  0  0.100826  0  0.962874  0  0  0.110161  0  1.029554  0  0  0.114042  0  1.025483  0  0  0.097174  0.107378  0  1.032499  0
H  H12  1  0.07650923  0.39214761  0.73252303  1  0  0.100758  0  0.963479  0  0  0.109864  0  1.030458  0  0  0.113746  0  1.026359  0  0  0.096852  0.10704  0  1.033449  0
H  H13  1  0.45178896  0.10751631  0.76718809  1  0  0.100776  0  0.962842  0  0  0.110162  0  1.029491  0  0  0.114046  0  1.025413  0  0  0.097163  0.10734  0  1.032473  0
H  H14  1  0.99390676  0.03812847  0.21103890  1  0  0.093855  0  0.958204  0  0  0.100165  0  1.023296  0  0  0.103816  0  1.019416  0  0  0.11757  0.097417  0  1.02623  0
H  H15  1  0.24514581  0.46218793  0.28899404  1  0  0.093552  0  0.958403  0  0  0.100259  0  1.023268  0  0  0.103811  0  1.019488  0  0  0.117594  0.097551  0  1.02612  0
H  H16  1  0.00608530  0.96187602  0.78895125  1  0  0.09385  0  0.958353  0  0  0.100268  0  1.023292  0  0  0.103921  0  1.019408  0  0  0.117663  0.097518  0  1.026229  0
H  H17  1  0.75487376  0.53781381  0.71100151  1  0  0.093464  0  0.958318  0  0  0.100202  0  1.023164  0  0  0.103754  0  1.019384  0  0  0.117564  0.097512  0  1.026003  0
H  H18  1  0.83331663  0.91689771  0.31404443  1  0  0.096448  0  0.987036  0  0  0.104792  0  1.05408  0  0  0.107765  0  1.053015  0  0  0.101267  0.102586  0  1.05511  0
H  H19  1  0.10262003  0.58329076  0.18591525  1  0  0.096333  0  0.986924  0  0  0.104331  0  1.05434  0  0  0.107317  0  1.053263  0  0  0.101007  0.102162  0  1.055241  0
H  H20  1  0.16665145  0.08309180  0.68593428  1  0  0.096336  0  0.987253  0  0  0.104803  0  1.05416  0  0  0.107787  0  1.053108  0  0  0.101275  0.102593  0  1.055204  0
H  H21  1  0.89738690  0.41670331  0.81408397  1  0  0.096298  0  0.986921  0  0  0.104287  0  1.054353  0  0  0.107272  0  1.053277  0  0  0.100991  0.102119  0  1.055254  0
H  H22  1  0.29700658  0.16631678  0.59720788  1  0  0.101842  0  0.965757  0  0  0.109911  0  1.031359  0  0  0.113369  0  1.029622  0  0  0.104712  0.10742  0  1.032768  0
H  H23  1  0.03414041  0.33384623  0.90285895  1  0  0.101902  0  0.964841  0  0  0.110317  0  1.030155  0  0  0.113713  0  1.028475  0  0  0.104929  0.107846  0  1.031572  0
H  H24  1  0.70294914  0.83366534  0.40278286  1  0  0.10181  0  0.965768  0  0  0.109873  0  1.031407  0  0  0.113333  0  1.029667  0  0  0.104691  0.107379  0  1.032823  0
H  H25  1  0.96582551  0.66613597  0.09713458  1  0  0.101843  0  0.964975  0  0  0.110316  0  1.030194  0  0  0.113697  0  1.02853  0  0  0.10497  0.10787  0  1.031584  0
H  H26  1  0.44196178  0.27016690  0.48108371  1  0  0.087011  0  0.939719  0  0  0.097903  0  0.998054  0  0  0.100712  0  0.995148  0  0  0.121188  0.09583  0  1.000206  0
H  H27  1  0.19121136  0.22998642  0.01905992  1  0  0.08712  0  0.937975  0  0  0.097442  0  0.99691  0  0  0.10036  0  0.993872  0  0  0.120609  0.095326  0  0.999065  0
H  H28  1  0.55802291  0.72981854  0.51891965  1  0  0.08715  0  0.939527  0  0  0.097966  0  0.997902  0  0  0.100777  0  0.994993  0  0  0.121192  0.095895  0  1.000055  0
H  H29  1  0.80878403  0.77000841  0.98093254  1  0  0.087105  0  0.938021  0  0  0.097488  0  0.996896  0  0  0.100405  0  0.993863  0  0  0.120629  0.095368  0  0.999053  0
H  H30  1  0.67333210  0.47219976  0.49455768  1  0  0.382492  0  0.902184  0  0  0.355643  0  0.976091  0  0  0.367623  0  0.962735  0  0  0.29979  0.347185  0  0.98543  0
H  H31  1  0.20631607  0.02757051  0.00528393  1  0  0.382493  0  0.902092  0  0  0.355718  0  0.975818  0  0  0.367675  0  0.962512  0  0  0.299595  0.3473  0  0.985083  0
H  H32  1  0.32666664  0.52780405  0.50544152  1  0  0.382357  0  0.902356  0  0  0.355553  0  0.976179  0  0  0.367526  0  0.962839  0  0  0.299751  0.347094  0  0.985516  0
H  H33  1  0.79370333  0.97244130  0.99472156  1  0  0.38246  0  0.902008  0  0  0.355666  0  0.975805  0  0  0.36763  0  0.962479  0  0  0.29959  0.347244  0  0.985073  0
C  C34  1  0.84666885  0.56778280  0.39795074  1  0  -0.208254  0  3.78487  0  0  -0.186454  0  4.022684  0  0  -0.20089  0  4.046538  0  0  -0.04298  -0.177381  0  4.006858  0
C  C35  1  0.38076714  0.93215848  0.10211866  1  0  -0.203826  0  3.780741  0  0  -0.183412  0  4.019814  0  0  -0.197779  0  4.043598  0  0  -0.040524  -0.174166  0  4.004006  0
C  C36  1  0.15334257  0.43222406  0.60205249  1  0  -0.208279  0  3.784685  0  0  -0.186421  0  4.022493  0  0  -0.200855  0  4.046351  0  0  -0.042903  -0.177348  0  4.006666  0
C  C37  1  0.61923891  0.06784237  0.89787939  1  0  -0.203794  0  3.78104  0  0  -0.183264  0  4.019978  0  0  -0.197623  0  4.043749  0  0  -0.040467  -0.17402  0  4.00416  0
C  C38  1  0.89502045  0.60396481  0.50853856  1  0  0.331949  0  3.797213  0  0  0.313727  0  4.063403  0  0  0.328341  0  4.079504  0  0  0.087162  0.304039  0  4.051791  0
C  C39  1  0.28250976  0.89588872  0.99150081  1  0  0.329764  0  3.797401  0  0  0.312585  0  4.062639  0  0  0.327169  0  4.078743  0  0  0.085983  0.302867  0  4.051433  0
C  C40  1  0.10498063  0.39604015  0.49146596  1  0  0.33207  0  3.796995  0  0  0.313747  0  4.063338  0  0  0.328361  0  4.079429  0  0  0.08709  0.304058  0  4.051729  0
C  C41  1  0.71749104  0.10411504  0.00849689  1  0  0.32979  0  3.79744  0  0  0.312482  0  4.062776  0  0  0.327064  0  4.078885  0  0  0.086037  0.302766  0  4.051569  0
C  C42  1  0.06295176  0.70682394  0.57118808  1  0  -0.169851  0  3.707912  0  0  -0.188481  0  3.967216  0  0  -0.196736  0  3.987613  0  0  -0.102786  -0.182948  0  3.952974  0
C  C43  1  0.28509773  0.79298769  0.92901906  1  0  -0.169629  0  3.707105  0  0  -0.188089  0  3.96594  0  0  -0.196351  0  3.986255  0  0  -0.102937  -0.182775  0  3.952212  0
C  C44  1  0.93704895  0.29317631  0.42882143  1  0  -0.169992  0  3.708099  0  0  -0.188542  0  3.967337  0  0  -0.196787  0  3.98777  0  0  -0.102765  -0.183012  0  3.95309  0
C  C45  1  0.71490118  0.20701793  0.07097608  1  0  -0.169671  0  3.707127  0  0  -0.188076  0  3.966015  0  0  -0.196342  0  3.986334  0  0  -0.10297  -0.182762  0  3.952287  0
C  C46  1  0.17843661  0.77633448  0.52537476  1  0  -0.077972  0  3.745918  0  0  -0.105871  0  4.004057  0  0  -0.102476  0  4.021302  0  0  -0.094112  -0.107759  0  3.991944  0
C  C47  1  0.37712907  0.72364797  0.97500373  1  0  -0.077481  0  3.745123  0  0  -0.10622  0  4.003188  0  0  -0.102743  0  4.020382  0  0  -0.09319  -0.108083  0  3.991263  0
C  C48  1  0.82157015  0.22366396  0.47463896  1  0  -0.078066  0  3.745873  0  0  -0.105916  0  4.004061  0  0  -0.102522  0  4.021295  0  0  -0.09405  -0.1078  0  3.991946  0
C  C49  1  0.62286727  0.27635162  0.02498544  1  0  -0.07763  0  3.745423  0  0  -0.106376  0  4.003466  0  0  -0.102896  0  4.020659  0  0  -0.093188  -0.10824  0  3.991544  0
C  C50  1  0.12709869  0.74214571  0.41576172  1  0  0.054316  0  3.754243  0  0  0.069768  0  4.028551  0  0  0.068836  0  4.05105  0  0  -0.0356  0.070022  0  4.013063  0
C  C51  1  0.46973774  0.75808751  0.08461065  1  0  0.052715  0  3.75444  0  0  0.06843  0  4.028365  0  0  0.067507  0  4.050845  0  0  -0.037919  0.068722  0  4.013182  0
C  C52  1  0.87292190  0.25785867  0.58425484  1  0  0.054501  0  3.753917  0  0  0.069826  0  4.028426  0  0  0.068896  0  4.050925  0  0  -0.035663  0.07008  0  4.012935  0
C  C53  1  0.53025964  0.24190142  0.91538019  1  0  0.052713  0  3.754283  0  0  0.068463  0  4.028168  0  0  0.06754  0  4.050645  0  0  -0.037859  0.068755  0  4.012977  0
C  C54  1  0.96463266  0.63820006  0.35262398  1  0  -0.096523  0  3.782983  0  0  -0.13176  0  4.036615  0  0  -0.127671  0  4.054339  0  0  -0.096094  -0.134166  0  4.024645  0
C  C55  1  0.47397027  0.86198524  0.14763030  1  0  -0.098513  0  3.782493  0  0  -0.13392  0  4.036575  0  0  -0.129822  0  4.054253  0  0  -0.098008  -0.136335  0  4.02452  0
C  C56  1  0.03538768  0.36180604  0.64738582  1  0  -0.096477  0  3.782895  0  0  -0.131762  0  4.036594  0  0  -0.127664  0  4.054294  0  0  -0.096058  -0.13417  0  4.02463  0
C  C57  1  0.52603166  0.13800568  0.85236181  1  0  -0.098411  0  3.782368  0  0  -0.133906  0  4.036386  0  0  -0.12981  0  4.054059  0  0  -0.098031  -0.136286  0  4.024354  0
C  C58  1  0.67641370  0.45462556  0.32879005  1  0  0.64252  0  3.916431  0  0  0.59188  0  4.204168  0  0  0.626916  0  4.197124  0  0  0.194578  0.568094  0  4.208297  0
C  C59  1  0.39230009  0.04519804  0.17116282  1  0  0.641877  0  3.918204  0  0  0.591374  0  4.20612  0  0  0.626384  0  4.199086  0  0  0.195329  0.567602  0  4.21023  0
C  C60  1  0.32359874  0.54538529  0.67121611  1  0  0.642625  0  3.916664  0  0  0.592004  0  4.204364  0  0  0.627032  0  4.197325  0  0  0.194636  0.568218  0  4.208493  0
C  C61  1  0.60772078  0.95480228  0.82884858  1  0  0.641845  0  3.918224  0  0  0.591415  0  4.206005  0  0  0.626423  0  4.198973  0  0  0.195379  0.567643  0  4.210113  0
C  C62  1  0.05692612  0.06217343  0.29695268  1  0  0.132227  0  3.690494  0  0  0.098955  0  3.94426  0  0  0.106657  0  3.960412  0  0  0.049644  0.094077  0  3.933224  0
C  C63  1  0.19824947  0.43810428  0.20309593  1  0  0.131389  0  3.694107  0  0  0.097146  0  3.94823  0  0  0.104913  0  3.964485  0  0  0.048688  0.092181  0  3.937157  0
C  C64  1  0.94306255  0.93782533  0.70304111  1  0  0.132182  0  3.690463  0  0  0.098827  0  3.944279  0  0  0.106529  0  3.96043  0  0  0.049569  0.09395  0  3.933243  0
C  C65  1  0.80176921  0.56189854  0.79690302  1  0  0.131546  0  3.694071  0  0  0.09728  0  3.948203  0  0  0.105049  0  3.964455  0  0  0.048698  0.092299  0  3.937131  0
C  C66  1  0.96662756  0.99629431  0.35627136  1  0  -0.141608  0  3.689298  0  0  -0.16033  0  3.936302  0  0  -0.168312  0  3.957968  0  0  -0.07695  -0.155226  0  3.921405  0
C  C67  1  0.11440949  0.50390837  0.14372763  1  0  -0.140851  0  3.69125  0  0  -0.159077  0  3.937681  0  0  -0.167088  0  3.959449  0  0  -0.075857  -0.153768  0  3.922982  0
C  C68  1  0.03334762  0.00369938  0.64371608  1  0  -0.141419  0  3.689296  0  0  -0.160336  0  3.936209  0  0  -0.168346  0  3.9579  0  0  -0.076938  -0.155233  0  3.921316  0
C  C69  1  0.88559958  0.49609350  0.85627178  1  0  -0.14087  0  3.691433  0  0  -0.159079  0  3.937865  0  0  -0.167094  0  3.95964  0  0  -0.075854  -0.153768  0  3.923168  0
C  C70  1  0.04741013  0.03225708  0.46703677  1  0  0.102053  0  3.734468  0  0  0.114398  0  3.960204  0  0  0.118269  0  3.982642  0  0  0.019262  0.112368  0  3.9439  0
C  C71  1  0.04838382  0.46785289  0.03295101  1  0  0.103239  0  3.731787  0  0  0.115928  0  3.956874  0  0  0.119802  0  3.979269  0  0  0.019731  0.113523  0  3.941624  0
C  C72  1  0.95256300  0.96773573  0.53295372  1  0  0.101757  0  3.734325  0  0  0.114427  0  3.959779  0  0  0.118294  0  3.982224  0  0  0.019169  0.112397  0  3.943475  0
C  C73  1  0.95160673  0.53213923  0.96704836  1  0  0.103171  0  3.731855  0  0  0.115854  0  3.95695  0  0  0.119732  0  3.979339  0  0  0.019707  0.113446  0  3.941704  0
C  C74  1  0.22267904  0.13281582  0.51215662  1  0  -0.147183  0  3.696809  0  0  -0.166724  0  3.948491  0  0  -0.174677  0  3.969865  0  0  -0.07661  -0.161533  0  3.933742  0
C  C75  1  0.07832058  0.36742011  0.98790021  1  0  -0.146073  0  3.69174  0  0  -0.166131  0  3.943172  0  0  -0.174055  0  3.964586  0  0  -0.07593  -0.161175  0  3.929012  0
C  C76  1  0.77729362  0.86716629  0.48783410  1  0  -0.147002  0  3.696498  0  0  -0.166597  0  3.947976  0  0  -0.174556  0  3.969371  0  0  -0.076444  -0.161404  0  3.933226  0
C  C77  1  0.92166148  0.63257102  0.01209838  1  0  -0.146047  0  3.69185  0  0  -0.166147  0  3.94335  0  0  -0.174057  0  3.964763  0  0  -0.075978  -0.161214  0  3.929176  0
C  C78  1  0.30561136  0.19294438  0.44775622  1  0  0.148777  0  3.694335  0  0  0.111327  0  3.952904  0  0  0.119901  0  3.968582  0  0  0.054011  0.105719  0  3.942208  0
C  C79  1  0.16551148  0.30730175  0.05236756  1  0  0.147102  0  3.691362  0  0  0.110217  0  3.949532  0  0  0.118731  0  3.965231  0  0  0.052863  0.104589  0  3.938987  0
C  C80  1  0.69437026  0.80704374  0.55223962  1  0  0.148632  0  3.694199  0  0  0.111261  0  3.952751  0  0  0.11983  0  3.968432  0  0  0.054005  0.105653  0  3.942055  0
C  C81  1  0.83448720  0.69269144  0.94763456  1  0  0.147168  0  3.691184  0  0  0.110235  0  3.949381  0  0  0.118747  0  3.965077  0  0  0.052789  0.104609  0  3.938839  0
Br  Br82  1  0.28274875  0.84178021  0.35259483  1  0  -0.075366  0  1.299161  0  0  -0.067504  0  1.557038  0  0  -0.073232  0  1.552441  0  0  0.03514  -0.063567  0  1.560147  0
Br  Br83  1  0.58937534  0.65874368  0.14798151  1  0  -0.074399  0  1.298608  0  0  -0.066645  0  1.556247  0  0  -0.072293  0  1.551621  0  0  0.036166  -0.062413  0  1.559453  0
Br  Br84  1  0.71727647  0.15825683  0.64743798  1  0  -0.075451  0  1.298922  0  0  -0.067537  0  1.556846  0  0  -0.073271  0  1.552256  0  0  0.035104  -0.063598  0  1.559951  0
Br  Br85  1  0.41062236  0.34125414  0.85201318  1  0  -0.074417  0  1.298431  0  0  -0.066689  0  1.556079  0  0  -0.07234  0  1.551456  0  0  0.036119  -0.062455  0  1.559282  0
N  N86  1  0.22385592  0.16022498  0.34173173  1  0  -0.327532  0  3.302692  0  0  -0.245712  0  3.583392  0  0  -0.265013  0  3.597745  0  0  -0.329266  -0.232734  0  3.573515  0
N  N87  1  0.22238555  0.34001368  0.15837694  1  0  -0.326747  0  3.302301  0  0  -0.244043  0  3.581684  0  0  -0.263425  0  3.596163  0  0  -0.327481  -0.230906  0  3.571845  0
N  N88  1  0.77613915  0.83977191  0.65826430  1  0  -0.327449  0  3.302795  0  0  -0.245633  0  3.583484  0  0  -0.264929  0  3.597836  0  0  -0.32928  -0.232656  0  3.573607  0
N  N89  1  0.77762348  0.65998711  0.84161934  1  0  -0.326839  0  3.302018  0  0  -0.244158  0  3.581484  0  0  -0.263541  0  3.595961  0  0  -0.327418  -0.231021  0  3.57165  0
O  O90  1  0.63950236  0.41372266  0.23295551  1  0  -0.592796  0  1.94704  0  0  -0.539487  0  2.178581  0  0  -0.563751  0  2.169527  0  0  -0.308431  -0.52272  0  2.184152  0
O  O91  1  0.49173350  0.08607523  0.26706352  1  0  -0.593968  0  1.949836  0  0  -0.540179  0  2.181059  0  0  -0.564405  0  2.171927  0  0  -0.309014  -0.523283  0  2.186777  0
O  O92  1  0.36051429  0.58628975  0.76703889  1  0  -0.592855  0  1.94735  0  0  -0.539545  0  2.178883  0  0  -0.563806  0  2.16983  0  0  -0.308461  -0.522779  0  2.184455  0
O  O93  1  0.50825435  0.91389967  0.73294468  1  0  -0.59404  0  1.949473  0  0  -0.540256  0  2.180621  0  0  -0.564498  0  2.171515  0  0  -0.309101  -0.523355  0  2.186332  0
O  O94  1  0.56375563  0.39733160  0.37304339  1  0  -0.663806  0  2.065339  0  0  -0.582147  0  2.31778  0  0  -0.61168  0  2.303011  0  0  -0.326407  -0.561568  0  2.327315  0
O  O95  1  0.29261493  0.10238115  0.12677483  1  0  -0.662411  0  2.065435  0  0  -0.580522  0  2.317097  0  0  -0.610047  0  2.302439  0  0  -0.325881  -0.559945  0  2.326456  0
O  O96  1  0.43625550  0.60266453  0.62695908  1  0  -0.663783  0  2.06537  0  0  -0.582175  0  2.317801  0  0  -0.611697  0  2.303034  0  0  -0.326426  -0.561594  0  2.327334  0
O  O97  1  0.70742414  0.89763850  0.87323253  1  0  -0.662374  0  2.065631  0  0  -0.580571  0  2.317332  0  0  -0.610097  0  2.302672  0  0  -0.325912  -0.559992  0  2.326692  0
O  O98  1  0.78326488  0.54088775  0.55507633  1  0  -0.514884  0  2.10066  0  0  -0.467232  0  2.31591  0  0  -0.487463  0  2.307011  0  0  -0.351677  -0.452854  0  2.321272  0
O  O99  1  0.18732710  0.95893401  0.94481663  1  0  -0.514257  0  2.099057  0  0  -0.466921  0  2.313815  0  0  -0.487161  0  2.305013  0  0  -0.350752  -0.452437  0  2.319298  0
O  O100  1  0.21673332  0.45911708  0.44492429  1  0  -0.514876  0  2.100565  0  0  -0.467225  0  2.315848  0  0  -0.487451  0  2.306955  0  0  -0.351683  -0.452842  0  2.321205  0
O  O101  1  0.81266999  0.04107086  0.05518524  1  0  -0.514197  0  2.098921  0  0  -0.46682  0  2.313742  0  0  -0.487054  0  2.304927  0  0  -0.350751  -0.452334  0  2.319222  0
