# generated using pymatgen
data_ZnH16C23N2(ClO2)2
_symmetry_space_group_name_H-M   'P 1'
_cell_length_a   16.28837860
_cell_length_b   17.15868751
_cell_length_c   17.66772092
_cell_angle_alpha   88.23788371
_cell_angle_beta   82.53561556
_cell_angle_gamma   90.27580487
_symmetry_Int_Tables_number   1
_chemical_formula_structural   ZnH16C23N2(ClO2)2
_chemical_formula_sum   'Zn2 H32 C46 N4 Cl4 O8'
_cell_volume   4893.54849973
_cell_formula_units_Z   2
loop_
 _symmetry_equiv_pos_site_id
 _symmetry_equiv_pos_as_xyz
  1  'x, y, z'
loop_
 _atom_site_type_symbol
 _atom_site_label
 _atom_site_symmetry_multiplicity
 _atom_site_fract_x
 _atom_site_fract_y
 _atom_site_fract_z
 _atom_site_occupancy
 _atom_site_pbe_bader_charge
 _atom_site_pbe_bader_spin_density
 _atom_site_pbe_cm5_charge
 _atom_site_pbe_ddec_charge
 _atom_site_pbe_ddec_spin_density
 _atom_site_pbe_ddec_sum_bond_order
 _atom_site_pbe_magmom
Zn  Zn0  1  0.41485171  0.49012503  0.50818465  1  1.283785  0  0.668278  0.830786  0  2.414008  0
Zn  Zn1  1  0.58661772  0.50991873  0.49292831  1  1.288383  0  0.664282  0.835782  0  2.388068  0
H  H2  1  0.70934055  0.42983593  0.56464533  1  0.14386  0  0.12995  0.10388  0  0.996066  0
H  H3  1  0.86135492  0.42269120  0.56652757  1  0.065394  0  0.114592  0.121736  0  0.992182  0
H  H4  1  0.88639860  0.61259730  0.39712125  1  0.109826  0  0.115049  0.134822  0  0.984851  0
H  H5  1  0.11351141  0.40379784  0.61908712  1  0.127584  0  0.115013  0.134835  0  0.983818  0
H  H6  1  0.14207916  0.55989151  0.41948744  1  0.090714  0  0.11377  0.120391  0  0.994555  0
H  H7  1  0.29391997  0.55714473  0.42503834  1  0.149819  0  0.132164  0.109782  0  0.976995  0
H  H8  1  0.00930736  0.56256869  0.43585217  1  0.058256  0  0.109849  0.106487  0  0.992938  0
H  H9  1  0.99240768  0.43776606  0.56619540  1  0.077695  0  0.109717  0.106679  0  0.992706  0
H  H10  1  0.60024715  0.44319178  0.73607400  1  0.084122  0  0.10354  0.107703  0  1.000977  0
H  H11  1  0.59472752  0.44095994  0.87674613  1  0.034235  0  0.100725  0.100867  0  1.007331  0
H  H12  1  0.37669501  0.58468428  0.88949220  1  0.072227  0  0.101424  0.113852  0  1.002439  0
H  H13  1  0.64188145  0.43894576  0.11140007  1  0.069582  0  0.101966  0.114047  0  1.001493  0
H  H14  1  0.39423850  0.53109199  0.12407349  1  0.050999  0  0.100767  0.100792  0  1.008212  0
H  H15  1  0.38668097  0.53058706  0.26474348  1  0.080283  0  0.103711  0.105434  0  0.995835  0
H  H16  1  0.42071322  0.54453099  0.00366835  1  0.030959  0  0.099923  0.097699  0  1.006366  0
H  H17  1  0.58566080  0.45671423  0.99724368  1  0.052222  0  0.100428  0.098053  0  1.005032  0
H  H18  1  0.60540244  0.74848118  0.47625995  1  0.089185  0  0.093701  0.099832  0  1.030806  0
H  H19  1  0.60319997  0.89517784  0.47086862  1  0.117459  0  0.101388  0.103275  0  1.02395  0
H  H20  1  0.64853524  0.10753810  0.52164613  1  0.070177  0  0.101092  0.106237  0  1.010856  0
H  H21  1  0.40455430  0.10786813  0.45597667  1  0.079174  0  0.101554  0.106015  0  1.028671  0
H  H22  1  0.27217929  0.76604409  0.57195467  1  0.025234  0  0.086276  0.117987  0  1.019012  0
H  H23  1  0.32532224  0.67546188  0.56384535  1  0.093683  0  0.089256  0.137367  0  1.021423  0
H  H24  1  0.28605602  0.71788309  0.48396304  1  0.036232  0  0.086706  0.119247  0  1.002198  0
H  H25  1  0.26923323  0.87441260  0.48374099  1  0.009448  0  0.089531  0.124313  0  0.996771  0
H  H26  1  0.32315924  0.96162397  0.50164622  1  0.072097  0  0.090647  0.120681  0  1.044917  0
H  H27  1  0.28493072  0.89629961  0.57793826  1  0.033221  0  0.092448  0.126592  0  0.991944  0
H  H28  1  0.65651640  0.30239156  0.57695475  1  0.030982  0  0.089649  0.126568  0  1.004086  0
H  H29  1  0.70296089  0.29681291  0.48151809  1  0.06331  0  0.090401  0.132973  0  1.004687  0
H  H30  1  0.71518885  0.21837322  0.54804554  1  -0.000901  0  0.085048  0.116475  0  1.007504  0
H  H31  1  0.34127452  0.22001048  0.42360225  1  0.003672  0  0.084926  0.116881  0  1.004676  0
H  H32  1  0.39218421  0.31295609  0.41429793  1  0.065629  0  0.091634  0.141268  0  0.998917  0
H  H33  1  0.33948581  0.28153533  0.50332756  1  0.041904  0  0.083503  0.123562  0  1.024702  0
C  C34  1  0.49839425  0.50565552  0.64738987  1  1.583797  0  0.210835  0.607085  0  4.161444  0
C  C35  1  0.52059259  0.34991181  0.49914760  1  1.583336  0  0.215321  0.604317  0  4.146834  0
C  C36  1  0.50116089  0.49379019  0.35336701  1  1.575255  0  0.213268  0.608277  0  4.164562  0
C  C37  1  0.48148988  0.64955544  0.49838811  1  1.563845  0  0.214437  0.601695  0  4.137555  0
C  C38  1  0.75179325  0.46878019  0.52855593  1  0.462415  0  0.063393  0.127221  0  3.909559  0
C  C39  1  0.83647837  0.46575049  0.52929319  1  -0.005289  0  -0.08115  -0.185694  0  3.927214  0
C  C40  1  0.88831892  0.51810985  0.48170604  1  0.01408  0  0.012415  0.168978  0  4.032586  0
C  C41  1  0.85006032  0.57064345  0.43529970  1  0.032662  0  -0.082423  -0.242063  0  3.909697  0
C  C42  1  0.76401222  0.56955897  0.43813651  1  0.625134  0  0.156694  0.29661  0  4.056264  0
C  C43  1  0.97815589  0.52089266  0.47821503  1  -0.020605  0  -0.072853  -0.109438  0  3.948172  0
C  C44  1  0.02364586  0.47828271  0.52274231  1  -0.04569  0  -0.073018  -0.111303  0  3.949416  0
C  C45  1  0.15058021  0.43883446  0.57468936  1  0.041307  0  -0.082034  -0.240875  0  3.90776  0
C  C46  1  0.11340695  0.48165220  0.51965523  1  -0.006929  0  0.012103  0.168447  0  4.033198  0
C  C47  1  0.16616578  0.52548910  0.46435072  1  -0.022835  0  -0.081387  -0.186352  0  3.932534  0
C  C48  1  0.25067687  0.52428661  0.46651678  1  0.484734  0  0.063308  0.124132  0  3.913537  0
C  C49  1  0.23649701  0.44112992  0.57279017  1  0.579661  0  0.157372  0.295901  0  4.055795  0
C  C50  1  0.49181630  0.51206272  0.73248313  1  0.054056  0  -0.019668  -0.089363  0  3.91102  0
C  C51  1  0.55116542  0.47356190  0.77104668  1  0.011509  0  -0.083709  -0.077867  0  4.003812  0
C  C52  1  0.54801073  0.47287528  0.84977337  1  0.004196  0  -0.095791  -0.144179  0  3.982111  0
C  C53  1  0.48445870  0.51254797  0.89462998  1  -0.093876  0  -0.009166  0.132913  0  4.057129  0
C  C54  1  0.42586218  0.55238934  0.85662919  1  0.021776  0  -0.098049  -0.211621  0  3.956118  0
C  C55  1  0.42897818  0.55242213  0.77735798  1  0.011995  0  0.020421  0.148985  0  4.013673  0
C  C56  1  0.47596924  0.51468306  0.97757321  1  -0.051988  0  -0.090601  -0.129786  0  3.9958  0
C  C57  1  0.52915805  0.48464910  0.02327748  1  -0.025704  0  -0.088749  -0.125819  0  3.994199  0
C  C58  1  0.58580609  0.46066407  0.14423709  1  -0.009132  0  -0.096833  -0.207342  0  3.952845  0
C  C59  1  0.51975890  0.48650150  0.10628666  1  0.048164  0  -0.009751  0.129519  0  4.057447  0
C  C60  1  0.44746527  0.51202605  0.15111086  1  -0.016763  0  -0.094812  -0.142841  0  3.982829  0
C  C61  1  0.44296677  0.51195904  0.22995850  1  -0.002276  0  -0.083988  -0.080393  0  4.009309  0
C  C62  1  0.50968633  0.48843607  0.26813667  1  0.059544  0  -0.017708  -0.081291  0  3.921026  0
C  C63  1  0.58141620  0.46225873  0.22351272  1  -0.013124  0  0.019019  0.145154  0  4.021533  0
C  C64  1  0.47317521  0.73660163  0.49950928  1  -0.064139  0  -0.013844  -0.079342  0  3.911747  0
C  C65  1  0.54735595  0.78019369  0.48508275  1  0.082354  0  -0.093371  -0.091809  0  4.031902  0
C  C66  1  0.54644200  0.86059331  0.48202289  1  -0.144471  0  -0.09411  -0.152531  0  4.021817  0
C  C67  1  0.47024212  0.89955141  0.49290055  1  0.321033  0  0.084852  0.112977  0  4.030542  0
C  C68  1  0.39475439  0.85723885  0.50738911  1  -0.01354  0  0.000923  0.05795  0  3.863428  0
C  C69  1  0.39627980  0.77484043  0.51276620  1  0.050361  0  -0.001154  0.103301  0  3.888059  0
C  C70  1  0.59515159  0.14076881  0.50798493  1  -0.093472  0  -0.09143  -0.220367  0  3.941497  0
C  C71  1  0.52611290  0.09960458  0.49044292  1  0.394199  0  0.081198  0.181368  0  4.106058  0
C  C72  1  0.45706574  0.14063561  0.47140954  1  -0.047917  0  -0.095013  -0.226471  0  3.938518  0
C  C73  1  0.45471213  0.22169039  0.47288280  1  0.02323  0  0.002756  0.181543  0  3.933639  0
C  C74  1  0.52427595  0.26285442  0.49334987  1  -0.04702  0  -0.011874  -0.14523  0  3.826621  0
C  C75  1  0.59565487  0.22206540  0.50960390  1  0.044488  0  -0.002309  0.171585  0  3.949874  0
C  C76  1  0.31577833  0.73115905  0.53469395  1  -0.091943  0  -0.246651  -0.407904  0  3.996854  0
C  C77  1  0.31370477  0.89988273  0.51796192  1  -0.065877  0  -0.24169  -0.402226  0  4.004993  0
C  C78  1  0.67190712  0.26200633  0.53021885  1  -0.04229  0  -0.242419  -0.407417  0  3.985571  0
C  C79  1  0.37787331  0.26132958  0.45202151  1  -0.031034  0  -0.244672  -0.406278  0  3.963779  0
N  N80  1  0.71528769  0.51977377  0.48370893  1  -1.235973  0  -0.312264  -0.249431  0  3.454403  0
N  N81  1  0.28608103  0.48260776  0.51976019  1  -1.196239  0  -0.313532  -0.249086  0  3.455618  0
N  N82  1  0.46483271  0.98155585  0.48959006  1  -0.48593  0  -0.14845  -0.115213  0  3.299903  0
N  N83  1  0.53212715  0.01753576  0.49437174  1  -0.51016  0  -0.154608  -0.14772  0  3.281431  0
Cl  Cl84  1  0.71836199  0.63453190  0.38144063  1  -0.132168  0  0.051818  -0.024481  0  1.499287  0
Cl  Cl85  1  0.28080857  0.38878487  0.64068327  1  -0.132256  0  0.05058  -0.025336  0  1.4945  0
Cl  Cl86  1  0.35391799  0.60690700  0.73924229  1  -0.20293  0  -0.027597  -0.091898  0  1.490108  0
Cl  Cl87  1  0.66576987  0.42702797  0.26411875  1  -0.208023  0  -0.030271  -0.093751  0  1.466796  0
O  O88  1  0.43224806  0.51499075  0.61738056  1  -1.162422  0  -0.319281  -0.559849  0  2.439182  0
O  O89  1  0.56939534  0.49000312  0.61176384  1  -1.170533  0  -0.322557  -0.55797  0  2.287703  0
O  O90  1  0.58624261  0.39007366  0.47888543  1  -1.162392  0  -0.311767  -0.543393  0  2.332398  0
O  O91  1  0.45057769  0.37813324  0.52483523  1  -1.16733  0  -0.316427  -0.551912  0  2.394278  0
O  O92  1  0.56330544  0.51994427  0.38128671  1  -1.158817  0  -0.318649  -0.560422  0  2.408807  0
O  O93  1  0.43150964  0.47334964  0.39043607  1  -1.167523  0  -0.320148  -0.554842  0  2.286313  0
O  O94  1  0.42061501  0.60872950  0.48258437  1  -1.163907  0  -0.316151  -0.546982  0  2.334968  0
O  O95  1  0.55097267  0.62209204  0.51205661  1  -1.16106  0  -0.321694  -0.552774  0  2.348218  0
