# generated using pymatgen
data_ZnSiH4C8S4N4(O2F3)2
_symmetry_space_group_name_H-M   'P 1'
_cell_length_a   7.75721985
_cell_length_b   8.88371958
_cell_length_c   9.03720182
_cell_angle_alpha   107.07108457
_cell_angle_beta   94.20040751
_cell_angle_gamma   92.93497731
_symmetry_Int_Tables_number   1
_chemical_formula_structural   ZnSiH4C8S4N4(O2F3)2
_chemical_formula_sum   'Zn1 Si1 H4 C8 S4 N4 O4 F6'
_cell_volume   592.01336245
_cell_formula_units_Z   1
loop_
 _symmetry_equiv_pos_site_id
 _symmetry_equiv_pos_as_xyz
  1  'x, y, z'
loop_
 _atom_site_type_symbol
 _atom_site_label
 _atom_site_symmetry_multiplicity
 _atom_site_fract_x
 _atom_site_fract_y
 _atom_site_fract_z
 _atom_site_occupancy
 _atom_site_pbe_bader_charge
 _atom_site_pbe_bader_spin_density
 _atom_site_pbe_cm5_charge
 _atom_site_pbe_ddec_charge
 _atom_site_pbe_ddec_spin_density
 _atom_site_pbe_ddec_sum_bond_order
 _atom_site_pbe_magmom
Zn  Zn0  1  0.50001608  0.49992302  0.50000098  1  1.334203  0  0.6899  0.86808  0  2.180712  0
Si  Si1  1  0.99995935  0.49996578  0.50002829  1  3.219428  0  0.271235  1.697899  0  3.955502  0
H  H2  1  0.13874937  0.39830682  0.21732634  1  0.685855  0  0.303409  0.374943  0  0.953876  0
H  H3  1  0.86130249  0.60177289  0.78275648  1  0.685157  0  0.303318  0.375266  0  0.953811  0
H  H4  1  0.15142652  0.22406808  0.37041689  1  0.675213  0  0.3051  0.377074  0  0.950943  0
H  H5  1  0.84847112  0.77583497  0.62955351  1  0.675217  0  0.305002  0.376852  0  0.951649  0
C  C6  1  0.34833689  0.45083631  0.12331962  1  1.21535  0  0.214666  0.463994  0  4.115667  0
C  C7  1  0.65181452  0.54922749  0.87674657  1  1.213478  0  0.214936  0.464786  0  4.114501  0
C  C8  1  0.58845357  0.51935700  0.01073975  1  -0.103038  0  -0.025181  -0.158757  0  4.086768  0
C  C9  1  0.41166888  0.48076388  0.98933566  1  -0.173615  0  -0.025119  -0.158426  0  4.08561  0
C  C10  1  0.35801584  0.12708412  0.43530720  1  1.205322  0  0.22201  0.476753  0  4.088111  0
C  C11  1  0.64182854  0.87280851  0.56458553  1  1.205978  0  0.221836  0.476495  0  4.087539  0
C  C12  1  0.58392188  0.01205032  0.53469213  1  -0.178694  0  -0.021684  -0.156611  0  4.080983  0
C  C13  1  0.41595393  0.98787755  0.46519802  1  -0.105168  0  -0.02235  -0.157644  0  4.08278  0
S  S14  1  0.66981350  0.51539829  0.19050772  1  0.65091  0  0.21684  0.329863  0  2.969154  0
S  S15  1  0.33036275  0.48479497  0.80952703  1  0.651188  0  0.216782  0.329686  0  2.96829  0
S  S16  1  0.66596339  0.20049111  0.55719431  1  0.678698  0  0.226198  0.338546  0  2.951602  0
S  S17  1  0.33387206  0.79949480  0.44263453  1  0.678653  0  0.226537  0.339439  0  2.952818  0
N  N18  1  0.47215522  0.46508076  0.23908008  1  -1.149526  0  -0.342187  -0.481948  0  3.307211  0
N  N19  1  0.52806111  0.53489371  0.76091700  1  -1.148163  0  -0.342512  -0.482468  0  3.307515  0
N  N20  1  0.47858977  0.24914330  0.47908248  1  -1.146858  0  -0.340145  -0.469631  0  3.337688  0
N  N21  1  0.52117699  0.75082794  0.52086804  1  -1.14822  0  -0.340058  -0.469773  0  3.33788  0
O  O22  1  0.18065015  0.41300121  0.12089784  1  -1.185193  0  -0.329624  -0.433062  0  2.301887  0
O  O23  1  0.81946183  0.58716601  0.87924890  1  -1.184575  0  -0.329388  -0.433437  0  2.301117  0
O  O24  1  0.19988059  0.12204754  0.36759901  1  -1.168844  0  -0.327823  -0.431198  0  2.287805  0
O  O25  1  0.79999954  0.87782228  0.63228141  1  -1.168278  0  -0.327586  -0.43101  0  2.287892  0
F  F26  1  0.22837751  0.52453765  0.51958344  1  -0.818775  0  -0.203086  -0.503114  0  1.356883  0
F  F27  1  0.77165856  0.47553552  0.48040422  1  -0.818977  0  -0.202694  -0.502831  0  1.357982  0
F  F28  1  0.00766432  0.37496977  0.60506621  1  -0.822373  0  -0.219916  -0.53206  0  1.23392  0
F  F29  1  0.99234330  0.62497880  0.39500218  1  -0.822428  0  -0.220073  -0.532218  0  1.234483  0
F  F30  1  0.98742061  0.65550504  0.66723085  1  -0.815867  0  -0.159177  -0.477723  0  1.237885  0
F  F31  1  0.01261785  0.34443123  0.33286749  1  -0.816057  0  -0.159168  -0.477767  0  1.237959  0
