# generated using pymatgen
data_Zn2P2H16C13(NO3)2
_symmetry_space_group_name_H-M   'P 1'
_cell_length_a   9.42277281
_cell_length_b   10.01270917
_cell_length_c   23.82092352
_cell_angle_alpha   90.00009878
_cell_angle_beta   89.99999303
_cell_angle_gamma   89.99985733
_symmetry_Int_Tables_number   1
_chemical_formula_structural   Zn2P2H16C13(NO3)2
_chemical_formula_sum   'Zn8 P8 H64 C52 N8 O24'
_cell_volume   2247.44419470
_cell_formula_units_Z   4
loop_
 _symmetry_equiv_pos_site_id
 _symmetry_equiv_pos_as_xyz
  1  'x, y, z'
loop_
 _atom_site_type_symbol
 _atom_site_label
 _atom_site_symmetry_multiplicity
 _atom_site_fract_x
 _atom_site_fract_y
 _atom_site_fract_z
 _atom_site_occupancy
 _atom_site_pbe_bader_charge
 _atom_site_pbe_bader_spin_density
 _atom_site_pbe_cm5_charge
 _atom_site_pbe_ddec_charge
 _atom_site_pbe_ddec_spin_density
 _atom_site_pbe_ddec_sum_bond_order
 _atom_site_pbe_magmom
Zn  Zn0  1  0.82558093  0.62746158  0.48709845  1  1.307077  0  0.710564  0.936379  0  2.356056  0
Zn  Zn1  1  0.32558234  0.87253875  0.51290150  1  1.307065  0  0.71057  0.936394  0  2.356064  0
Zn  Zn2  1  0.17441829  0.37253936  0.98709872  1  1.307062  0  0.710577  0.936407  0  2.356075  0
Zn  Zn3  1  0.67441702  0.12746124  0.01290171  1  1.307069  0  0.710564  0.936384  0  2.356076  0
Zn  Zn4  1  0.17441836  0.37253838  0.51290174  1  1.307077  0  0.710593  0.9364  0  2.356048  0
Zn  Zn5  1  0.67441801  0.12745922  0.48709911  1  1.30707  0  0.710557  0.936383  0  2.356068  0
Zn  Zn6  1  0.82558419  0.62746060  0.01290189  1  1.307061  0  0.710589  0.936423  0  2.356061  0
Zn  Zn7  1  0.32558439  0.87253872  0.98709806  1  1.307059  0  0.710585  0.936425  0  2.356055  0
P  P8  1  0.11483574  0.65234395  0.56352834  1  3.389728  0  0.264637  1.192188  0  5.573545  0
P  P9  1  0.61483695  0.84765687  0.43647162  1  3.389758  0  0.264665  1.192233  0  5.573472  0
P  P10  1  0.88516149  0.34765724  0.06352871  1  3.389834  0  0.264642  1.192186  0  5.573508  0
P  P11  1  0.38516228  0.15234286  0.93647130  1  3.38968  0  0.264608  1.192091  0  5.573582  0
P  P12  1  0.88516355  0.34765501  0.43647227  1  3.389733  0  0.264647  1.192181  0  5.573491  0
P  P13  1  0.38516234  0.15234209  0.56352900  1  3.389893  0  0.264609  1.192111  0  5.573547  0
P  P14  1  0.11483886  0.65234272  0.93647106  1  3.389803  0  0.26467  1.192247  0  5.573409  0
P  P15  1  0.61483913  0.84765810  0.06352848  1  3.389623  0  0.264599  1.192035  0  5.573611  0
H  H16  1  0.06727005  0.70034311  0.61590081  1  -0.48131  0  0.07434  -0.13411  0  1.017591  0
H  H17  1  0.52728336  0.63807753  0.53477713  1  0.17956  0  0.118445  0.105752  0  1.04293  0
H  H18  1  0.40045987  0.53931837  0.61609721  1  0.113266  0  0.111426  0.130551  0  1.005766  0
H  H19  1  0.78617039  0.32339441  0.65555865  1  0.043254  0  0.108599  0.117024  0  0.986326  0
H  H20  1  0.89743369  0.43074867  0.57272478  1  0.15119  0  0.118141  0.094969  0  1.041183  0
H  H21  1  0.40168051  0.38358345  0.69529097  1  0.010007  0  0.101766  0.10821  0  0.961578  0
H  H22  1  0.53595644  0.25994244  0.69800744  1  0.058377  0  0.096827  0.098747  0  0.977158  0
H  H23  1  0.56726822  0.79965782  0.38409873  1  -0.481318  0  0.074325  -0.134136  0  1.017579  0
H  H24  1  0.02728269  0.86192149  0.46522241  1  0.179558  0  0.118445  0.105772  0  1.042922  0
H  H25  1  0.90045974  0.96068278  0.38390274  1  0.113287  0  0.111431  0.130556  0  1.005762  0
H  H26  1  0.28616919  0.17660492  0.34444136  1  0.043259  0  0.108606  0.117024  0  0.986348  0
H  H27  1  0.39743275  0.06925040  0.42727480  1  0.151198  0  0.118149  0.094973  0  1.041191  0
H  H28  1  0.90168025  0.11641661  0.30470903  1  0.009997  0  0.101765  0.10824  0  0.961573  0
H  H29  1  0.03595508  0.24005848  0.30199216  1  0.058373  0  0.096832  0.098759  0  0.977178  0
H  H30  1  0.93273034  0.29965730  0.11590113  1  -0.48131  0  0.074349  -0.134099  0  1.017585  0
H  H31  1  0.47271706  0.36192254  0.03477711  1  0.179637  0  0.118451  0.105774  0  1.042924  0
H  H32  1  0.59954052  0.46068204  0.11609725  1  0.113262  0  0.111431  0.130564  0  1.005738  0
H  H33  1  0.21383211  0.67660815  0.15555886  1  0.043304  0  0.108595  0.116996  0  0.986348  0
H  H34  1  0.10256671  0.56925256  0.07272576  1  0.151608  0  0.118154  0.094992  0  1.041183  0
H  H35  1  0.59831986  0.61641628  0.19529155  1  0.009995  0  0.10176  0.108217  0  0.961581  0
H  H36  1  0.46404605  0.74005930  0.19800811  1  0.058357  0  0.096811  0.098721  0  0.977198  0
H  H37  1  0.43273103  0.20034169  0.88409845  1  -0.481317  0  0.074341  -0.134087  0  1.017575  0
H  H38  1  0.97271546  0.13807835  0.96522289  1  0.179568  0  0.11845  0.105767  0  1.042922  0
H  H39  1  0.09953951  0.03931773  0.88390319  1  0.113299  0  0.111435  0.130574  0  1.005744  0
H  H40  1  0.71383113  0.82339443  0.84444067  1  0.04325  0  0.108603  0.117017  0  0.98635  0
H  H41  1  0.60256542  0.93074929  0.92727461  1  0.151592  0  0.118157  0.095003  0  1.041229  0
H  H42  1  0.09832009  0.88358358  0.80470883  1  0.009993  0  0.101756  0.108215  0  0.961607  0
H  H43  1  0.96404525  0.75994069  0.80199225  1  0.058358  0  0.096819  0.098732  0  0.977175  0
H  H44  1  0.93272924  0.29965685  0.38409896  1  -0.4813  0  0.074357  -0.134099  0  1.0176  0
H  H45  1  0.47271699  0.36192143  0.46522348  1  0.179604  0  0.11843  0.10571  0  1.042957  0
H  H46  1  0.59954048  0.46068259  0.38390340  1  0.113253  0  0.111424  0.130565  0  1.005763  0
H  H47  1  0.21382996  0.67660455  0.34444197  1  0.043272  0  0.108623  0.117045  0  0.986309  0
H  H48  1  0.10256560  0.56924829  0.42727499  1  0.151191  0  0.118141  0.09499  0  1.041172  0
H  H49  1  0.59831984  0.61641551  0.30470964  1  0.009991  0  0.101781  0.10824  0  0.961584  0
H  H50  1  0.46404498  0.74005752  0.30199317  1  0.058379  0  0.096836  0.098766  0  0.977161  0
H  H51  1  0.43273213  0.20034014  0.61590188  1  -0.481326  0  0.074336  -0.134102  0  1.01757  0
H  H52  1  0.97271766  0.13807946  0.53477736  1  0.179542  0  0.118445  0.105699  0  1.042958  0
H  H53  1  0.09954167  0.03931918  0.61609703  1  0.113234  0  0.111419  0.130547  0  1.005749  0
H  H54  1  0.71383434  0.82339304  0.65555799  1  0.043362  0  0.108618  0.117044  0  0.986338  0
H  H55  1  0.60256866  0.93074756  0.57272497  1  0.151219  0  0.118134  0.094997  0  1.041192  0
H  H56  1  0.09832117  0.88358236  0.69529116  1  0.009977  0  0.101752  0.108204  0  0.96159  0
H  H57  1  0.96404527  0.75994048  0.69800720  1  0.058361  0  0.096826  0.098729  0  0.977167  0
H  H58  1  0.06726895  0.70034166  0.88409822  1  -0.481323  0  0.074338  -0.134112  0  1.017578  0
H  H59  1  0.52728435  0.63808042  0.96522392  1  0.179518  0  0.11843  0.105678  0  1.042964  0
H  H60  1  0.40045877  0.53931992  0.88390462  1  0.113166  0  0.111405  0.13053  0  1.005777  0
H  H61  1  0.78616718  0.32339580  0.84444133  1  0.043278  0  0.108609  0.117042  0  0.986355  0
H  H62  1  0.89743364  0.43074940  0.92727443  1  0.151609  0  0.11816  0.095013  0  1.041245  0
H  H63  1  0.40167943  0.38358368  0.80470906  1  0.009974  0  0.101787  0.108281  0  0.961553  0
H  H64  1  0.53595536  0.25994265  0.80199292  1  0.058387  0  0.096803  0.098726  0  0.977177  0
H  H65  1  0.56726932  0.79965927  0.11590174  1  -0.481307  0  0.07431  -0.1341  0  1.01754  0
H  H66  1  0.02728489  0.86192161  0.03477604  1  0.17953  0  0.118422  0.105715  0  1.042955  0
H  H67  1  0.90045872  0.96068123  0.11609574  1  0.113183  0  0.111411  0.130558  0  1.00575  0
H  H68  1  0.28616710  0.17660553  0.15555826  1  0.043347  0  0.10862  0.117045  0  0.986326  0
H  H69  1  0.39743387  0.06925167  0.07272474  1  0.151193  0  0.118137  0.094979  0  1.041177  0
H  H70  1  0.90167920  0.11641638  0.19529094  1  0.009971  0  0.101787  0.108276  0  0.961557  0
H  H71  1  0.03595404  0.24005827  0.19800710  1  0.058378  0  0.096801  0.09871  0  0.977166  0
H  H72  1  0.69555680  0.41918198  0.75000086  1  0.012606  0  0.088639  0.076427  0  0.997061  0
H  H73  1  0.55931755  0.54004054  0.75000049  1  -0.013864  0  0.091154  0.085989  0  0.973048  0
H  H74  1  0.19555694  0.08081857  0.24999915  1  0.012552  0  0.088642  0.076438  0  0.99705  0
H  H75  1  0.05931882  0.95995942  0.24999947  1  -0.013875  0  0.091132  0.085981  0  0.973027  0
H  H76  1  0.30444249  0.58081998  0.25000059  1  0.012601  0  0.088639  0.07643  0  0.997091  0
H  H77  1  0.44068174  0.45996042  0.25000012  1  -0.013858  0  0.091161  0.085997  0  0.973038  0
H  H78  1  0.80444341  0.91918039  0.74999978  1  0.012616  0  0.088635  0.07645  0  0.997068  0
H  H79  1  0.94068259  0.04003955  0.74999988  1  -0.013848  0  0.091149  0.085974  0  0.973052  0
C  C80  1  0.58050982  0.56799260  0.56283102  1  0.456838  0  0.051914  0.107489  0  3.908094  0
C  C81  1  0.51130626  0.51296172  0.60894088  1  -0.021572  0  -0.080495  -0.17762  0  3.906114  0
C  C82  1  0.58395590  0.42504144  0.64440085  1  -0.012731  0  0.013947  0.163001  0  3.965764  0
C  C83  1  0.72451648  0.39350733  0.63035730  1  -0.005502  0  -0.08637  -0.18659  0  3.945922  0
C  C84  1  0.78745860  0.45182204  0.58384821  1  0.428731  0  0.046399  0.100311  0  3.939046  0
C  C85  1  0.51731422  0.36863432  0.69655666  1  -0.008059  0  -0.155374  -0.205662  0  3.960391  0
C  C86  1  0.08050898  0.93200730  0.43716852  1  0.45684  0  0.051901  0.107433  0  3.908084  0
C  C87  1  0.01130635  0.98703935  0.39105866  1  -0.021578  0  -0.080489  -0.177592  0  3.906067  0
C  C88  1  0.08395496  0.07495937  0.35559875  1  -0.012745  0  0.013969  0.163031  0  3.965714  0
C  C89  1  0.22451545  0.10649315  0.36964229  1  -0.005495  0  -0.086408  -0.186613  0  3.945901  0
C  C90  1  0.28745878  0.04817729  0.41615180  1  0.428737  0  0.046387  0.100292  0  3.939053  0
C  C91  1  0.01731315  0.13136665  0.30344294  1  -0.008076  0  -0.155402  -0.205776  0  3.960483  0
C  C92  1  0.41949059  0.43200859  0.06283104  1  0.456756  0  0.051873  0.107405  0  3.908114  0
C  C93  1  0.48869414  0.48703966  0.10894053  1  -0.021528  0  -0.080504  -0.177649  0  3.906061  0
C  C94  1  0.41604555  0.57496108  0.14440140  1  -0.012735  0  0.013974  0.163089  0  3.96565  0
C  C95  1  0.27548497  0.60649414  0.13035704  1  -0.005564  0  -0.086365  -0.186549  0  3.94591  0
C  C96  1  0.21254180  0.54817923  0.08384875  1  0.428312  0  0.046371  0.100241  0  3.939117  0
C  C97  1  0.48268721  0.63136742  0.19655683  1  -0.008077  0  -0.155379  -0.205701  0  3.960427  0
C  C98  1  0.91948919  0.06799243  0.93716896  1  0.456666  0  0.051864  0.107449  0  3.908077  0
C  C99  1  0.98869289  0.01296119  0.89105905  1  -0.021559  0  -0.080516  -0.177678  0  3.906082  0
C  C100  1  0.91604429  0.92504003  0.85559896  1  -0.012776  0  0.013985  0.163113  0  3.965648  0
C  C101  1  0.77548380  0.89350730  0.86964249  1  -0.005464  0  -0.086372  -0.186587  0  3.945906  0
C  C102  1  0.71254046  0.95182236  0.91615163  1  0.428318  0  0.046352  0.100249  0  3.939099  0
C  C103  1  0.98268718  0.86863353  0.80344353  1  -0.008064  0  -0.155377  -0.205733  0  3.960525  0
C  C104  1  0.41949159  0.43200736  0.43716960  1  0.456745  0  0.051995  0.107615  0  3.908132  0
C  C105  1  0.48869409  0.48703824  0.39105973  1  -0.021566  0  -0.080598  -0.177808  0  3.906257  0
C  C106  1  0.41604445  0.57495951  0.35560018  1  -0.012774  0  0.013951  0.163073  0  3.965669  0
C  C107  1  0.27548387  0.60649163  0.36964331  1  -0.005441  0  -0.086365  -0.186552  0  3.945849  0
C  C108  1  0.21254069  0.54817592  0.41615198  1  0.428729  0  0.046382  0.100237  0  3.939036  0
C  C109  1  0.48268719  0.63136564  0.30344437  1  -0.008061  0  -0.155373  -0.205738  0  3.960515  0
C  C110  1  0.91949243  0.06799266  0.56283125  1  0.456808  0  0.051942  0.107552  0  3.90815  0
C  C111  1  0.98869506  0.01296161  0.60894027  1  -0.021582  0  -0.080546  -0.177698  0  3.906139  0
C  C112  1  0.91604645  0.92503960  0.64440060  1  -0.012729  0  0.01393  0.163024  0  3.965677  0
C  C113  1  0.77548702  0.89350581  0.63035622  1  -0.006178  0  -0.086371  -0.186593  0  3.945932  0
C  C114  1  0.71254369  0.95182167  0.58384797  1  0.429334  0  0.046378  0.10024  0  3.939178  0
C  C115  1  0.98268826  0.86863331  0.69655641  1  -0.008068  0  -0.155359  -0.205665  0  3.960426  0
C  C116  1  0.58050976  0.56799437  0.93716957  1  0.456827  0  0.051968  0.107578  0  3.9081  0
C  C117  1  0.51130515  0.51296330  0.89106008  1  -0.021487  0  -0.080553  -0.177673  0  3.906176  0
C  C118  1  0.58395374  0.42504188  0.85559963  1  -0.012725  0  0.013978  0.163034  0  3.96577  0
C  C119  1  0.72451432  0.39350782  0.86964315  1  -0.00547  0  -0.086374  -0.186579  0  3.945976  0
C  C120  1  0.78745961  0.45182273  0.91615186  1  0.428315  0  0.046371  0.100234  0  3.939114  0
C  C121  1  0.51731102  0.36863454  0.80344420  1  -0.008066  0  -0.155408  -0.205823  0  3.960501  0
C  C122  1  0.08050904  0.93200753  0.06282997  1  0.456805  0  0.051978  0.107574  0  3.908177  0
C  C123  1  0.01130534  0.98703777  0.10893946  1  -0.021505  0  -0.080553  -0.177748  0  3.906234  0
C  C124  1  0.08395287  0.07495993  0.14439955  1  -0.012242  0  0.013951  0.163059  0  3.965659  0
C  C125  1  0.22451443  0.10649366  0.13035602  1  -0.006626  0  -0.086378  -0.186576  0  3.945915  0
C  C126  1  0.28745777  0.04817860  0.08384773  1  0.429336  0  0.046392  0.100244  0  3.939097  0
C  C127  1  0.01731105  0.13136543  0.19655582  1  -0.008052  0  -0.155372  -0.20575  0  3.960407  0
C  C128  1  0.57931074  0.43162430  0.75000045  1  0.032834  0  -0.157233  -0.127072  0  3.939341  0
C  C129  1  0.07930986  0.06837552  0.24999957  1  0.032904  0  -0.157211  -0.127066  0  3.939305  0
C  C130  1  0.42068961  0.56837666  0.25000058  1  0.032851  0  -0.157256  -0.127121  0  3.939466  0
C  C131  1  0.92069049  0.93162344  0.74999978  1  0.032829  0  -0.157232  -0.127101  0  3.939389  0
N  N132  1  0.71710447  0.53941473  0.55081761  1  -1.272554  0  -0.33141  -0.267456  0  3.59883  0
N  N133  1  0.21710461  0.96058584  0.44918192  1  -1.272521  0  -0.331362  -0.267385  0  3.598839  0
N  N134  1  0.28289595  0.46058640  0.05081809  1  -1.272507  0  -0.331373  -0.267395  0  3.598867  0
N  N135  1  0.78289355  0.03941494  0.94918192  1  -1.27237  0  -0.331328  -0.267405  0  3.598775  0
N  N136  1  0.28289588  0.46058423  0.44918258  1  -1.272562  0  -0.331404  -0.267416  0  3.598801  0
N  N137  1  0.78289680  0.03941412  0.55081785  1  -1.272521  0  -0.331361  -0.267368  0  3.598865  0
N  N138  1  0.71710441  0.53941655  0.94918252  1  -1.272539  0  -0.331395  -0.267402  0  3.598782  0
N  N139  1  0.21710361  0.96058502  0.05081701  1  -1.272539  0  -0.331408  -0.267418  0  3.598796  0
O  O140  1  0.00432151  0.69434661  0.51961193  1  -1.460439  0  -0.389263  -0.748891  0  2.419594  0
O  O141  1  0.12723675  0.50059381  0.57236800  1  -1.441195  0  -0.395521  -0.735717  0  2.34413  0
O  O142  1  0.25991291  0.71633942  0.55244651  1  -1.450433  0  -0.389844  -0.71625  0  2.376414  0
O  O143  1  0.50432494  0.80565347  0.48038846  1  -1.460423  0  -0.389249  -0.74885  0  2.419524  0
O  O144  1  0.62723756  0.99940598  0.42763238  1  -1.441199  0  -0.395508  -0.735719  0  2.344136  0
O  O145  1  0.75991428  0.78365906  0.44755176  1  -1.450489  0  -0.389873  -0.716257  0  2.376381  0
O  O146  1  0.99567467  0.30565540  0.01961184  1  -1.460579  0  -0.389226  -0.748822  0  2.419531  0
O  O147  1  0.87276154  0.49940741  0.07236847  1  -1.441218  0  -0.395554  -0.735761  0  2.344163  0
O  O148  1  0.74008432  0.28365973  0.05244767  1  -1.45039  0  -0.389871  -0.716273  0  2.37639  0
O  O149  1  0.49567428  0.19434344  0.98038858  1  -1.460399  0  -0.389234  -0.748812  0  2.419576  0
O  O150  1  0.37276062  0.00059172  0.92763111  1  -1.441165  0  -0.395513  -0.735712  0  2.344139  0
O  O151  1  0.24008494  0.21633972  0.94755234  1  -1.450468  0  -0.389869  -0.716252  0  2.376413  0
O  O152  1  0.99567778  0.30565335  0.48038826  1  -1.46045  0  -0.389267  -0.748856  0  2.419552  0
O  O153  1  0.87276148  0.49940515  0.42763220  1  -1.441168  0  -0.395544  -0.735733  0  2.344085  0
O  O154  1  0.74008638  0.28366054  0.44755368  1  -1.450442  0  -0.389849  -0.71626  0  2.376439  0
O  O155  1  0.49567435  0.19434349  0.51961215  1  -1.46057  0  -0.389234  -0.748801  0  2.419502  0
O  O156  1  0.37276067  0.00059099  0.57236823  1  -1.441174  0  -0.395512  -0.735735  0  2.344227  0
O  O157  1  0.24008501  0.21634090  0.55244885  1  -1.45047  0  -0.389871  -0.716232  0  2.376358  0
O  O158  1  0.00432568  0.69434356  0.98038835  1  -1.460572  0  -0.389216  -0.748832  0  2.419548  0
O  O159  1  0.12724093  0.50059155  0.92763172  1  -1.441159  0  -0.395586  -0.735801  0  2.344132  0
O  O160  1  0.25991603  0.71634023  0.94755168  1  -1.450394  0  -0.389877  -0.716303  0  2.376378  0
O  O161  1  0.50432713  0.80565652  0.01961119  1  -1.460579  0  -0.389205  -0.748764  0  2.419562  0
O  O162  1  0.62723974  0.99940924  0.07236866  1  -1.440993  0  -0.395493  -0.735672  0  2.344169  0
O  O163  1  0.75991647  0.78366024  0.05244827  1  -1.450394  0  -0.389873  -0.716252  0  2.376456  0
