# generated using pymatgen
data_FeH24Pd(C19N3)2
_symmetry_space_group_name_H-M   'P 1'
_cell_length_a   7.19249147
_cell_length_b   13.75194597
_cell_length_c   16.25052249
_cell_angle_alpha   73.99413657
_cell_angle_beta   83.31535088
_cell_angle_gamma   90.04734915
_symmetry_Int_Tables_number   1
_chemical_formula_structural   FeH24Pd(C19N3)2
_chemical_formula_sum   'Fe2 H48 Pd2 C76 N12'
_cell_volume   1533.62389189
_cell_formula_units_Z   2
loop_
 _symmetry_equiv_pos_site_id
 _symmetry_equiv_pos_as_xyz
  1  'x, y, z'
loop_
 _atom_site_type_symbol
 _atom_site_label
 _atom_site_symmetry_multiplicity
 _atom_site_fract_x
 _atom_site_fract_y
 _atom_site_fract_z
 _atom_site_occupancy
 _atom_site_hle17_bader_spin_density
 _atom_site_hle17_ddec_charge
 _atom_site_hle17_ddec_spin_density
 _atom_site_hle17_ddec_sum_bond_order
 _atom_site_hle17_magmom
 _atom_site_hse06_10hf_bader_spin_density
 _atom_site_hse06_10hf_ddec_charge
 _atom_site_hse06_10hf_ddec_spin_density
 _atom_site_hse06_10hf_ddec_sum_bond_order
 _atom_site_hse06_10hf_magmom
 _atom_site_hse06_bader_spin_density
 _atom_site_hse06_ddec_charge
 _atom_site_hse06_ddec_spin_density
 _atom_site_hse06_ddec_sum_bond_order
 _atom_site_hse06_magmom
 _atom_site_pbe_bader_spin_density
 _atom_site_pbe_cm5_charge
 _atom_site_pbe_ddec_charge
 _atom_site_pbe_ddec_spin_density
 _atom_site_pbe_ddec_sum_bond_order
 _atom_site_pbe_magmom
Fe  Fe0  1  0.49999897  0.99999938  0.50000093  1  0  0.589669  0  3.499715  0  0  0.57889  0  3.968775  0  0  0.602585  0  3.928233  0  0  0.912934  0.571641  0  3.986311  0
Fe  Fe1  1  0.50000281  0.50000102  0.50000051  1  0  0.593031  0  3.484775  0  0  0.581524  0  3.954286  0  0  0.605062  0  3.9145  0  0  0.904264  0.573566  0  3.971928  0
H  H2  1  0.44414501  0.02202659  0.67459136  1  0  0.085706  0  0.966581  0  0  0.092136  0  1.033429  0  0  0.092933  0  1.032996  0  0  0.120871  0.091536  0  1.033889  0
H  H3  1  0.55585903  0.97797240  0.32540739  1  0  0.085695  0  0.966595  0  0  0.09212  0  1.033434  0  0  0.092917  0  1.033002  0  0  0.120849  0.091519  0  1.033895  0
H  H4  1  0.42733529  0.91164092  0.82403926  1  0  0.111478  0  0.949753  0  0  0.123084  0  1.008067  0  0  0.124749  0  1.009173  0  0  0.111297  0.121973  0  1.007316  0
H  H5  1  0.57266735  0.08835808  0.17596017  1  0  0.111414  0  0.949762  0  0  0.123026  0  1.008073  0  0  0.124692  0  1.009168  0  0  0.111288  0.121915  0  1.007324  0
H  H6  1  0.49941025  0.65608226  0.71772906  1  0  0.104844  0  0.968932  0  0  0.113532  0  1.031252  0  0  0.11491  0  1.033433  0  0  0.104748  0.112597  0  1.029861  0
H  H7  1  0.50058530  0.34391521  0.28227048  1  0  0.10488  0  0.968965  0  0  0.113543  0  1.031303  0  0  0.11492  0  1.033486  0  0  0.104725  0.112608  0  1.029911  0
H  H8  1  0.50833091  0.77722745  0.57229688  1  0  0.095449  0  0.938296  0  0  0.104132  0  0.99676  0  0  0.104694  0  0.997119  0  0  0.125142  0.103676  0  0.996664  0
H  H9  1  0.49166608  0.22277079  0.42770363  1  0  0.09556  0  0.938225  0  0  0.104148  0  0.996799  0  0  0.104707  0  0.997163  0  0  0.125181  0.103692  0  0.996702  0
H  H10  1  0.21915831  0.49248852  0.38403605  1  0  0.091153  0  0.943575  0  0  0.10089  0  1.001856  0  0  0.101973  0  1.000903  0  0  0.12514  0.100082  0  1.002656  0
H  H11  1  0.78084306  0.50751277  0.61596783  1  0  0.091165  0  0.94351  0  0  0.100907  0  1.001795  0  0  0.101993  0  1.000836  0  0  0.125155  0.100097  0  1.002597  0
H  H12  1  0.21156370  0.52383297  0.22629197  1  0  0.10911  0  0.959612  0  0  0.120357  0  1.018284  0  0  0.122558  0  1.018535  0  0  0.11  0.118845  0  1.01821  0
H  H13  1  0.78843076  0.47616983  0.77371190  1  0  0.109214  0  0.95947  0  0  0.120441  0  1.018166  0  0  0.122631  0  1.018451  0  0  0.110009  0.118934  0  1.018074  0
H  H14  1  0.80700797  0.59051080  0.19120712  1  0  0.108712  0  0.942493  0  0  0.122552  0  0.995779  0  0  0.124928  0  0.995618  0  0  0.111951  0.120932  0  0.995955  0
H  H15  1  0.19298367  0.40949122  0.80879155  1  0  0.108713  0  0.942461  0  0  0.122551  0  0.995763  0  0  0.124924  0  0.995611  0  0  0.111978  0.120932  0  0.995936  0
H  H16  1  0.79140346  0.55189812  0.35091655  1  0  0.088472  0  0.939489  0  0  0.098479  0  0.998372  0  0  0.099743  0  0.996897  0  0  0.124794  0.097561  0  0.999497  0
H  H17  1  0.20859923  0.44810163  0.64908209  1  0  0.088427  0  0.93947  0  0  0.098389  0  0.998402  0  0  0.099653  0  0.996927  0  0  0.124771  0.097479  0  0.999532  0
H  H18  1  0.51782928  0.91126477  0.97599066  1  0  0.089412  0  0.965073  0  0  0.099655  0  1.031231  0  0  0.10221  0  1.0307  0  0  0.09753  0.097849  0  1.031605  0
H  H19  1  0.48216100  0.08873801  0.02401035  1  0  0.089387  0  0.9651  0  0  0.099657  0  1.031226  0  0  0.102211  0  1.030703  0  0  0.097568  0.097852  0  1.031595  0
H  H20  1  0.20324080  0.85892820  0.95162465  1  0  0.083446  0  0.976662  0  0  0.093291  0  1.041266  0  0  0.095727  0  1.041207  0  0  0.095238  0.091561  0  1.041369  0
H  H21  1  0.79675223  0.14107383  0.04837640  1  0  0.083445  0  0.976576  0  0  0.093279  0  1.041204  0  0  0.095714  0  1.041146  0  0  0.095215  0.09155  0  1.041307  0
H  H22  1  0.97363778  0.76802677  0.07598756  1  0  0.075994  0  0.971341  0  0  0.08676  0  1.035253  0  0  0.089606  0  1.033848  0  0  0.093456  0.084687  0  1.036365  0
H  H23  1  0.02636341  0.23197148  0.92401458  1  0  0.075994  0  0.971354  0  0  0.086806  0  1.035226  0  0  0.089658  0  1.033812  0  0  0.093467  0.084733  0  1.036341  0
H  H24  1  0.05644411  0.72997059  0.22518395  1  0  0.084107  0  0.952602  0  0  0.096433  0  1.01399  0  0  0.09924  0  1.012601  0  0  0.095899  0.094311  0  1.01519  0
H  H25  1  0.94356123  0.27002690  0.77481693  1  0  0.084166  0  0.952632  0  0  0.096478  0  1.014029  0  0  0.099286  0  1.012637  0  0  0.095894  0.094363  0  1.015221  0
H  H26  1  0.28467455  0.73817950  0.32549705  1  0  0.076832  0  0.998196  0  0  0.080312  0  1.079075  0  0  0.083545  0  1.076194  0  0  0.083245  0.077841  0  1.081384  0
H  H27  1  0.71533505  0.26181875  0.67450283  1  0  0.076748  0  0.998276  0  0  0.080231  0  1.079146  0  0  0.083463  0  1.076267  0  0  0.083213  0.077761  0  1.081453  0
H  H28  1  0.59642330  0.79006463  0.35134725  1  0  0.094586  0  0.961004  0  0  0.105448  0  1.021268  0  0  0.107302  0  1.021804  0  0  0.097271  0.104004  0  1.021102  0
H  H29  1  0.40358780  0.20993511  0.64864911  1  0  0.094639  0  0.960945  0  0  0.105455  0  1.021252  0  0  0.107308  0  1.021789  0  0  0.097212  0.104017  0  1.021091  0
H  H30  1  0.82730374  0.88306228  0.22738054  1  0  0.084666  0  0.974565  0  0  0.095064  0  1.038731  0  0  0.097234  0  1.038663  0  0  0.095354  0.093442  0  1.038968  0
H  H31  1  0.17270181  0.11693821  0.77261470  1  0  0.084612  0  0.974564  0  0  0.094998  0  1.038752  0  0  0.09717  0  1.038683  0  0  0.095329  0.093375  0  1.038991  0
H  H32  1  0.74691217  0.92155275  0.07796183  1  0  0.089407  0  0.955647  0  0  0.102333  0  1.015301  0  0  0.104898  0  1.014849  0  0  0.097704  0.100525  0  1.015636  0
H  H33  1  0.25308653  0.07845002  0.92203384  1  0  0.089448  0  0.955667  0  0  0.102371  0  1.015321  0  0  0.104936  0  1.014867  0  0  0.097729  0.100562  0  1.015656  0
H  H34  1  0.85126321  0.83141610  0.95253228  1  0  0.083541  0  0.965576  0  0  0.09644  0  1.026951  0  0  0.098817  0  1.026018  0  0  0.096262  0.094745  0  1.027678  0
H  H35  1  0.14873085  0.16857985  0.04746524  1  0  0.083538  0  0.965597  0  0  0.096444  0  1.026962  0  0  0.098822  0  1.026027  0  0  0.096251  0.094748  0  1.027693  0
H  H36  1  0.82445480  0.01283446  0.87577288  1  0  0.07936  0  0.989594  0  0  0.090001  0  1.052899  0  0  0.091334  0  1.054576  0  0  0.091249  0.089024  0  1.051787  0
H  H37  1  0.17554354  0.98716302  0.12422836  1  0  0.079362  0  0.989624  0  0  0.090051  0  1.052871  0  0  0.091383  0  1.054548  0  0  0.091279  0.089074  0  1.051755  0
H  H38  1  0.87821872  0.07096195  0.71493413  1  0  0.07469  0  0.986244  0  0  0.079183  0  1.06429  0  0  0.081868  0  1.062553  0  0  0.086101  0.07716  0  1.065728  0
H  H39  1  0.12178117  0.92903781  0.28506589  1  0  0.07468  0  0.986272  0  0  0.079183  0  1.06431  0  0  0.081866  0  1.062576  0  0  0.086093  0.07716  0  1.065748  0
H  H40  1  0.96315310  0.94882595  0.63106778  1  0  0.1055  0  0.942305  0  0  0.118049  0  0.998787  0  0  0.120162  0  0.999113  0  0  0.102408  0.116438  0  0.998731  0
H  H41  1  0.03684833  0.05117608  0.36893162  1  0  0.105382  0  0.942363  0  0  0.117977  0  0.998803  0  0  0.120088  0  0.999133  0  0  0.102384  0.116371  0  0.998748  0
H  H42  1  0.02975433  0.77365891  0.62705095  1  0  0.078796  0  0.996118  0  0  0.079652  0  1.08056  0  0  0.083948  0  1.075471  0  0  0.078548  0.076422  0  1.084346  0
H  H43  1  0.97024982  0.22634160  0.37294620  1  0  0.078827  0  0.996124  0  0  0.079709  0  1.080548  0  0  0.083992  0  1.075473  0  0  0.078576  0.076475  0  1.084336  0
H  H44  1  0.06597092  0.59420817  0.70288167  1  0  0.072022  0  0.976845  0  0  0.082731  0  1.041794  0  0  0.085032  0  1.041186  0  0  0.089213  0.081004  0  1.042376  0
H  H45  1  0.93403608  0.40579309  0.29711578  1  0  0.07202  0  0.976891  0  0  0.082716  0  1.041845  0  0  0.085014  0  1.041244  0  0  0.089175  0.080989  0  1.042425  0
H  H46  1  0.01601389  0.53500951  0.86502519  1  0  0.076536  0  0.955399  0  0  0.089694  0  1.013186  0  0  0.092486  0  1.011858  0  0  0.093148  0.087729  0  1.014119  0
H  H47  1  0.98399435  0.46498949  0.13497273  1  0  0.076539  0  0.955362  0  0  0.08964  0  1.013199  0  0  0.09243  0  1.011872  0  0  0.093125  0.087676  0  1.014129  0
H  H48  1  0.92882102  0.65673026  0.94868141  1  0  0.08643  0  0.948338  0  0  0.099776  0  1.004861  0  0  0.10264  0  1.003651  0  0  0.097606  0.097759  0  1.005739  0
H  H49  1  0.07117463  0.34326872  0.05131593  1  0  0.086448  0  0.948232  0  0  0.099776  0  1.004778  0  0  0.102638  0  1.003572  0  0  0.097621  0.097761  0  1.005655  0
Pd  Pd50  1  0.00730474  0.76346931  0.46563901  1  0  0.169699  0  3.562832  0  0  0.154481  0  4.128052  0  0  0.158259  0  4.083109  0  0  0.646508  0.153366  0  4.160189  0
Pd  Pd51  1  0.99269787  0.23652972  0.53436842  1  0  0.169628  0  3.562948  0  0  0.154408  0  4.128156  0  0  0.158199  0  4.0832  0  0  0.646542  0.153292  0  4.160291  0
C  C52  1  0.45416503  0.94057186  0.68695221  1  0  0.128796  0  3.666152  0  0  0.096624  0  3.922902  0  0  0.105631  0  3.939177  0  0  0.053712  0.090492  0  3.912279  0
C  C53  1  0.54583756  0.05942638  0.31304741  1  0  0.128757  0  3.666189  0  0  0.096602  0  3.922922  0  0  0.105607  0  3.939199  0  0  0.053739  0.090465  0  3.912293  0
C  C54  1  0.44478887  0.87829689  0.77032645  1  0  -0.13754  0  3.666264  0  0  -0.155959  0  3.910217  0  0  -0.162927  0  3.929855  0  0  -0.068481  -0.151568  0  3.897262  0
C  C55  1  0.55520948  0.12170060  0.22967357  1  0  -0.137412  0  3.666284  0  0  -0.155872  0  3.910192  0  0  -0.162832  0  3.929829  0  0  -0.068503  -0.151482  0  3.897239  0
C  C56  1  0.46325527  0.77313928  0.78416319  1  0  0.148734  0  3.880185  0  0  0.158331  0  4.109953  0  0  0.165553  0  4.127643  0  0  0.017485  0.153638  0  4.09803  0
C  C57  1  0.53674308  0.22685819  0.21583621  1  0  0.148627  0  3.880314  0  0  0.158337  0  4.10992  0  0  0.165556  0  4.127611  0  0  0.017538  0.153644  0  4.097997  0
C  C58  1  0.48542913  0.73654529  0.71095731  1  0  -0.139765  0  3.68111  0  0  -0.155984  0  3.923008  0  0  -0.163394  0  3.942942  0  0  -0.072731  -0.151336  0  3.909876  0
C  C59  1  0.51456913  0.26345067  0.28904183  1  0  -0.139828  0  3.681297  0  0  -0.156045  0  3.923137  0  0  -0.163456  0  3.943074  0  0  -0.072686  -0.151396  0  3.910005  0
C  C60  1  0.49157075  0.80383727  0.62970264  1  0  0.122728  0  3.652667  0  0  0.092829  0  3.904237  0  0  0.101218  0  3.921187  0  0  0.051237  0.087125  0  3.893159  0
C  C61  1  0.50842219  0.19616323  0.37029693  1  0  0.122614  0  3.652724  0  0  0.092753  0  3.904353  0  0  0.101143  0  3.921299  0  0  0.051117  0.087043  0  3.89327  0
C  C62  1  0.46484425  0.70929926  0.86829933  1  0  -0.040142  0  3.738145  0  0  -0.04184  0  3.985949  0  0  -0.042773  0  4.012564  0  0  -0.000405  -0.041538  0  3.968208  0
C  C63  1  0.53515424  0.29070050  0.13170076  1  0  -0.040087  0  3.738115  0  0  -0.041819  0  3.985872  0  0  -0.042751  0  4.012486  0  0  -0.000435  -0.041518  0  3.968135  0
C  C64  1  0.47517472  0.66168475  0.94342102  1  0  -0.034228  0  4.023455  0  0  -0.034577  0  4.275771  0  0  -0.037129  0  4.30263  0  0  -0.026411  -0.03293  0  4.257869  0
C  C65  1  0.52482521  0.33831576  0.05657943  1  0  -0.034244  0  4.023379  0  0  -0.034588  0  4.275691  0  0  -0.03714  0  4.302549  0  0  -0.026411  -0.03294  0  4.257793  0
C  C66  1  0.20776778  0.86195801  0.46424311  1  0  0.042299  0  3.452934  0  0  0.027909  0  3.796648  0  0  0.036737  0  3.802265  0  0  -0.014971  0.021628  0  3.793424  0
C  C67  1  0.79223505  0.13804403  0.53575929  1  0  0.042481  0  3.452789  0  0  0.028106  0  3.796482  0  0  0.036904  0  3.802142  0  0  -0.014938  0.021824  0  3.793256  0
C  C68  1  0.80403053  0.66450507  0.47230609  1  0  0.026824  0  3.473465  0  0  0.004368  0  3.831512  0  0  0.01626  0  3.831775  0  0  -0.025099  -0.004115  0  3.832037  0
C  C69  1  0.19597205  0.33549320  0.52769906  1  0  0.02688  0  3.473338  0  0  0.004382  0  3.831433  0  0  0.016272  0  3.831695  0  0  -0.025139  -0.004102  0  3.831963  0
C  C70  1  0.19296390  0.65562550  0.48450743  1  0  0.034723  0  3.453779  0  0  0.020345  0  3.796835  0  0  0.030177  0  3.801518  0  0  -0.020632  0.013608  0  3.793789  0
C  C71  1  0.80704299  0.34437426  0.51549222  1  0  0.034878  0  3.453686  0  0  0.020581  0  3.796609  0  0  0.030415  0  3.801288  0  0  -0.020504  0.013844  0  3.793563  0
C  C72  1  0.81905581  0.86898347  0.45827245  1  0  0.036703  0  3.45214  0  0  0.018347  0  3.803217  0  0  0.028222  0  3.806245  0  0  -0.016867  0.011585  0  3.801447  0
C  C73  1  0.18094400  0.13101557  0.54173635  1  0  0.036695  0  3.452206  0  0  0.018334  0  3.803278  0  0  0.02821  0  3.8063  0  0  -0.016887  0.011573  0  3.80151  0
C  C74  1  0.34641479  0.51329450  0.33918813  1  0  0.118671  0  3.669408  0  0  0.087663  0  3.923192  0  0  0.097033  0  3.93846  0  0  0.049218  0.081316  0  3.913191  0
C  C75  1  0.65358523  0.48670754  0.66081441  1  0  0.118779  0  3.669361  0  0  0.087778  0  3.923139  0  0  0.097148  0  3.938403  0  0  0.049219  0.081431  0  3.913143  0
C  C76  1  0.34282562  0.53119889  0.25140133  1  0  -0.153669  0  3.694645  0  0  -0.170768  0  3.940413  0  0  -0.177958  0  3.957787  0  0  -0.073342  -0.166271  0  3.928936  0
C  C77  1  0.65716330  0.46880466  0.74860080  1  0  -0.153798  0  3.694853  0  0  -0.170894  0  3.940611  0  0  -0.178091  0  3.957976  0  0  -0.073309  -0.166393  0  3.929136  0
C  C78  1  0.50913757  0.56064634  0.19428883  1  0  0.161506  0  3.89291  0  0  0.168119  0  4.127262  0  0  0.178279  0  4.142924  0  0  0.01664  0.161472  0  4.116568  0
C  C79  1  0.49085411  0.43935645  0.80571272  1  0  0.161426  0  3.893251  0  0  0.168067  0  4.127554  0  0  0.178237  0  4.143198  0  0  0.016599  0.161417  0  4.116865  0
C  C80  1  0.67418871  0.56731254  0.23170831  1  0  -0.153547  0  3.688823  0  0  -0.170601  0  3.935389  0  0  -0.178179  0  3.953476  0  0  -0.072744  -0.165814  0  3.923342  0
C  C81  1  0.32580441  0.43269100  0.76829177  1  0  -0.153493  0  3.688846  0  0  -0.170551  0  3.935396  0  0  -0.178132  0  3.953484  0  0  -0.072738  -0.165764  0  3.923353  0
C  C82  1  0.66651615  0.54643527  0.32046243  1  0  0.119613  0  3.678949  0  0  0.086385  0  3.938795  0  0  0.095999  0  3.954143  0  0  0.050449  0.079913  0  3.928673  0
C  C83  1  0.33348393  0.45356752  0.67953870  1  0  0.119689  0  3.678928  0  0  0.086503  0  3.9388  0  0  0.096115  0  3.954148  0  0  0.050454  0.080018  0  3.928692  0
C  C84  1  0.50518380  0.58719052  0.10454055  1  0  -0.085933  0  3.768074  0  0  -0.085964  0  4.015061  0  0  -0.091402  0  4.041533  0  0  -0.015938  -0.082483  0  3.997204  0
C  C85  1  0.49480666  0.41281530  0.89546096  1  0  -0.085885  0  3.768166  0  0  -0.085911  0  4.01512  0  0  -0.091349  0  4.041585  0  0  -0.015872  -0.08243  0  3.997266  0
C  C86  1  0.49045783  0.61827123  0.02719091  1  0  -0.00268  0  4.02308  0  0  -0.001118  0  4.2693  0  0  0.002229  0  4.29419  0  0  -0.019095  -0.003487  0  4.252655  0
C  C87  1  0.50954220  0.38173081  0.97281040  1  0  -0.002683  0  4.023105  0  0  -0.001134  0  4.269339  0  0  0.002215  0  4.294227  0  0  -0.019119  -0.003503  0  4.252695  0
C  C88  1  0.46872165  0.85074617  0.11510436  1  0  0.048779  0  3.800149  0  0  0.067045  0  4.020567  0  0  0.066696  0  4.045176  0  0  -0.010283  0.06718  0  4.003949  0
C  C89  1  0.53127970  0.14925434  0.88489294  1  0  0.048834  0  3.799944  0  0  0.06705  0  4.020438  0  0  0.066703  0  4.045046  0  0  -0.01028  0.067185  0  4.003819  0
C  C90  1  0.41678509  0.87176820  0.03044144  1  0  -0.120542  0  3.755703  0  0  -0.140399  0  4.005578  0  0  -0.142454  0  4.025766  0  0  -0.092305  -0.138796  0  3.991759  0
C  C91  1  0.58321876  0.12822777  0.96955866  1  0  -0.120607  0  3.755674  0  0  -0.140459  0  4.005561  0  0  -0.142518  0  4.025751  0  0  -0.092337  -0.138851  0  3.991744  0
C  C92  1  0.24209733  0.84253603  0.01681700  1  0  -0.079727  0  3.798532  0  0  -0.09345  0  4.048249  0  0  -0.095113  0  4.069218  0  0  -0.098384  -0.09223  0  4.033758  0
C  C93  1  0.75789286  0.15746524  0.98318254  1  0  -0.079653  0  3.798606  0  0  -0.093374  0  4.048337  0  0  -0.095037  0  4.069312  0  0  -0.098393  -0.092155  0  4.033845  0
C  C94  1  0.11174963  0.79036634  0.08736263  1  0  -0.080874  0  3.806334  0  0  -0.095168  0  4.057505  0  0  -0.096982  0  4.079149  0  0  -0.099038  -0.0937  0  4.042537  0
C  C95  1  0.88825150  0.20963116  0.91264216  1  0  -0.080879  0  3.806195  0  0  -0.095211  0  4.057337  0  0  -0.097028  0  4.078981  0  0  -0.099017  -0.093744  0  4.042375  0
C  C96  1  0.15757467  0.76887245  0.17041441  1  0  -0.123624  0  3.770405  0  0  -0.141224  0  4.016612  0  0  -0.144228  0  4.038998  0  0  -0.094766  -0.139035  0  4.001378  0
C  C97  1  0.84242817  0.23112957  0.82958245  1  0  -0.123839  0  3.770301  0  0  -0.141433  0  4.016539  0  0  -0.144437  0  4.038922  0  0  -0.094795  -0.13925  0  4.001306  0
C  C98  1  0.33587393  0.79822365  0.18662779  1  0  0.048949  0  3.798521  0  0  0.069819  0  4.012468  0  0  0.068974  0  4.038478  0  0  -0.010679  0.070311  0  3.99485  0
C  C99  1  0.66412605  0.20177762  0.81337248  1  0  0.049109  0  3.798478  0  0  0.069975  0  4.012443  0  0  0.06913  0  4.038453  0  0  -0.010681  0.070467  0  3.994829  0
C  C100  1  0.38626317  0.77757546  0.27134370  1  0  -0.113499  0  3.754189  0  0  -0.132494  0  4.003197  0  0  -0.135717  0  4.025712  0  0  -0.095431  -0.130103  0  3.987943  0
C  C101  1  0.61374918  0.22242203  0.72865560  1  0  -0.113283  0  3.754022  0  0  -0.132264  0  4.003008  0  0  -0.135486  0  4.025522  0  0  -0.095307  -0.129874  0  3.987755  0
C  C102  1  0.56009073  0.80681759  0.28573870  1  0  -0.066649  0  3.765755  0  0  -0.0804  0  4.014059  0  0  -0.081914  0  4.03593  0  0  -0.095238  -0.079371  0  3.999194  0
C  C103  1  0.43991500  0.19318595  0.71425951  1  0  -0.067003  0  3.765767  0  0  -0.080725  0  4.014102  0  0  -0.082239  0  4.035969  0  0  -0.095305  -0.079706  0  3.999249  0
C  C104  1  0.69103408  0.85896725  0.21538969  1  0  -0.075846  0  3.787812  0  0  -0.088042  0  4.036548  0  0  -0.089705  0  4.057906  0  0  -0.096242  -0.086757  0  4.021959  0
C  C105  1  0.30897263  0.14102946  0.78460762  1  0  -0.07561  0  3.787715  0  0  -0.087777  0  4.036418  0  0  -0.089439  0  4.057776  0  0  -0.096185  -0.086485  0  4.021812  0
C  C106  1  0.64630511  0.88051492  0.13205413  1  0  -0.127205  0  3.757049  0  0  -0.145393  0  4.002038  0  0  -0.148069  0  4.023182  0  0  -0.095407  -0.143473  0  3.987652  0
C  C107  1  0.35369777  0.11948786  0.86794440  1  0  -0.127297  0  3.757101  0  0  -0.145469  0  4.002101  0  0  -0.148147  0  4.023245  0  0  -0.095412  -0.143548  0  3.987716  0
C  C108  1  0.93027370  0.78596335  0.83623182  1  0  0.050299  0  3.795585  0  0  0.068482  0  4.016603  0  0  0.068256  0  4.041383  0  0  -0.010988  0.068659  0  3.999786  0
C  C109  1  0.06971636  0.21403564  0.16376642  1  0  0.05025  0  3.795668  0  0  0.068491  0  4.016626  0  0  0.068265  0  4.041409  0  0  -0.010957  0.06867  0  3.999811  0
C  C110  1  0.87923304  0.85771751  0.88233976  1  0  -0.130322  0  3.769415  0  0  -0.146993  0  4.01481  0  0  -0.149993  0  4.035856  0  0  -0.096995  -0.144837  0  4.000363  0
C  C111  1  0.12076106  0.14227921  0.11766004  1  0  -0.130372  0  3.76946  0  0  -0.147056  0  4.014857  0  0  -0.150058  0  4.035906  0  0  -0.096993  -0.144899  0  4.000409  0
C  C112  1  0.86288490  0.95840021  0.83952369  1  0  -0.078327  0  3.793285  0  0  -0.090287  0  4.038665  0  0  -0.091362  0  4.060698  0  0  -0.098858  -0.089379  0  4.023495  0
C  C113  1  0.13711061  0.04159651  0.16047603  1  0  -0.078262  0  3.793326  0  0  -0.090262  0  4.038694  0  0  -0.091337  0  4.06073  0  0  -0.098853  -0.089351  0  4.023523  0
C  C114  1  0.89439695  0.99155473  0.74830242  1  0  -0.080115  0  3.797661  0  0  -0.09282  0  4.049869  0  0  -0.09586  0  4.072251  0  0  -0.100014  -0.09072  0  4.034728  0
C  C115  1  0.10560285  0.00844350  0.25169673  1  0  -0.080149  0  3.797764  0  0  -0.092882  0  4.050021  0  0  -0.095919  0  4.072397  0  0  -0.10002  -0.090782  0  4.034883  0
C  C116  1  0.94090065  0.92365832  0.70135593  1  0  -0.09763  0  3.710959  0  0  -0.118378  0  3.955786  0  0  -0.119746  0  3.976913  0  0  -0.087019  -0.117416  0  3.941631  0
C  C117  1  0.05909644  0.07634143  0.29864239  1  0  -0.097454  0  3.710874  0  0  -0.118221  0  3.955704  0  0  -0.119588  0  3.976834  0  0  -0.086996  -0.117265  0  3.941554  0
C  C118  1  0.96008470  0.81975043  0.74367543  1  0  0.053403  0  3.77654  0  0  0.071921  0  3.995997  0  0  0.071513  0  4.02044  0  0  -0.008648  0.072153  0  3.979531  0
C  C119  1  0.03991519  0.18024932  0.25632336  1  0  0.053442  0  3.776653  0  0  0.071896  0  3.996203  0  0  0.071489  0  4.020642  0  0  -0.008613  0.072127  0  3.979738  0
C  C120  1  0.00744855  0.74786105  0.69739359  1  0  -0.104976  0  3.749432  0  0  -0.122326  0  3.997605  0  0  -0.12466  0  4.018636  0  0  -0.094963  -0.120628  0  3.983566  0
C  C121  1  0.99255116  0.25213567  0.30260469  1  0  -0.105078  0  3.749487  0  0  -0.122457  0  3.997711  0  0  -0.12478  0  4.018747  0  0  -0.095077  -0.120756  0  3.983669  0
C  C122  1  0.02664899  0.64757544  0.74008348  1  0  -0.090338  0  3.825988  0  0  -0.10387  0  4.078137  0  0  -0.106773  0  4.102071  0  0  -0.105598  -0.101776  0  4.061766  0
C  C123  1  0.97335384  0.35242659  0.25991646  1  0  -0.090354  0  3.825794  0  0  -0.103867  0  4.077934  0  0  -0.10677  0  4.101868  0  0  -0.10554  -0.101771  0  4.06156  0
C  C124  1  0.99934162  0.61439440  0.83134916  1  0  -0.087098  0  3.820223  0  0  -0.101331  0  4.073477  0  0  -0.103501  0  4.096059  0  0  -0.102931  -0.09961  0  4.05775  0
C  C125  1  0.00066938  0.38560383  0.16864758  1  0  -0.08697  0  3.820149  0  0  -0.101146  0  4.073378  0  0  -0.103313  0  4.095961  0  0  -0.10285  -0.099423  0  4.05765  0
C  C126  1  0.95163047  0.68218658  0.87833056  1  0  -0.114583  0  3.767035  0  0  -0.132151  0  4.011682  0  0  -0.134714  0  4.033409  0  0  -0.091641  -0.130265  0  3.996698  0
C  C127  1  0.04836676  0.31781545  0.12167028  1  0  -0.114636  0  3.767022  0  0  -0.1322  0  4.011656  0  0  -0.134763  0  4.033383  0  0  -0.091699  -0.130314  0  3.996674  0
N  N128  1  0.47857285  0.90502958  0.61694471  1  0  -0.205144  0  3.329586  0  0  -0.155552  0  3.596104  0  0  -0.175892  0  3.615264  0  0  -0.322883  -0.142745  0  3.582273  0
N  N129  1  0.52142559  0.09496942  0.38305433  1  0  -0.205101  0  3.329584  0  0  -0.155486  0  3.596049  0  0  -0.175828  0  3.615216  0  0  -0.32284  -0.142657  0  3.582194  0
N  N130  1  0.32412258  0.91724899  0.47172264  1  0  -0.320526  0  3.339014  0  0  -0.293131  0  3.648071  0  0  -0.307906  0  3.662981  0  0  -0.388652  -0.284264  0  3.636299  0
N  N131  1  0.67588025  0.08275304  0.52827792  1  0  -0.320703  0  3.338811  0  0  -0.293324  0  3.647896  0  0  -0.308086  0  3.662791  0  0  -0.388683  -0.284457  0  3.636126  0
N  N132  1  0.68269771  0.60453938  0.48040285  1  0  -0.332942  0  3.360463  0  0  -0.303624  0  3.670752  0  0  -0.319288  0  3.684596  0  0  -0.394241  -0.29424  0  3.660123  0
N  N133  1  0.31730367  0.39546190  0.51959981  1  0  -0.33294  0  3.360284  0  0  -0.303595  0  3.670538  0  0  -0.319258  0  3.684382  0  0  -0.394178  -0.294214  0  3.659913  0
N  N134  1  0.30812261  0.59473442  0.49479322  1  0  -0.32839  0  3.327389  0  0  -0.29977  0  3.632809  0  0  -0.31635  0  3.648895  0  0  -0.389419  -0.28961  0  3.620288  0
N  N135  1  0.69188003  0.40526458  0.50520745  1  0  -0.328546  0  3.327362  0  0  -0.299969  0  3.632834  0  0  -0.31655  0  3.648914  0  0  -0.389514  -0.28981  0  3.620315  0
N  N136  1  0.50553405  0.52064082  0.37452973  1  0  -0.204033  0  3.327529  0  0  -0.1542  0  3.595677  0  0  -0.173755  0  3.613912  0  0  -0.324599  -0.141842  0  3.58243  0
N  N137  1  0.49446314  0.47936044  0.62546883  1  0  -0.204167  0  3.327558  0  0  -0.154363  0  3.595756  0  0  -0.173914  0  3.613987  0  0  -0.324671  -0.142008  0  3.582516  0
N  N138  1  0.69866822  0.92370446  0.46728795  1  0  -0.323415  0  3.337711  0  0  -0.29503  0  3.647255  0  0  -0.309627  0  3.661317  0  0  -0.386117  -0.286405  0  3.636243  0
N  N139  1  0.30133035  0.07629683  0.53271484  1  0  -0.323426  0  3.337745  0  0  -0.295029  0  3.647265  0  0  -0.309627  0  3.661324  0  0  -0.386122  -0.286406  0  3.636256  0
