# generated using pymatgen
data_NdMn2H15C21O13
_symmetry_space_group_name_H-M   'P 1'
_cell_length_a   6.90709281
_cell_length_b   11.67785004
_cell_length_c   15.00700000
_cell_angle_alpha   89.97003193
_cell_angle_beta   89.14635822
_cell_angle_gamma   85.14186334
_symmetry_Int_Tables_number   1
_chemical_formula_structural   NdMn2H15C21O13
_chemical_formula_sum   'Nd2 Mn4 H30 C42 O26'
_cell_volume   1205.98167092
_cell_formula_units_Z   2
loop_
 _symmetry_equiv_pos_site_id
 _symmetry_equiv_pos_as_xyz
  1  'x, y, z'
loop_
 _atom_site_type_symbol
 _atom_site_label
 _atom_site_symmetry_multiplicity
 _atom_site_fract_x
 _atom_site_fract_y
 _atom_site_fract_z
 _atom_site_occupancy
 _atom_site_hle17_bader_spin_density
 _atom_site_hle17_ddec_charge
 _atom_site_hle17_ddec_spin_density
 _atom_site_hle17_ddec_sum_bond_order
 _atom_site_hle17_magmom
 _atom_site_hse06_10hf_bader_spin_density
 _atom_site_hse06_10hf_ddec_charge
 _atom_site_hse06_10hf_ddec_spin_density
 _atom_site_hse06_10hf_ddec_sum_bond_order
 _atom_site_hse06_10hf_magmom
 _atom_site_hse06_bader_spin_density
 _atom_site_hse06_ddec_charge
 _atom_site_hse06_ddec_spin_density
 _atom_site_hse06_ddec_sum_bond_order
 _atom_site_hse06_magmom
 _atom_site_pbe_bader_charge
 _atom_site_pbe_bader_spin_density
 _atom_site_pbe_cm5_charge
 _atom_site_pbe_ddec_charge
 _atom_site_pbe_ddec_spin_density
 _atom_site_pbe_ddec_sum_bond_order
 _atom_site_pbe_magmom
Nd  Nd0  1  0.25595591  0.06017673  0.43556031  1  0  2.282417  0  1.641849  0  0  2.11612  0  2.106957  0  0  2.215885  0  1.960377  0  2.245753  0  1.508277  2.081692  0  2.141289  0
Nd  Nd1  1  0.74405699  0.93982469  0.56443947  1  0  2.282478  0  1.641797  0  0  2.116202  0  2.106865  0  0  2.215946  0  1.960323  0  2.245617  0  1.508327  2.081777  0  2.141193  0
Mn  Mn2  1  0.10412966  0.24148210  0.07937694  1  0  -0.201362  0  5.031242  0  0  -0.101524  0  5.477524  0  0  -0.148905  0  5.523592  0  0.927806  0  0.474158  -0.066875  0  5.438771  0
Mn  Mn3  1  0.89586719  0.75852018  0.92062495  1  0  -0.201206  0  5.031161  0  0  -0.101444  0  5.477569  0  0  -0.148781  0  5.523545  0  0.927905  0  0.474146  -0.066787  0  5.438801  0
Mn  Mn4  1  0.50788274  0.36629418  0.74031715  1  0  -0.175857  0  4.981955  0  0  -0.084104  0  5.439415  0  0  -0.131687  0  5.486651  0  0.93387  0  0.478859  -0.049673  0  5.400573  0
Mn  Mn5  1  0.49210931  0.63370123  0.25968477  1  0  -0.17598  0  4.981611  0  0  -0.084223  0  5.439045  0  0  -0.131832  0  5.486325  0  0.933545  0  0.478817  -0.049797  0  5.400215  0
H  H6  1  0.88643302  0.19786018  0.49563630  1  0  0.383246  0  0.908712  0  0  0.361724  0  0.973506  0  0  0.371363  0  0.964149  0  0.654066  0  0.310169  0.354801  0  0.980896  0
H  H7  1  0.11357603  0.80213780  0.50436217  1  0  0.383212  0  0.908705  0  0  0.36172  0  0.973449  0  0  0.371359  0  0.964091  0  0.654037  0  0.310185  0.354795  0  0.980842  0
H  H8  1  0.24900567  0.00158303  0.08734502  1  0  0.133237  0  0.943119  0  0  0.140238  0  1.006553  0  0  0.14218  0  1.005466  0  0.160323  0  0.121518  0.138621  0  1.007632  0
H  H9  1  0.75099310  0.99842612  0.91265885  1  0  0.133305  0  0.943091  0  0  0.140327  0  1.006485  0  0  0.142269  0  1.005402  0  0.160585  0  0.121561  0.13871  0  1.007562  0
H  H10  1  0.32939668  0.11953358  0.93828105  1  0  0.123192  0  0.93157  0  0  0.136051  0  0.986438  0  0  0.13718  0  0.988167  0  0.121285  0  0.119326  0.135012  0  0.985704  0
H  H11  1  0.67059125  0.88047042  0.06171690  1  0  0.123229  0  0.931631  0  0  0.136093  0  0.986474  0  0  0.13722  0  0.988205  0  0.121249  0  0.119349  0.135055  0  0.98574  0
H  H12  1  0.43798434  0.32831772  0.99016821  1  0  0.118908  0  0.954431  0  0  0.130409  0  1.010652  0  0  0.130417  0  1.013163  0  0.114365  0  0.116738  0.130046  0  1.009468  0
H  H13  1  0.56201058  0.67168800  0.00982636  1  0  0.118918  0  0.954345  0  0  0.130423  0  1.010546  0  0  0.13043  0  1.01306  0  0.11459  0  0.116763  0.130061  0  1.009363  0
H  H14  1  0.42355986  0.33612374  0.16893656  1  0  0.121176  0  0.948774  0  0  0.133891  0  1.0069  0  0  0.134792  0  1.008423  0  0.124108  0  0.117509  0.13307  0  1.006178  0
H  H15  1  0.57644603  0.66388628  0.83105860  1  0  0.121201  0  0.948827  0  0  0.133932  0  1.006927  0  0  0.134825  0  1.008453  0  0.124211  0  0.117511  0.133112  0  1.006205  0
H  H16  1  0.87944448  0.29728873  0.66149436  1  0  0.136054  0  0.94216  0  0  0.144729  0  1.000397  0  0  0.146791  0  0.999318  0  0.166535  0  0.125597  0.143022  0  1.001426  0
H  H17  1  0.12055817  0.70271355  0.33850616  1  0  0.136074  0  0.942107  0  0  0.144709  0  1.000392  0  0  0.146768  0  0.99932  0  0.166549  0  0.125589  0.143006  0  1.001422  0
H  H18  1  0.82698507  0.51237578  0.72919973  1  0  0.126665  0  0.9504  0  0  0.137312  0  1.007534  0  0  0.137813  0  1.009754  0  0.134629  0  0.119654  0.136581  0  1.006554  0
H  H19  1  0.17301348  0.48762478  0.27080614  1  0  0.126614  0  0.950577  0  0  0.137259  0  1.007715  0  0  0.13776  0  1.009933  0  0.134665  0  0.119628  0.136528  0  1.006736  0
H  H20  1  0.47296694  0.60505968  0.67902340  1  0  0.13103  0  0.926705  0  0  0.142115  0  0.982257  0  0  0.144362  0  0.981337  0  0.132084  0  0.122153  0.140311  0  0.983247  0
H  H21  1  0.52703462  0.39494002  0.32097646  1  0  0.131065  0  0.926727  0  0  0.142136  0  0.982291  0  0  0.144382  0  0.981374  0  0.13196  0  0.122147  0.140333  0  0.98328  0
H  H22  1  0.30735432  0.44558074  0.58011464  1  0  0.11785  0  0.944356  0  0  0.130988  0  1.001929  0  0  0.132919  0  1.001719  0  0.109412  0  0.117936  0.129499  0  1.002278  0
H  H23  1  0.69265834  0.55442240  0.41988047  1  0  0.117812  0  0.944355  0  0  0.130928  0  1.001949  0  0  0.132857  0  1.001742  0  0.10936  0  0.117902  0.129443  0  1.0023  0
H  H24  1  0.66348421  0.00288332  0.23809604  1  0  0.149236  0  0.932891  0  0  0.168741  0  0.990437  0  0  0.170658  0  0.99024  0  0.067596  0  0.107292  0.167344  0  0.990507  0
H  H25  1  0.33652697  0.99713013  0.76190575  1  0  0.149158  0  0.932878  0  0  0.168701  0  0.990421  0  0  0.170618  0  0.990224  0  0.067624  0  0.107294  0.167303  0  0.990493  0
H  H26  1  0.75149405  0.13493076  0.26900807  1  0  0.151867  0  0.917103  0  0  0.17412  0  0.971457  0  0  0.176113  0  0.970909  0  0.088961  0  0.112337  0.172717  0  0.971691  0
H  H27  1  0.24850894  0.86507925  0.73099977  1  0  0.151844  0  0.917014  0  0  0.174112  0  0.971377  0  0  0.176096  0  0.970841  0  0.089134  0  0.112337  0.172713  0  0.971605  0
H  H28  1  0.92158193  0.01397830  0.24698209  1  0  0.159667  0  0.952655  0  0  0.175731  0  1.013034  0  0  0.178321  0  1.012254  0  0.119676  0  0.108355  0.173787  0  1.013728  0
H  H29  1  0.07842467  0.98603687  0.75301506  1  0  0.159663  0  0.952539  0  0  0.175727  0  1.012943  0  0  0.178316  0  1.012161  0  0.11982  0  0.10841  0.173784  0  1.013638  0
H  H30  1  0.02474758  0.37567635  0.51457845  1  0  0.063867  0  0.950736  0  0  0.084143  0  1.015743  0  0  0.08477  0  1.015135  0  0.051314  0  0.091792  0.083729  0  1.016024  0
H  H31  1  0.97525738  0.62431991  0.48542072  1  0  0.063835  0  0.950745  0  0  0.084101  0  1.015757  0  0  0.084728  0  1.015152  0  0.050768  0  0.091773  0.083688  0  1.016035  0
H  H32  1  0.87255757  0.37930392  0.41819375  1  0  0.068282  0  0.944913  0  0  0.089297  0  1.007013  0  0  0.089375  0  1.006843  0  0.024043  0  0.09316  0.0892  0  1.007032  0
H  H33  1  0.12745016  0.62069320  0.58180740  1  0  0.06824  0  0.94488  0  0  0.089265  0  1.006973  0  0  0.089345  0  1.006802  0  0.023949  0  0.093132  0.089166  0  1.006998  0
H  H34  1  0.13003079  0.35283496  0.40567230  1  0  0.094726  0  0.957556  0  0  0.112172  0  1.023111  0  0  0.112376  0  1.024147  0  0.104258  0  0.107003  0.111836  0  1.022795  0
H  H35  1  0.86997512  0.64716474  0.59432753  1  0  0.094697  0  0.957499  0  0  0.112112  0  1.023094  0  0  0.112315  0  1.024131  0  0.104187  0  0.106982  0.111775  0  1.02278  0
C  C36  1  0.29973764  0.12707146  0.25478441  1  0  0.637825  0  3.964267  0  0  0.595901  0  4.256095  0  0  0.627759  0  4.25773  0  1.560041  0  0.189063  0.573436  0  4.258876  0
C  C37  1  0.70026609  0.87293340  0.74521743  1  0  0.637835  0  3.963938  0  0  0.595844  0  4.255852  0  0  0.627698  0  4.257493  0  1.559956  0  0.189061  0.573381  0  4.258636  0
C  C38  1  0.32624971  0.15816233  0.16000810  1  0  -0.06139  0  3.679389  0  0  -0.048508  0  3.931361  0  0  -0.05811  0  3.953841  0  -0.11991  0  -0.055966  -0.042768  0  3.916593  0
C  C39  1  0.67375728  0.84183995  0.83999372  1  0  -0.06118  0  3.678931  0  0  -0.04821  0  3.930806  0  0  -0.057815  0  3.953298  0  -0.119862  0  -0.055891  -0.042472  0  3.916038  0
C  C40  1  0.29602746  0.08776292  0.08432275  1  0  -0.040555  0  3.591825  0  0  -0.08186  0  3.868383  0  0  -0.08009  0  3.885983  0  -0.131777  0  -0.106777  -0.083322  0  3.856911  0
C  C41  1  0.70398533  0.91223936  0.91568169  1  0  -0.040762  0  3.591845  0  0  -0.082133  0  3.868498  0  0  -0.080344  0  3.886041  0  -0.132385  0  -0.10687  -0.083596  0  3.85703  0
C  C42  1  0.33924377  0.15030474  0.00609265  1  0  -0.063373  0  3.623479  0  0  -0.099049  0  3.912127  0  0  -0.104459  0  3.935315  0  -0.145721  0  -0.119544  -0.096349  0  3.89757  0
C  C43  1  0.66075996  0.84970011  0.99390985  1  0  -0.063416  0  3.623753  0  0  -0.099097  0  3.912345  0  0  -0.104506  0  3.935538  0  -0.145634  0  -0.11955  -0.0964  0  3.897793  0
C  C44  1  0.39656341  0.25990183  0.03334941  1  0  -0.041253  0  3.637573  0  0  -0.074554  0  3.917917  0  0  -0.078016  0  3.942677  0  -0.131609  0  -0.113561  -0.073017  0  3.902504  0
C  C45  1  0.60342932  0.74010904  0.96665117  1  0  -0.041277  0  3.637514  0  0  -0.074535  0  3.917794  0  0  -0.077999  0  3.942555  0  -0.131671  0  -0.113559  -0.072998  0  3.902381  0
C  C46  1  0.38855195  0.26505829  0.12763094  1  0  -0.066263  0  3.621428  0  0  -0.106094  0  3.894556  0  0  -0.107978  0  3.916717  0  -0.104725  0  -0.117286  -0.105498  0  3.880469  0
C  C47  1  0.61145178  0.73494657  0.87236557  1  0  -0.066279  0  3.621383  0  0  -0.106144  0  3.894482  0  0  -0.108029  0  3.916645  0  -0.104768  0  -0.117291  -0.105548  0  3.880393  0
C  C48  1  0.55593917  0.22758545  0.55522300  1  0  0.720053  0  3.854714  0  0  0.673305  0  4.147571  0  0  0.708601  0  4.14091  0  1.596398  0  0.239965  0.649348  0  4.153974  0
C  C49  1  0.44406964  0.77241426  0.44477481  1  0  0.720107  0  3.854834  0  0  0.673409  0  4.147615  0  0  0.708708  0  4.14095  0  1.596564  0  0.240102  0.649451  0  4.154017  0
C  C50  1  0.58426874  0.33588310  0.60330611  1  0  -0.083902  0  3.673808  0  0  -0.071323  0  3.927068  0  0  -0.080978  0  3.948103  0  -0.12698  0  -0.059348  -0.065509  0  3.912824  0
C  C51  1  0.41573837  0.66411832  0.39669437  1  0  -0.08386  0  3.673835  0  0  -0.071324  0  3.927122  0  0  -0.080981  0  3.948159  0  -0.127179  0  -0.059357  -0.065508  0  3.912877  0
C  C52  1  0.75361077  0.35808595  0.65239510  1  0  -0.060577  0  3.631705  0  0  -0.098454  0  3.90403  0  0  -0.097282  0  3.922589  0  -0.192989  0  -0.113761  -0.09948  0  3.891835  0
C  C53  1  0.24638935  0.64191375  0.34760677  1  0  -0.060674  0  3.631689  0  0  -0.098515  0  3.904039  0  0  -0.097341  0  3.922597  0  -0.193014  0  -0.113813  -0.099544  0  3.891847  0
C  C54  1  0.72486203  0.47102614  0.68838954  1  0  -0.07432  0  3.629667  0  0  -0.101971  0  3.905638  0  0  -0.107163  0  3.928975  0  -0.135882  0  -0.120872  -0.099289  0  3.890808  0
C  C55  1  0.27513677  0.52897270  0.31161634  1  0  -0.074221  0  3.629867  0  0  -0.101869  0  3.90582  0  0  -0.107061  0  3.92916  0  -0.134735  0  -0.120856  -0.099183  0  3.890981  0
C  C56  1  0.53632605  0.51940919  0.66207486  1  0  -0.044649  0  3.61937  0  0  -0.07559  0  3.897648  0  0  -0.076569  0  3.915882  0  -0.096634  0  -0.109709  -0.075444  0  3.885939  0
C  C57  1  0.46368132  0.48059051  0.33792230  1  0  -0.044787  0  3.619444  0  0  -0.075723  0  3.89773  0  0  -0.076707  0  3.915973  0  -0.097526  0  -0.109783  -0.075573  0  3.886018  0
C  C58  1  0.44954518  0.43654490  0.61026878  1  0  -0.065776  0  3.627883  0  0  -0.101706  0  3.897156  0  0  -0.101988  0  3.916035  0  -0.154496  0  -0.116031  -0.101858  0  3.884669  0
C  C59  1  0.55046169  0.56345824  0.38972837  1  0  -0.065754  0  3.627814  0  0  -0.101638  0  3.897102  0  0  -0.101917  0  3.915977  0  -0.154522  0  -0.115985  -0.101798  0  3.884622  0
C  C60  1  0.90883698  0.15371574  0.07049031  1  0  0.214221  0  3.415829  0  0  0.150668  0  3.755869  0  0  0.18701  0  3.755048  0  0.853998  0  0.024604  0.126699  0  3.753586  0
C  C61  1  0.09115880  0.84628396  0.92951625  1  0  0.21417  0  3.415391  0  0  0.150656  0  3.755406  0  0  0.186997  0  3.754591  0  0.853979  0  0.024584  0.126684  0  3.753121  0
C  C62  1  0.00985605  0.33526777  0.99364017  1  0  0.225239  0  3.414569  0  0  0.157723  0  3.767918  0  0  0.193996  0  3.766202  0  0.888989  0  0.030499  0.133781  0  3.766344  0
C  C63  1  0.99012152  0.66472764  0.00636319  1  0  0.225028  0  3.41439  0  0  0.157508  0  3.76775  0  0  0.193773  0  3.766041  0  0.88903  0  0.030338  0.133566  0  3.766172  0
C  C64  1  0.98591558  0.32468585  0.16599868  1  0  0.210664  0  3.42345  0  0  0.144904  0  3.776227  0  0  0.182237  0  3.773087  0  0.85098  0  0.019451  0.120482  0  3.7752  0
C  C65  1  0.01406923  0.67530955  0.83399863  1  0  0.210652  0  3.42355  0  0  0.144895  0  3.776342  0  0  0.182217  0  3.773207  0  0.85106  0  0.019438  0.120474  0  3.775319  0
C  C66  1  0.63297383  0.26046045  0.80873416  1  0  0.228703  0  3.388526  0  0  0.165804  0  3.736414  0  0  0.201881  0  3.73413  0  0.879379  0  0.038247  0.142041  0  3.735269  0
C  C67  1  0.36702832  0.73954527  0.19126169  1  0  0.228836  0  3.388851  0  0  0.165965  0  3.736727  0  0  0.202042  0  3.73442  0  0.880051  0  0.038379  0.142208  0  3.735587  0
C  C68  1  0.43528025  0.44817100  0.83636173  1  0  0.200806  0  3.428338  0  0  0.135243  0  3.784726  0  0  0.171065  0  3.78417  0  0.87309  0  0.022905  0.11167  0  3.782504  0
C  C69  1  0.56469636  0.55182097  0.16362897  1  0  0.20088  0  3.428811  0  0  0.135317  0  3.785227  0  0  0.171138  0  3.784649  0  0.873546  0  0.022987  0.111751  0  3.783012  0
C  C70  1  0.29324501  0.29305700  0.74382781  1  0  0.206605  0  3.408848  0  0  0.143338  0  3.752126  0  0  0.17999  0  3.750692  0  0.865071  0  0.025318  0.119434  0  3.750023  0
C  C71  1  0.70675209  0.70694356  0.25616741  1  0  0.206662  0  3.409126  0  0  0.143385  0  3.7524  0  0  0.180037  0  3.750942  0  0.865874  0  0.025326  0.119485  0  3.750305  0
C  C72  1  0.76614070  0.00986087  0.37114485  1  0  0.836044  0  3.748362  0  0  0.797159  0  4.036717  0  0  0.832303  0  4.029761  0  1.523748  0  0.241326  0.772894  0  4.045016  0
C  C73  1  0.23387196  0.99014227  0.62885359  1  0  0.836071  0  3.748291  0  0  0.797243  0  4.036592  0  0  0.832391  0  4.029631  0  1.523785  0  0.241295  0.77294  0  4.044953  0
C  C74  1  0.77784650  0.04100931  0.27483881  1  0  -0.472073  0  3.633793  0  0  -0.553086  0  3.868351  0  0  -0.560308  0  3.870565  0  -0.094814  0  -0.235499  -0.547715  0  3.866412  0
C  C75  1  0.22216071  0.95900156  0.72516167  1  0  -0.471956  0  3.633386  0  0  -0.553067  0  3.868064  0  0  -0.560284  0  3.870278  0  -0.095125  0  -0.235612  -0.54769  0  3.866137  0
C  C76  1  0.00497494  0.33835219  0.44840684  1  0  -0.001285  0  3.655665  0  0  -0.098149  0  3.927884  0  0  -0.091218  0  3.933464  0  0.387633  0  -0.144447  -0.102754  0  3.925282  0
C  C77  1  0.99503254  0.66164666  0.55159231  1  0  -0.001158  0  3.655517  0  0  -0.097984  0  3.927697  0  0  -0.091058  0  3.93329  0  0.387869  0  -0.144375  -0.102587  0  3.925093  0
O  O78  1  0.33022111  0.20044958  0.31533915  1  0  -0.690986  0  1.916272  0  0  -0.643382  0  2.147066  0  0  -0.672299  0  2.139412  0  -1.187071  0  -0.38331  -0.626898  0  2.151707  0
O  O79  1  0.66978671  0.79955699  0.68466333  1  0  -0.691037  0  1.916219  0  0  -0.643464  0  2.147105  0  0  -0.672377  0  2.139449  0  -1.186811  0  -0.38337  -0.626984  0  2.15175  0
O  O80  1  0.25037111  0.02655748  0.27394240  1  0  -0.690497  0  1.945318  0  0  -0.645793  0  2.180377  0  0  -0.676583  0  2.172643  0  -1.178799  0  -0.389702  -0.628647  0  2.185133  0
O  O81  1  0.74962488  0.97345082  0.72605216  1  0  -0.690532  0  1.945144  0  0  -0.645783  0  2.180178  0  0  -0.676573  0  2.172447  0  -1.178923  0  -0.389715  -0.628634  0  2.184929  0
O  O82  1  0.39650371  0.21776067  0.51720251  1  0  -0.680504  0  1.988211  0  0  -0.631783  0  2.233335  0  0  -0.662978  0  2.222288  0  -1.185839  0  -0.361261  -0.614848  0  2.239418  0
O  O83  1  0.60349727  0.78223301  0.48280335  1  0  -0.680569  0  1.988287  0  0  -0.631836  0  2.23336  0  0  -0.663031  0  2.222318  0  -1.185913  0  -0.361354  -0.614897  0  2.239431  0
O  O84  1  0.70249998  0.15142112  0.55500334  1  0  -0.739593  0  2.065353  0  0  -0.682507  0  2.310237  0  0  -0.714281  0  2.298441  0  -1.202531  0  -0.379769  -0.665059  0  2.317518  0
O  O85  1  0.29750858  0.84858030  0.44499514  1  0  -0.739599  0  2.065332  0  0  -0.682589  0  2.310279  0  0  -0.714361  0  2.298467  0  -1.202522  0  -0.37985  -0.665139  0  2.31756  0
O  O86  1  0.78446312  0.09210466  0.06527441  1  0  -0.222997  0  2.220115  0  0  -0.152768  0  2.438966  0  0  -0.16869  0  2.434896  0  -1.119703  0  -0.155807  -0.141661  0  2.440942  0
O  O87  1  0.21554967  0.90789762  0.93472804  1  0  -0.223086  0  2.21968  0  0  -0.152885  0  2.438539  0  0  -0.168817  0  2.434486  0  -1.119759  0  -0.155859  -0.141775  0  2.440515  0
O  O88  1  0.95173410  0.39507838  0.93588989  1  0  -0.228895  0  2.186725  0  0  -0.174038  0  2.41121  0  0  -0.191433  0  2.405394  0  -1.119236  0  -0.161711  -0.162339  0  2.414294  0
O  O89  1  0.04821900  0.60490585  0.06411230  1  0  -0.228712  0  2.186434  0  0  -0.17383  0  2.410894  0  0  -0.191224  0  2.405082  0  -1.119342  0  -0.161528  -0.162134  0  2.413978  0
O  O90  1  0.91167671  0.37613957  0.22626490  1  0  -0.250016  0  2.195184  0  0  -0.190228  0  2.424513  0  0  -0.205375  0  2.416596  0  -1.13619  0  -0.170401  -0.179601  0  2.428757  0
O  O91  1  0.08830314  0.62386013  0.77373644  1  0  -0.249965  0  2.195421  0  0  -0.190179  0  2.424753  0  0  -0.205325  0  2.416845  0  -1.136184  0  -0.170317  -0.179551  0  2.428988  0
O  O92  1  0.71555300  0.19289881  0.85474169  1  0  -0.207409  0  2.202014  0  0  -0.151469  0  2.426637  0  0  -0.167793  0  2.419738  0  -1.102065  0  -0.147462  -0.140307  0  2.430251  0
O  O93  1  0.28443905  0.80709659  0.14526690  1  0  -0.207438  0  2.202629  0  0  -0.15151  0  2.427245  0  0  -0.167835  0  2.420354  0  -1.102693  0  -0.147508  -0.140355  0  2.430866  0
O  O94  1  0.39062911  0.50177582  0.90036235  1  0  -0.218332  0  2.201252  0  0  -0.16142  0  2.426107  0  0  -0.179197  0  2.420851  0  -1.126375  0  -0.155632  -0.149444  0  2.428906  0
O  O95  1  0.60933940  0.49822216  0.09964173  1  0  -0.218254  0  2.202037  0  0  -0.16135  0  2.426906  0  0  -0.179117  0  2.421635  0  -1.126689  0  -0.155608  -0.14938  0  2.429709  0
O  O96  1  0.15344316  0.24298349  0.74504804  1  0  -0.216111  0  2.192182  0  0  -0.15312  0  2.404957  0  0  -0.169464  0  2.398432  0  -1.131099  0  -0.154655  -0.141881  0  2.408328  0
O  O97  1  0.84654636  0.75700934  0.25493524  1  0  -0.216168  0  2.192568  0  0  -0.153158  0  2.405341  0  0  -0.169489  0  2.398788  0  -1.131759  0  -0.154659  -0.141922  0  2.40872  0
O  O98  1  0.60049903  0.00566007  0.40989216  1  0  -0.831879  0  2.123105  0  0  -0.771023  0  2.379956  0  0  -0.808868  0  2.367592  0  -1.217247  0  -0.430583  -0.752484  0  2.386523  0
O  O99  1  0.39951317  0.99433619  0.59010696  1  0  -0.831917  0  2.123192  0  0  -0.771071  0  2.379997  0  0  -0.808901  0  2.367604  0  -1.217496  0  -0.430522  -0.752515  0  2.386566  0
O  O100  1  0.92004295  0.98700715  0.41672255  1  0  -0.792857  0  2.026982  0  0  -0.737045  0  2.281155  0  0  -0.772075  0  2.266985  0  -1.214581  0  -0.407759  -0.720194  0  2.289721  0
O  O101  1  0.07996466  0.01299084  0.58327660  1  0  -0.792917  0  2.027191  0  0  -0.737112  0  2.281318  0  0  -0.77215  0  2.267152  0  -1.214419  0  -0.407726  -0.720248  0  2.289901  0
O  O102  1  0.99391520  0.21667008  0.45410866  1  0  -0.618871  0  2.207287  0  0  -0.551266  0  2.453603  0  0  -0.576357  0  2.442675  0  -1.202916  0  -0.472368  -0.538138  0  2.460321  0
O  O103  1  0.00609216  0.78332962  0.54589115  1  0  -0.618879  0  2.207269  0  0  -0.551304  0  2.453583  0  0  -0.576393  0  2.442655  0  -1.202767  0  -0.472394  -0.538174  0  2.460295  0
