# generated using pymatgen
data_ZnH28C14(NO6)2
_symmetry_space_group_name_H-M   'P 1'
_cell_length_a   7.34822714
_cell_length_b   8.43627623
_cell_length_c   7.87304830
_cell_angle_alpha   89.03369897
_cell_angle_beta   94.46841022
_cell_angle_gamma   74.63629891
_symmetry_Int_Tables_number   1
_chemical_formula_structural   ZnH28C14(NO6)2
_chemical_formula_sum   'Zn1 H28 C14 N2 O12'
_cell_volume   468.83403203
_cell_formula_units_Z   1
loop_
 _symmetry_equiv_pos_site_id
 _symmetry_equiv_pos_as_xyz
  1  'x, y, z'
loop_
 _atom_site_type_symbol
 _atom_site_label
 _atom_site_symmetry_multiplicity
 _atom_site_fract_x
 _atom_site_fract_y
 _atom_site_fract_z
 _atom_site_occupancy
 _atom_site_pbe_bader_spin_density
 _atom_site_pbe_cm5_charge
 _atom_site_pbe_ddec_charge
 _atom_site_pbe_ddec_spin_density
 _atom_site_pbe_ddec_sum_bond_order
 _atom_site_pbe_magmom
Zn  Zn0  1  0.49999513  0.50001272  0.50001515  1  0  0.659115  1.001505  0  2.130485  0
H  H1  1  0.57962073  0.22476862  0.37255318  1  0  0.283248  0.360243  0  0.995152  0
H  H2  1  0.42034144  0.77526047  0.62745576  1  0  0.28322  0.360195  0  0.995219  0
H  H3  1  0.72903989  0.31588700  0.30232741  1  0  0.28732  0.378896  0  0.968506  0
H  H4  1  0.27096587  0.68410347  0.69771883  1  0  0.28731  0.378917  0  0.968457  0
H  H5  1  0.46270615  0.58549143  0.16636988  1  0  0.290897  0.382629  0  0.965439  0
H  H6  1  0.53731885  0.41446490  0.83363199  1  0  0.290903  0.382561  0  0.965539  0
H  H7  1  0.37384752  0.43819407  0.18467052  1  0  0.308024  0.388978  0  0.916712  0
H  H8  1  0.62614335  0.56178389  0.81540169  1  0  0.308033  0.389116  0  0.916709  0
H  H9  1  0.29860281  0.17569013  0.81279646  1  0  0.320514  0.251191  0  0.918952  0
H  H10  1  0.70140685  0.82428688  0.18717558  1  0  0.320604  0.250984  0  0.919348  0
H  H11  1  0.00988677  0.20407652  0.52031065  1  0  0.12471  0.145567  0  0.977379  0
H  H12  1  0.99007236  0.79596105  0.47969495  1  0  0.124657  0.145481  0  0.977489  0
H  H13  1  0.19995700  0.02186055  0.56197710  1  0  0.117109  0.118363  0  1.026114  0
H  H14  1  0.80001264  0.97818437  0.43797376  1  0  0.117045  0.118312  0  1.026303  0
H  H15  1  0.97613590  0.35861734  0.91133155  1  0  0.120395  0.130445  0  1.035158  0
H  H16  1  0.02390502  0.64135827  0.08870759  1  0  0.120434  0.130542  0  1.035014  0
H  H17  1  0.97590361  0.42362379  0.69519248  1  0  0.123851  0.144969  0  0.970292  0
H  H18  1  0.02410854  0.57639396  0.30485337  1  0  0.123804  0.144984  0  0.970351  0
H  H19  1  0.16617340  0.93814076  0.81084214  1  0  0.116275  0.073683  0  0.979031  0
H  H20  1  0.83383280  0.06185175  0.18911819  1  0  0.116287  0.073703  0  0.97903  0
H  H21  1  0.82856708  0.07980424  0.71193467  1  0  0.097761  0.108456  0  0.992244  0
H  H22  1  0.17143142  0.92018765  0.28804000  1  0  0.097795  0.108524  0  0.992272  0
H  H23  1  0.81124930  0.20143852  0.89334417  1  0  0.098927  0.11031  0  1.017781  0
H  H24  1  0.18875864  0.79854039  0.10664179  1  0  0.098906  0.110251  0  1.017771  0
H  H25  1  0.11159673  0.17407374  0.10625809  1  0  0.095083  0.102045  0  1.017247  0
H  H26  1  0.88842304  0.82590367  0.89372003  1  0  0.095098  0.102138  0  1.01746  0
H  H27  1  0.32528973  0.03221034  0.06323207  1  0  0.096007  0.099823  0  0.990218  0
H  H28  1  0.67471912  0.96775903  0.93673565  1  0  0.095978  0.099886  0  0.990269  0
C  C29  1  0.15623285  0.15511189  0.57693214  1  0  -0.061484  -0.223625  0  3.73413  0
C  C30  1  0.84372720  0.84493061  0.42304736  1  0  -0.061319  -0.223433  0  3.734394  0
C  C31  1  0.29143423  0.23522658  0.49008666  1  0  0.215791  0.617519  0  4.15607  0
C  C32  1  0.70850178  0.76484405  0.50989062  1  0  0.215761  0.617709  0  4.156149  0
C  C33  1  0.06510943  0.35945922  0.80591506  1  0  -0.072865  -0.243084  0  3.760819  0
C  C34  1  0.93491649  0.64053068  0.19411535  1  0  -0.072927  -0.243302  0  3.760914  0
C  C35  1  0.21880561  0.44282601  0.86283771  1  0  0.207082  0.611482  0  4.20879  0
C  C36  1  0.78123724  0.55713915  0.13718965  1  0  0.206836  0.611172  0  4.208878  0
C  C37  1  0.09591978  0.05542036  0.86549529  1  0  0.01037  0.10527  0  3.732403  0
C  C38  1  0.90408492  0.94456407  0.13447741  1  0  0.010327  0.105326  0  3.732507  0
C  C39  1  0.88195267  0.08094696  0.84587038  1  0  -0.163814  -0.189983  0  3.858328  0
C  C40  1  0.11805655  0.91903411  0.15410893  1  0  -0.163823  -0.189976  0  3.858323  0
C  C41  1  0.17057794  0.05394088  0.05196924  1  0  -0.164781  -0.204422  0  3.914909  0
C  C42  1  0.82943025  0.94603605  0.94800156  1  0  -0.164764  -0.204639  0  3.915268  0
N  N43  1  0.15865436  0.18457234  0.76506935  1  0  -0.335518  0.01228  0  3.512039  0
N  N44  1  0.84134449  0.81542762  0.23491855  1  0  -0.335605  0.012358  0  3.512242  0
O  O45  1  0.68702252  0.27356214  0.40781043  1  0  -0.5789  -0.768098  0  2.110282  0
O  O46  1  0.31295722  0.72643519  0.59222941  1  0  -0.578923  -0.768134  0  2.11029  0
O  O47  1  0.38186331  0.53919007  0.24062988  1  0  -0.571609  -0.763315  0  2.172809  0
O  O48  1  0.61815337  0.46080425  0.75939138  1  0  -0.57167  -0.763464  0  2.172984  0
O  O49  1  0.30328014  0.37295276  0.54879748  1  0  -0.317547  -0.563347  0  2.328385  0
O  O50  1  0.69667873  0.62709762  0.45121707  1  0  -0.3177  -0.563521  0  2.328219  0
O  O51  1  0.37883821  0.16090587  0.37126477  1  0  -0.315667  -0.53895  0  2.138829  0
O  O52  1  0.62107085  0.83919287  0.62868479  1  0  -0.315532  -0.538956  0  2.138976  0
O  O53  1  0.37722647  0.34612187  0.92267315  1  0  -0.329426  -0.577624  0  2.161839  0
O  O54  1  0.62282862  0.65382553  0.07731731  1  0  -0.329438  -0.577715  0  2.16194  0
O  O55  1  0.17601804  0.59788341  0.85242523  1  0  -0.331216  -0.570335  0  2.189996  0
O  O56  1  0.82404515  0.40207822  0.14762752  1  0  -0.330947  -0.569889  0  2.189586  0
