# generated using pymatgen
data_AgH5C4(NO)4
_symmetry_space_group_name_H-M   'P 1'
_cell_length_a   8.93351612
_cell_length_b   11.91977450
_cell_length_c   14.19710000
_cell_angle_alpha   90.00000000
_cell_angle_beta   90.00000000
_cell_angle_gamma   90.00000000
_symmetry_Int_Tables_number   1
_chemical_formula_structural   AgH5C4(NO)4
_chemical_formula_sum   'Ag8 H40 C32 N32 O32'
_cell_volume   1511.78525854
_cell_formula_units_Z   8
loop_
 _symmetry_equiv_pos_site_id
 _symmetry_equiv_pos_as_xyz
  1  'x, y, z'
loop_
 _atom_site_type_symbol
 _atom_site_label
 _atom_site_symmetry_multiplicity
 _atom_site_fract_x
 _atom_site_fract_y
 _atom_site_fract_z
 _atom_site_occupancy
 _atom_site_hle17_bader_spin_density
 _atom_site_hle17_ddec_charge
 _atom_site_hle17_ddec_spin_density
 _atom_site_hle17_ddec_sum_bond_order
 _atom_site_hle17_magmom
 _atom_site_hse06_10hf_bader_spin_density
 _atom_site_hse06_10hf_ddec_charge
 _atom_site_hse06_10hf_ddec_spin_density
 _atom_site_hse06_10hf_ddec_sum_bond_order
 _atom_site_hse06_10hf_magmom
 _atom_site_hse06_bader_spin_density
 _atom_site_hse06_ddec_charge
 _atom_site_hse06_ddec_spin_density
 _atom_site_hse06_ddec_sum_bond_order
 _atom_site_hse06_magmom
 _atom_site_pbe_bader_charge
 _atom_site_pbe_bader_spin_density
 _atom_site_pbe_cm5_charge
 _atom_site_pbe_ddec_charge
 _atom_site_pbe_ddec_spin_density
 _atom_site_pbe_ddec_sum_bond_order
 _atom_site_pbe_magmom
Ag  Ag0  1  0.82131827  0.82183686  0.48440174  1  0  0.534258  0  1.427934  0  0  0.390638  0  1.863453  0  0  0.415076  0  1.82326  0  0.606066  0  0.48377  0.374488  0  1.890836  0
Ag  Ag1  1  0.17868216  0.67816384  0.98440174  1  0  0.534264  0  1.427931  0  0  0.390655  0  1.863448  0  0  0.415095  0  1.823253  0  0.606103  0  0.483778  0.374507  0  1.890831  0
Ag  Ag2  1  0.32131917  0.17816444  0.01559826  1  0  0.534277  0  1.427933  0  0  0.39066  0  1.863457  0  0  0.415099  0  1.823266  0  0.606101  0  0.483782  0.374509  0  1.890841  0
Ag  Ag3  1  0.67868126  0.32183411  0.51559755  1  0  0.534294  0  1.427917  0  0  0.390688  0  1.863426  0  0  0.415125  0  1.823232  0  0.60612  0  0.483784  0.374539  0  1.890809  0
Ag  Ag4  1  0.17868105  0.17816444  0.51559896  1  0  0.534293  0  1.427913  0  0  0.390674  0  1.863432  0  0  0.415114  0  1.823237  0  0.606063  0  0.483795  0.374525  0  1.890814  0
Ag  Ag5  1  0.82131939  0.32183411  0.01559755  1  0  0.534275  0  1.427927  0  0  0.39067  0  1.863443  0  0  0.415105  0  1.823251  0  0.606119  0  0.483777  0.37452  0  1.890826  0
Ag  Ag6  1  0.67868126  0.82183518  0.98440315  1  0  0.534257  0  1.427963  0  0  0.390639  0  1.863484  0  0  0.415077  0  1.823292  0  0.606111  0  0.483772  0.374489  0  1.890869  0
Ag  Ag7  1  0.32132029  0.67816467  0.48440104  1  0  0.534278  0  1.427945  0  0  0.390669  0  1.863452  0  0  0.415103  0  1.823261  0  0.606093  0  0.483772  0.374518  0  1.890837  0
H  H8  1  0.08407664  0.48696307  0.31230815  1  0  0.319894  0  0.892436  0  0  0.29822  0  0.958557  0  0  0.306329  0  0.951669  0  0.526288  0  0.323165  0.292409  0  0.96368  0
H  H9  1  0.91592492  0.01303968  0.81230815  1  0  0.319862  0  0.892431  0  0  0.298191  0  0.958556  0  0  0.306299  0  0.95167  0  0.52623  0  0.323152  0.292379  0  0.963679  0
H  H10  1  0.58407462  0.51303655  0.18769115  1  0  0.319897  0  0.892443  0  0  0.298221  0  0.958569  0  0  0.306331  0  0.951679  0  0.526327  0  0.323175  0.292409  0  0.963693  0
H  H11  1  0.41592470  0.98696162  0.68769185  1  0  0.319867  0  0.892425  0  0  0.298204  0  0.95855  0  0  0.306313  0  0.95166  0  0.526274  0  0.323162  0.292392  0  0.963673  0
H  H12  1  0.91592380  0.51303823  0.68769185  1  0  0.319853  0  0.892457  0  0  0.298192  0  0.958577  0  0  0.306301  0  0.951688  0  0.526273  0  0.323165  0.292379  0  0.963701  0
H  H13  1  0.08407664  0.98696330  0.18769115  1  0  0.319855  0  0.89246  0  0  0.298191  0  0.958591  0  0  0.3063  0  0.951702  0  0.526298  0  0.323162  0.292379  0  0.963714  0
H  H14  1  0.41592470  0.48696223  0.81230885  1  0  0.319888  0  0.892446  0  0  0.298208  0  0.958575  0  0  0.306317  0  0.951686  0  0.526279  0  0.323168  0.292397  0  0.963699  0
H  H15  1  0.58407462  0.01303800  0.31230885  1  0  0.319886  0  0.892436  0  0  0.29822  0  0.958553  0  0  0.30633  0  0.951664  0  0.52629  0  0.323169  0.292409  0  0.963676  0
H  H16  1  0.92003752  0.28625877  0.39029097  1  0  0.355682  0  0.941779  0  0  0.325325  0  1.027431  0  0  0.337575  0  1.01365  0  0.645412  0  0.30116  0.316637  0  1.037148  0
H  H17  1  0.07996068  0.21374146  0.89029168  1  0  0.355641  0  0.941861  0  0  0.325322  0  1.027454  0  0  0.33757  0  1.013676  0  0.645413  0  0.301166  0.316633  0  1.03717  0
H  H18  1  0.42003842  0.71374169  0.10970762  1  0  0.355677  0  0.941794  0  0  0.325321  0  1.027442  0  0  0.337568  0  1.013666  0  0.645405  0  0.301154  0.316636  0  1.037146  0
H  H19  1  0.57996201  0.78625816  0.60970903  1  0  0.355659  0  0.941808  0  0  0.325294  0  1.027477  0  0  0.337542  0  1.013699  0  0.645408  0  0.301143  0.316607  0  1.037186  0
H  H20  1  0.07996292  0.71374085  0.60970762  1  0  0.35564  0  0.941825  0  0  0.325298  0  1.02746  0  0  0.337546  0  1.013684  0  0.645411  0  0.301156  0.316613  0  1.037164  0
H  H21  1  0.92003864  0.78625816  0.10970832  1  0  0.355607  0  0.941868  0  0  0.325242  0  1.027535  0  0  0.33749  0  1.013759  0  0.645408  0  0.301115  0.316555  0  1.037245  0
H  H22  1  0.57996201  0.28625793  0.89029168  1  0  0.355671  0  0.941798  0  0  0.325314  0  1.027445  0  0  0.337561  0  1.013671  0  0.645407  0  0.301158  0.31663  0  1.037147  0
H  H23  1  0.42003730  0.21374062  0.39029238  1  0  0.355689  0  0.941781  0  0  0.325334  0  1.027426  0  0  0.337582  0  1.013648  0  0.645411  0  0.301164  0.316648  0  1.037133  0
H  H24  1  0.74689069  0.57404106  0.47166675  1  0  0.110786  0  0.963064  0  0  0.116223  0  1.03678  0  0  0.118318  0  1.03296  0  0.143863  0  0.125747  0.114931  0  1.039014  0
H  H25  1  0.25311087  0.92595879  0.97166675  1  0  0.110778  0  0.963041  0  0  0.116204  0  1.036788  0  0  0.118301  0  1.032965  0  0.143844  0  0.125735  0.114912  0  1.039022  0
H  H26  1  0.24689047  0.42595856  0.02833325  1  0  0.110775  0  0.962995  0  0  0.116207  0  1.036751  0  0  0.118305  0  1.032928  0  0.143858  0  0.125731  0.114915  0  1.038985  0
H  H27  1  0.75310884  0.07404083  0.52833325  1  0  0.11075  0  0.963055  0  0  0.116193  0  1.036798  0  0  0.11829  0  1.032976  0  0.143864  0  0.125727  0.114901  0  1.039033  0
H  H28  1  0.25310975  0.42595856  0.52833325  1  0  0.110771  0  0.963012  0  0  0.116198  0  1.036764  0  0  0.118297  0  1.032943  0  0.143855  0  0.125728  0.114907  0  1.038999  0
H  H29  1  0.74689069  0.07404083  0.02833325  1  0  0.110775  0  0.963076  0  0  0.116204  0  1.036809  0  0  0.1183  0  1.032989  0  0.143856  0  0.125739  0.114912  0  1.039044  0
H  H30  1  0.75311108  0.57404274  0.97166745  1  0  0.110762  0  0.963059  0  0  0.11621  0  1.036773  0  0  0.118308  0  1.03295  0  0.14383  0  0.125735  0.114918  0  1.039008  0
H  H31  1  0.24689047  0.92595963  0.47166604  1  0  0.110798  0  0.962995  0  0  0.11623  0  1.036759  0  0  0.118326  0  1.032937  0  0.143867  0  0.125741  0.114937  0  1.038994  0
H  H32  1  0.07954875  0.84052513  0.32780920  1  0  0.120723  0  0.949495  0  0  0.132601  0  1.004793  0  0  0.134681  0  1.003884  0  0.119982  0  0.122023  0.131224  0  1.005331  0
H  H33  1  0.92045169  0.65947305  0.82780990  1  0  0.120759  0  0.949471  0  0  0.132652  0  1.00473  0  0  0.134729  0  1.003826  0  0.119965  0  0.122044  0.131275  0  1.005269  0
H  H34  1  0.57954784  0.15947617  0.17219010  1  0  0.120725  0  0.94945  0  0  0.132604  0  1.004746  0  0  0.134683  0  1.003838  0  0.119833  0  0.122028  0.131227  0  1.005285  0
H  H35  1  0.42045259  0.34052574  0.67219080  1  0  0.120781  0  0.949467  0  0  0.132664  0  1.004744  0  0  0.134743  0  1.003839  0  0.119988  0  0.122053  0.131287  0  1.005282  0
H  H36  1  0.92045393  0.15947449  0.67219010  1  0  0.120734  0  0.949447  0  0  0.132618  0  1.00473  0  0  0.134697  0  1.003825  0  0.119813  0  0.122038  0.131242  0  1.005268  0
H  H37  1  0.07954763  0.34052406  0.17219080  1  0  0.120754  0  0.949492  0  0  0.132639  0  1.004767  0  0  0.134718  0  1.003861  0  0.119838  0  0.122035  0.131263  0  1.005305  0
H  H38  1  0.42045147  0.84052513  0.82780920  1  0  0.120721  0  0.949498  0  0  0.1326  0  1.004795  0  0  0.13468  0  1.003887  0  0.119981  0  0.122022  0.131223  0  1.005333  0
H  H39  1  0.57954896  0.65947389  0.32780920  1  0  0.120711  0  0.949495  0  0  0.132593  0  1.004786  0  0  0.134673  0  1.003879  0  0.119971  0  0.122017  0.131217  0  1.005325  0
H  H40  1  0.22366333  0.65648977  0.24845919  1  0  0.122852  0  0.953706  0  0  0.127813  0  1.020399  0  0  0.131232  0  1.017893  0  0.153042  0  0.125497  0.125215  0  1.022481  0
H  H41  1  0.77633822  0.84351092  0.74845990  1  0  0.122862  0  0.953702  0  0  0.127825  0  1.020394  0  0  0.131242  0  1.017889  0  0.153071  0  0.125509  0.125227  0  1.022475  0
H  H42  1  0.72366355  0.34351153  0.25154010  1  0  0.122863  0  0.953711  0  0  0.127826  0  1.0204  0  0  0.131244  0  1.017893  0  0.152989  0  0.1255  0.125227  0  1.022481  0
H  H43  1  0.27633688  0.15648870  0.75153940  1  0  0.12284  0  0.953737  0  0  0.127825  0  1.020392  0  0  0.131242  0  1.017888  0  0.153004  0  0.125509  0.125226  0  1.022474  0
H  H44  1  0.77633822  0.34351069  0.75153940  1  0  0.122853  0  0.95372  0  0  0.127832  0  1.020384  0  0  0.13125  0  1.017879  0  0.153072  0  0.12552  0.125234  0  1.022466  0
H  H45  1  0.22366333  0.15648870  0.25154081  1  0  0.122849  0  0.953711  0  0  0.127814  0  1.020394  0  0  0.131234  0  1.017886  0  0.153049  0  0.125504  0.125216  0  1.022474  0
H  H46  1  0.27633576  0.65649061  0.74845990  1  0  0.122834  0  0.953733  0  0  0.127808  0  1.02042  0  0  0.131226  0  1.017915  0  0.153053  0  0.125497  0.12521  0  1.022502  0
H  H47  1  0.72366243  0.84351008  0.24845990  1  0  0.122837  0  0.953742  0  0  0.127813  0  1.02042  0  0  0.131231  0  1.017915  0  0.153052  0  0.125501  0.125215  0  1.022502  0
C  C48  1  0.05545969  0.75202094  0.33524311  1  0  0.011777  0  3.694064  0  0  -0.022803  0  3.958599  0  0  -0.021737  0  3.97853  0  0.4878  0  0.004074  -0.023928  0  3.945417  0
C  C49  1  0.94454075  0.74797892  0.83524311  1  0  0.011691  0  3.694099  0  0  -0.022885  0  3.958637  0  0  -0.021819  0  3.97857  0  0.487808  0  0.004049  -0.02401  0  3.945456  0
C  C50  1  0.55545766  0.24798036  0.16475689  1  0  0.011766  0  3.694116  0  0  -0.022825  0  3.958654  0  0  -0.021754  0  3.978586  0  0.488017  0  0.004025  -0.023951  0  3.945472  0
C  C51  1  0.44454053  0.25202071  0.66475689  1  0  0.011644  0  3.694138  0  0  -0.022942  0  3.958685  0  0  -0.021877  0  3.978618  0  0.487862  0  0.004033  -0.024066  0  3.945503  0
C  C52  1  0.94454187  0.24797952  0.66475759  1  0  0.011687  0  3.694088  0  0  -0.022915  0  3.958645  0  0  -0.021848  0  3.97858  0  0.488079  0  0.003998  -0.024038  0  3.945462  0
C  C53  1  0.05545969  0.25201987  0.16475618  1  0  0.011688  0  3.694161  0  0  -0.022891  0  3.958699  0  0  -0.021824  0  3.978631  0  0.487973  0  0.00405  -0.024015  0  3.945515  0
C  C54  1  0.44454053  0.75202094  0.83524311  1  0  0.011781  0  3.694028  0  0  -0.022799  0  3.958576  0  0  -0.021733  0  3.978508  0  0.487806  0  0.004064  -0.023923  0  3.945395  0
C  C55  1  0.55545878  0.74797892  0.33524311  1  0  0.011809  0  3.694024  0  0  -0.022772  0  3.958557  0  0  -0.021706  0  3.97849  0  0.487815  0  0.004086  -0.023896  0  3.945375  0
C  C56  1  0.12738881  0.66126167  0.29450662  1  0  0.035594  0  3.645285  0  0  -0.00834  0  3.920101  0  0  -0.005375  0  3.935716  0  0.365924  0  0.015693  -0.010277  0  3.909836  0
C  C57  1  0.87261050  0.83873818  0.79450803  1  0  0.035631  0  3.645205  0  0  -0.008301  0  3.920039  0  0  -0.005336  0  3.935655  0  0.365885  0  0.015688  -0.010239  0  3.909775  0
C  C58  1  0.62739015  0.33873795  0.20549267  1  0  0.035585  0  3.645257  0  0  -0.008346  0  3.920086  0  0  -0.005381  0  3.935701  0  0.365935  0  0.015716  -0.010283  0  3.909822  0
C  C59  1  0.37261141  0.16126144  0.70549338  1  0  0.035619  0  3.645228  0  0  -0.008307  0  3.920056  0  0  -0.005341  0  3.935673  0  0.365993  0  0.015676  -0.010244  0  3.909791  0
C  C60  1  0.87261162  0.33873879  0.70549267  1  0  0.03564  0  3.645221  0  0  -0.008282  0  3.920057  0  0  -0.005317  0  3.935674  0  0.365879  0  0.015704  -0.010219  0  3.909792  0
C  C61  1  0.12738881  0.16126144  0.20549338  1  0  0.035607  0  3.645257  0  0  -0.008302  0  3.920102  0  0  -0.005337  0  3.935717  0  0.365892  0  0.015698  -0.010238  0  3.909835  0
C  C62  1  0.37261029  0.66126167  0.79450662  1  0  0.035644  0  3.645263  0  0  -0.008314  0  3.920082  0  0  -0.00535  0  3.9357  0  0.365888  0  0.015712  -0.010251  0  3.909817  0
C  C63  1  0.62738903  0.83873818  0.29450662  1  0  0.035592  0  3.645289  0  0  -0.00835  0  3.920116  0  0  -0.005384  0  3.935732  0  0.36594  0  0.015689  -0.010287  0  3.909852  0
C  C64  1  0.94029382  0.60069761  0.38408407  1  0  0.304631  0  3.777375  0  0  0.278719  0  4.042363  0  0  0.286522  0  4.060019  0  0.963505  0  0.201576  0.273427  0  4.030203  0
C  C65  1  0.05970438  0.89930225  0.88408548  1  0  0.304614  0  3.77736  0  0  0.278703  0  4.042382  0  0  0.286506  0  4.060039  0  0.963268  0  0.201562  0.273411  0  4.030222  0
C  C66  1  0.44029360  0.39930202  0.11591522  1  0  0.304548  0  3.777421  0  0  0.278736  0  4.042307  0  0  0.286542  0  4.059965  0  0.963497  0  0.201555  0.273442  0  4.030144  0
C  C67  1  0.55970459  0.10069821  0.61591522  1  0  0.304588  0  3.777316  0  0  0.27872  0  4.042334  0  0  0.286522  0  4.059992  0  0.963278  0  0.201541  0.273428  0  4.030174  0
C  C68  1  0.05970549  0.39930118  0.61591593  1  0  0.304473  0  3.77758  0  0  0.278644  0  4.04251  0  0  0.286442  0  4.06018  0  0.9635  0  0.201518  0.273353  0  4.030348  0
C  C69  1  0.94029494  0.10069737  0.11591452  1  0  0.304557  0  3.777408  0  0  0.278702  0  4.042356  0  0  0.286504  0  4.060012  0  0.963246  0  0.201586  0.273409  0  4.030195  0
C  C70  1  0.55970571  0.60069844  0.88408548  1  0  0.304581  0  3.777408  0  0  0.278755  0  4.042301  0  0  0.286557  0  4.059961  0  0.96327  0  0.201546  0.273463  0  4.030141  0
C  C71  1  0.44029472  0.89930225  0.38408407  1  0  0.304621  0  3.777353  0  0  0.278744  0  4.042356  0  0  0.286546  0  4.060013  0  0.963241  0  0.201568  0.273451  0  4.030196  0
C  C72  1  0.83322064  0.53112582  0.43111551  1  0  -0.006668  0  3.681364  0  0  -0.057137  0  3.9589  0  0  -0.043505  0  3.964385  0  0.56428  0  0.04496  -0.066023  0  3.954551  0
C  C73  1  0.16678092  0.96887403  0.93111621  1  0  -0.00668  0  3.681224  0  0  -0.057167  0  3.958796  0  0  -0.043535  0  3.964281  0  0.564284  0  0.044977  -0.066053  0  3.954449  0
C  C74  1  0.33322042  0.46887380  0.06888519  1  0  -0.00663  0  3.681102  0  0  -0.057169  0  3.958677  0  0  -0.043538  0  3.964161  0  0.564285  0  0.044964  -0.066054  0  3.954328  0
C  C75  1  0.66678001  0.03112643  0.56888590  1  0  -0.006574  0  3.68113  0  0  -0.05712  0  3.958758  0  0  -0.043489  0  3.964245  0  0.564262  0  0.04501  -0.066005  0  3.954408  0
C  C76  1  0.16677980  0.46887296  0.56888590  1  0  -0.006534  0  3.681331  0  0  -0.057054  0  3.95888  0  0  -0.043423  0  3.964373  0  0.564291  0  0.045044  -0.065939  0  3.95453  0
C  C77  1  0.83321952  0.03112643  0.06888449  1  0  -0.006687  0  3.681359  0  0  -0.057152  0  3.958859  0  0  -0.043519  0  3.964344  0  0.564274  0  0.044969  -0.066036  0  3.95451  0
C  C78  1  0.66678225  0.53112666  0.93111551  1  0  -0.006635  0  3.681193  0  0  -0.057159  0  3.958741  0  0  -0.043528  0  3.964227  0  0.564287  0  0.044981  -0.066044  0  3.954393  0
C  C79  1  0.33322042  0.96887403  0.43111481  1  0  -0.006704  0  3.681157  0  0  -0.057245  0  3.958773  0  0  -0.043614  0  3.964261  0  0.564289  0  0.044942  -0.066129  0  3.954424  0
N  N80  1  0.94098448  0.71401015  0.39074107  1  0  -0.378719  0  3.298339  0  0  -0.295431  0  3.58213  0  0  -0.31451  0  3.60062  0  -1.180327  0  -0.366755  -0.282255  0  3.569143  0
N  N81  1  0.05901484  0.78598970  0.89074177  1  0  -0.378739  0  3.298454  0  0  -0.295444  0  3.582241  0  0  -0.314524  0  3.600733  0  -1.18034  0  -0.366777  -0.282268  0  3.569254  0
N  N82  1  0.44098426  0.28599031  0.10925752  1  0  -0.378745  0  3.298533  0  0  -0.295453  0  3.582275  0  0  -0.314541  0  3.600774  0  -1.180404  0  -0.36676  -0.28227  0  3.569283  0
N  N83  1  0.55901394  0.21401076  0.60925823  1  0  -0.378742  0  3.29846  0  0  -0.295442  0  3.582224  0  0  -0.314521  0  3.600717  0  -1.18042  0  -0.366771  -0.282265  0  3.569237  0
N  N84  1  0.05901484  0.28598947  0.60925823  1  0  -0.3787  0  3.298528  0  0  -0.295391  0  3.582268  0  0  -0.314474  0  3.600769  0  -1.180474  0  -0.366721  -0.282215  0  3.569279  0
N  N85  1  0.94098448  0.21400992  0.10925823  1  0  -0.378728  0  3.298491  0  0  -0.295436  0  3.582256  0  0  -0.314513  0  3.600745  0  -1.180352  0  -0.366781  -0.28226  0  3.569268  0
N  N86  1  0.55901505  0.71401099  0.89074248  1  0  -0.378752  0  3.298459  0  0  -0.295481  0  3.582213  0  0  -0.31456  0  3.600705  0  -1.180354  0  -0.36676  -0.282305  0  3.569227  0
N  N87  1  0.44098426  0.78598970  0.39074177  1  0  -0.378768  0  3.298412  0  0  -0.295467  0  3.582186  0  0  -0.314543  0  3.600674  0  -1.180356  0  -0.366785  -0.28229  0  3.569199  0
N  N88  1  0.05388024  0.56818692  0.32568060  1  0  -0.310614  0  3.462653  0  0  -0.250823  0  3.698121  0  0  -0.265415  0  3.71442  0  -1.245974  0  -0.373249  -0.241211  0  3.687355  0
N  N89  1  0.94612019  0.93181377  0.82568060  1  0  -0.310549  0  3.462578  0  0  -0.250774  0  3.698069  0  0  -0.265365  0  3.71437  0  -1.245696  0  -0.373218  -0.24116  0  3.687297  0
N  N90  1  0.55387934  0.43181270  0.17431940  1  0  -0.310592  0  3.46268  0  0  -0.250832  0  3.698121  0  0  -0.265423  0  3.71442  0  -1.245965  0  -0.37325  -0.241221  0  3.687356  0
N  N91  1  0.44611998  0.06818669  0.67431940  1  0  -0.310495  0  3.462466  0  0  -0.250769  0  3.69799  0  0  -0.26536  0  3.714289  0  -1.245714  0  -0.373222  -0.241157  0  3.687225  0
N  N92  1  0.94612131  0.43181354  0.67432011  1  0  -0.310496  0  3.462614  0  0  -0.250774  0  3.698109  0  0  -0.265363  0  3.714411  0  -1.245984  0  -0.373224  -0.241161  0  3.687343  0
N  N93  1  0.05388024  0.06818753  0.17431940  1  0  -0.310472  0  3.462563  0  0  -0.25077  0  3.698098  0  0  -0.265358  0  3.714397  0  -1.245715  0  -0.373251  -0.241158  0  3.687332  0
N  N94  1  0.44611886  0.56818692  0.82568130  1  0  -0.310591  0  3.462645  0  0  -0.250816  0  3.698088  0  0  -0.265406  0  3.714389  0  -1.245683  0  -0.373244  -0.241202  0  3.687318  0
N  N95  1  0.55388046  0.93181293  0.32568060  1  0  -0.310559  0  3.462603  0  0  -0.250797  0  3.6981  0  0  -0.265387  0  3.714397  0  -1.245712  0  -0.373235  -0.241185  0  3.687335  0
N  N96  1  0.82567714  0.42214557  0.43122750  1  0  -0.082394  0  3.255702  0  0  -0.014842  0  3.565634  0  0  -0.023752  0  3.574284  0  -0.540779  0  -0.266718  -0.008891  0  3.559539  0
N  N97  1  0.17432218  0.07785382  0.93122821  1  0  -0.082322  0  3.255673  0  0  -0.01476  0  3.565597  0  0  -0.023669  0  3.57425  0  -0.540773  0  -0.266708  -0.008809  0  3.559503  0
N  N98  1  0.32567916  0.57785489  0.06877179  1  0  -0.082346  0  3.255499  0  0  -0.014765  0  3.565431  0  0  -0.023675  0  3.574081  0  -0.540752  0  -0.266694  -0.008816  0  3.559337  0
N  N99  1  0.67432128  0.92214580  0.56877179  1  0  -0.082373  0  3.255599  0  0  -0.014786  0  3.565528  0  0  -0.023693  0  3.574179  0  -0.540767  0  -0.266704  -0.008834  0  3.559431  0
N  N100  1  0.17431994  0.57785321  0.56877250  1  0  -0.082481  0  3.255718  0  0  -0.014876  0  3.565651  0  0  -0.023784  0  3.574305  0  -0.540709  0  -0.266753  -0.008926  0  3.559558  0
N  N101  1  0.82567825  0.92214580  0.06877179  1  0  -0.082297  0  3.255631  0  0  -0.01475  0  3.565544  0  0  -0.023661  0  3.574195  0  -0.540762  0  -0.266705  -0.0088  0  3.559449  0
N  N102  1  0.67432128  0.42214641  0.93122821  1  0  -0.082387  0  3.255604  0  0  -0.01483  0  3.565543  0  0  -0.023738  0  3.574193  0  -0.540748  0  -0.266712  -0.00888  0  3.559449  0
N  N103  1  0.32567916  0.07785466  0.43122821  1  0  -0.082357  0  3.255516  0  0  -0.014756  0  3.565443  0  0  -0.023664  0  3.574093  0  -0.540752  0  -0.266699  -0.008805  0  3.559349  0
N  N104  1  0.13673340  0.90901384  0.63637433  1  0  0.690841  0  4.127584  0  0  0.722543  0  4.422714  0  0  0.749986  0  4.429768  0  0.806146  0  0.096852  0.70402  0  4.417388  0
N  N105  1  0.86326704  0.59098685  0.13637433  1  0  0.690778  0  4.127698  0  0  0.722489  0  4.422826  0  0  0.749932  0  4.42988  0  0.806143  0  0.096827  0.703966  0  4.4175  0
N  N106  1  0.63673249  0.09098578  0.86362567  1  0  0.690765  0  4.12754  0  0  0.722483  0  4.422667  0  0  0.749924  0  4.429725  0  0.806432  0  0.096843  0.703961  0  4.417338  0
N  N107  1  0.36326570  0.40901361  0.36362567  1  0  0.69072  0  4.127756  0  0  0.722437  0  4.422874  0  0  0.749878  0  4.429929  0  0.806139  0  0.096809  0.703916  0  4.417543  0
N  N108  1  0.86326704  0.09098494  0.36362567  1  0  0.690766  0  4.127573  0  0  0.722489  0  4.42269  0  0  0.749932  0  4.429744  0  0.806449  0  0.096828  0.703967  0  4.417362  0
N  N109  1  0.13673340  0.40901361  0.86362637  1  0  0.690841  0  4.127561  0  0  0.722564  0  4.422673  0  0  0.750006  0  4.429728  0  0.806419  0  0.096875  0.704043  0  4.417344  0
N  N110  1  0.36326570  0.90901300  0.13637363  1  0  0.69075  0  4.127792  0  0  0.722459  0  4.42291  0  0  0.749898  0  4.429967  0  0.806318  0  0.096826  0.703936  0  4.417583  0
N  N111  1  0.63673249  0.59098685  0.63637433  1  0  0.690863  0  4.127504  0  0  0.722568  0  4.422639  0  0  0.75001  0  4.429694  0  0.806137  0  0.09688  0.704044  0  4.417314  0
O  O112  1  0.93305367  0.37019324  0.37682414  1  0  -0.40927  0  2.080727  0  0  -0.359756  0  2.307662  0  0  -0.38002  0  2.304552  0  -0.75412  0  -0.258038  -0.345153  0  2.309687  0
O  O113  1  0.06694565  0.12980699  0.87682273  1  0  -0.409266  0  2.080788  0  0  -0.359759  0  2.307657  0  0  -0.38002  0  2.304552  0  -0.754098  0  -0.258034  -0.345153  0  2.309685  0
O  O114  1  0.43305569  0.62980806  0.12317727  1  0  -0.409254  0  2.080694  0  0  -0.359751  0  2.30761  0  0  -0.380015  0  2.304504  0  -0.754175  0  -0.258025  -0.345147  0  2.309639  0
O  O115  1  0.56694586  0.87019264  0.62317656  1  0  -0.409271  0  2.080783  0  0  -0.359736  0  2.307681  0  0  -0.38  0  2.304575  0  -0.754128  0  -0.258023  -0.345132  0  2.309708  0
O  O116  1  0.06694453  0.62980806  0.62317797  1  0  -0.409183  0  2.080635  0  0  -0.35973  0  2.307576  0  0  -0.379993  0  2.304472  0  -0.754163  0  -0.258036  -0.345125  0  2.309604  0
O  O117  1  0.93305479  0.87019264  0.12317727  1  0  -0.409233  0  2.080754  0  0  -0.359699  0  2.307659  0  0  -0.379964  0  2.304556  0  -0.754134  0  -0.257995  -0.345096  0  2.309685  0
O  O118  1  0.56694586  0.37019241  0.87682273  1  0  -0.409247  0  2.080726  0  0  -0.359714  0  2.30763  0  0  -0.379976  0  2.304524  0  -0.754125  0  -0.25802  -0.345109  0  2.309658  0
O  O119  1  0.43305569  0.12980782  0.37682273  1  0  -0.409273  0  2.080683  0  0  -0.35976  0  2.307598  0  0  -0.380023  0  2.304489  0  -0.754156  0  -0.258032  -0.345157  0  2.309625  0
O  O120  1  0.23497803  0.87717515  0.69398821  1  0  -0.442843  0  1.762246  0  0  -0.433177  0  1.978484  0  0  -0.445932  0  1.973452  0  -0.526513  0  -0.179736  -0.424484  0  1.981846  0
O  O121  1  0.76502241  0.62282470  0.19398750  1  0  -0.442771  0  1.76235  0  0  -0.433113  0  1.978578  0  0  -0.445869  0  1.973548  0  -0.526484  0  -0.179687  -0.42442  0  1.981939  0
O  O122  1  0.73497713  0.12282363  0.80601179  1  0  -0.442822  0  1.762209  0  0  -0.43315  0  1.978455  0  0  -0.445898  0  1.973421  0  -0.526706  0  -0.179739  -0.424463  0  1.981823  0
O  O123  1  0.26502219  0.37717576  0.30601179  1  0  -0.442796  0  1.762356  0  0  -0.433105  0  1.978602  0  0  -0.445866  0  1.973577  0  -0.526519  0  -0.179697  -0.42442  0  1.981972  0
O  O124  1  0.76502241  0.12282279  0.30601179  1  0  -0.442789  0  1.762209  0  0  -0.433145  0  1.978438  0  0  -0.445906  0  1.973413  0  -0.526716  0  -0.179715  -0.424455  0  1.981802  0
O  O125  1  0.23497691  0.37717576  0.80601250  1  0  -0.442797  0  1.76226  0  0  -0.433155  0  1.978485  0  0  -0.445909  0  1.973452  0  -0.526685  0  -0.179726  -0.42447  0  1.981855  0
O  O126  1  0.26502219  0.87717515  0.19398750  1  0  -0.442738  0  1.762438  0  0  -0.43308  0  1.978667  0  0  -0.445837  0  1.973638  0  -0.526669  0  -0.179669  -0.424387  0  1.982028  0
O  O127  1  0.73497713  0.62282470  0.69398821  1  0  -0.442862  0  1.76222  0  0  -0.433189  0  1.978458  0  0  -0.44594  0  1.973424  0  -0.526498  0  -0.179752  -0.424495  0  1.98182  0
O  O128  1  0.08931198  0.00783488  0.63386255  1  0  -0.445003  0  1.799844  0  0  -0.438328  0  2.040595  0  0  -0.450959  0  2.032192  0  -0.514429  0  -0.184772  -0.430199  0  2.046501  0
O  O129  1  0.91068846  0.49216535  0.13386185  1  0  -0.444975  0  1.799828  0  0  -0.438289  0  2.040573  0  0  -0.450922  0  2.032175  0  -0.514409  0  -0.184755  -0.430161  0  2.046479  0
O  O130  1  0.58931220  0.99216390  0.86613745  1  0  -0.444946  0  1.799871  0  0  -0.43828  0  2.040587  0  0  -0.450918  0  2.032203  0  -0.514444  0  -0.184735  -0.43015  0  2.046491  0
O  O131  1  0.41068712  0.50783511  0.36613815  1  0  -0.444941  0  1.79987  0  0  -0.438306  0  2.040619  0  0  -0.450932  0  2.032206  0  -0.514417  0  -0.184764  -0.430177  0  2.046523  0
O  O132  1  0.91068846  0.99216390  0.36613745  1  0  -0.444992  0  1.7999  0  0  -0.438304  0  2.040619  0  0  -0.450944  0  2.032236  0  -0.514463  0  -0.18475  -0.430175  0  2.046524  0
O  O133  1  0.08931198  0.50783511  0.86613815  1  0  -0.445012  0  1.799825  0  0  -0.438323  0  2.04057  0  0  -0.450956  0  2.032173  0  -0.51443  0  -0.184767  -0.430193  0  2.046476  0
O  O134  1  0.41068824  0.00783488  0.13386185  1  0  -0.444981  0  1.799792  0  0  -0.438302  0  2.040549  0  0  -0.450932  0  2.032142  0  -0.514412  0  -0.184776  -0.430174  0  2.046454  0
O  O135  1  0.58931108  0.49216535  0.63386185  1  0  -0.444988  0  1.799804  0  0  -0.438305  0  2.040534  0  0  -0.450938  0  2.032133  0  -0.514416  0  -0.184755  -0.430176  0  2.046441  0
O  O136  1  0.08412701  0.83699234  0.57584929  1  0  -0.531557  0  1.897004  0  0  -0.511478  0  2.160609  0  0  -0.528545  0  2.146974  0  -0.620179  0  -0.215256  -0.499968  0  2.170056  0
O  O137  1  0.91587454  0.66300835  0.07584859  1  0  -0.531562  0  1.896987  0  0  -0.511515  0  2.160628  0  0  -0.528582  0  2.14699  0  -0.620216  0  -0.215299  -0.500004  0  2.170074  0
O  O138  1  0.58412499  0.16300812  0.92415071  1  0  -0.531534  0  1.896937  0  0  -0.511484  0  2.160573  0  0  -0.528552  0  2.14694  0  -0.620251  0  -0.215279  -0.499974  0  2.170019  0
O  O139  1  0.41587321  0.33699211  0.42415071  1  0  -0.531548  0  1.897025  0  0  -0.511483  0  2.160639  0  0  -0.528548  0  2.147002  0  -0.620183  0  -0.215261  -0.499971  0  2.170083  0
O  O140  1  0.91587566  0.16300812  0.42415000  1  0  -0.531541  0  1.896956  0  0  -0.511479  0  2.160586  0  0  -0.528544  0  2.146946  0  -0.620251  0  -0.215267  -0.499967  0  2.170031  0
O  O141  1  0.08412477  0.33699211  0.92415141  1  0  -0.531575  0  1.896988  0  0  -0.511556  0  2.160624  0  0  -0.528622  0  2.146987  0  -0.620271  0  -0.215306  -0.500043  0  2.170069  0
O  O142  1  0.41587321  0.83699151  0.07584859  1  0  -0.531585  0  1.897054  0  0  -0.511519  0  2.160674  0  0  -0.528584  0  2.147037  0  -0.620215  0  -0.215289  -0.500008  0  2.17012  0
O  O143  1  0.58412611  0.66300835  0.57584929  1  0  -0.531569  0  1.896977  0  0  -0.511523  0  2.160618  0  0  -0.52859  0  2.146983  0  -0.620197  0  -0.215287  -0.500012  0  2.170065  0
