# generated using pymatgen
data_PrH8C10N2Cl3
_symmetry_space_group_name_H-M   'P 1'
_cell_length_a   11.80314745
_cell_length_b   11.85158345
_cell_length_c   16.06200000
_cell_angle_alpha   90.00000000
_cell_angle_beta   90.00000000
_cell_angle_gamma   117.77310539
_symmetry_Int_Tables_number   1
_chemical_formula_structural   PrH8C10N2Cl3
_chemical_formula_sum   'Pr6 H48 C60 N12 Cl18'
_cell_volume   1988.01129941
_cell_formula_units_Z   6
loop_
 _symmetry_equiv_pos_site_id
 _symmetry_equiv_pos_as_xyz
  1  'x, y, z'
loop_
 _atom_site_type_symbol
 _atom_site_label
 _atom_site_symmetry_multiplicity
 _atom_site_fract_x
 _atom_site_fract_y
 _atom_site_fract_z
 _atom_site_occupancy
 _atom_site_hle17_bader_spin_density
 _atom_site_hle17_ddec_charge
 _atom_site_hle17_ddec_spin_density
 _atom_site_hle17_ddec_sum_bond_order
 _atom_site_hle17_magmom
 _atom_site_hse06_10hf_bader_spin_density
 _atom_site_hse06_10hf_ddec_charge
 _atom_site_hse06_10hf_ddec_spin_density
 _atom_site_hse06_10hf_ddec_sum_bond_order
 _atom_site_hse06_10hf_magmom
 _atom_site_hse06_bader_spin_density
 _atom_site_hse06_ddec_charge
 _atom_site_hse06_ddec_spin_density
 _atom_site_hse06_ddec_sum_bond_order
 _atom_site_hse06_magmom
 _atom_site_pbe_bader_charge
 _atom_site_pbe_bader_spin_density
 _atom_site_pbe_cm5_charge
 _atom_site_pbe_ddec_charge
 _atom_site_pbe_ddec_spin_density
 _atom_site_pbe_ddec_sum_bond_order
 _atom_site_pbe_magmom
Pr  Pr0  1  0.93605694  0.06390732  0.11753891  1  0  1.969611  0  1.877066  0  0  1.789307  0  2.374868  0  0  1.833105  0  2.322432  0  2.069517  0  1.043785  1.756123  0  2.413576  0
Pr  Pr1  1  0.06394276  0.93609185  0.61753891  1  0  1.969635  0  1.877074  0  0  1.789333  0  2.374878  0  0  1.833122  0  2.322457  0  2.069579  0  1.043796  1.756139  0  2.413605  0
Pr  Pr2  1  0.06394276  0.93609185  0.88246109  1  0  1.969637  0  1.877079  0  0  1.789336  0  2.374879  0  0  1.833127  0  2.322457  0  2.069578  0  1.043798  1.756141  0  2.413608  0
Pr  Pr3  1  0.93605694  0.06390732  0.38246109  1  0  1.969611  0  1.877072  0  0  1.789312  0  2.374871  0  0  1.833112  0  2.322431  0  2.069576  0  1.043785  1.756127  0  2.413578  0
Pr  Pr4  1  0.74927186  0.25102518  0.25000000  1  0  1.964528  0  1.860755  0  0  1.78539  0  2.356673  0  0  1.829384  0  2.303187  0  2.062891  0  1.018318  1.75229  0  2.39526  0
Pr  Pr5  1  0.25072785  0.74897399  0.75000000  1  0  1.964537  0  1.860741  0  0  1.785386  0  2.356685  0  0  1.82939  0  2.30319  0  2.062897  0  1.018313  1.7523  0  2.395247  0
H  H6  1  0.64331145  0.92474083  0.01801706  1  0  0.07307  0  0.939553  0  0  0.081734  0  1.003985  0  0  0.084078  0  1.002042  0  0.110305  0  0.115413  0.080031  0  1.005403  0
H  H7  1  0.35668875  0.07526121  0.51801768  1  0  0.073111  0  0.939544  0  0  0.081725  0  1.004023  0  0  0.084068  0  1.002079  0  0.110333  0  0.115412  0.080025  0  1.005436  0
H  H8  1  0.92592464  0.64397392  0.98224194  1  0  0.072702  0  0.939172  0  0  0.081408  0  1.003592  0  0  0.083701  0  1.001702  0  0.104992  0  0.115133  0.079728  0  1.004999  0
H  H9  1  0.07407547  0.35602430  0.48224194  1  0  0.072733  0  0.93919  0  0  0.081455  0  1.003579  0  0  0.083747  0  1.00169  0  0.104957  0  0.11517  0.079776  0  1.004987  0
H  H10  1  0.35668875  0.07526121  0.98198232  1  0  0.073112  0  0.939544  0  0  0.081726  0  1.004021  0  0  0.084067  0  1.00208  0  0.110333  0  0.115412  0.080025  0  1.005436  0
H  H11  1  0.64331145  0.92474083  0.48198294  1  0  0.073069  0  0.939553  0  0  0.081732  0  1.003987  0  0  0.084078  0  1.002042  0  0.110305  0  0.115413  0.080031  0  1.005403  0
H  H12  1  0.07407547  0.35602430  0.01775806  1  0  0.072734  0  0.939189  0  0  0.081455  0  1.003578  0  0  0.083747  0  1.00169  0  0.104957  0  0.11517  0.079776  0  1.004987  0
H  H13  1  0.92592464  0.64397392  0.51775806  1  0  0.072702  0  0.939173  0  0  0.081407  0  1.003593  0  0  0.083701  0  1.001702  0  0.104992  0  0.115133  0.079727  0  1.004999  0
H  H14  1  0.43479801  0.72959820  0.01606213  1  0  0.113745  0  0.969157  0  0  0.122532  0  1.0305  0  0  0.125995  0  1.028766  0  0.121798  0  0.101141  0.119899  0  1.032147  0
H  H15  1  0.56520219  0.27040384  0.51606276  1  0  0.113719  0  0.969087  0  0  0.122499  0  1.030446  0  0  0.125961  0  1.028714  0  0.121822  0  0.101128  0.119867  0  1.032092  0
H  H16  1  0.73053508  0.43568745  0.98399265  1  0  0.113761  0  0.969211  0  0  0.122875  0  1.03018  0  0  0.126296  0  1.028498  0  0.11678  0  0.101238  0.120236  0  1.031825  0
H  H17  1  0.26946378  0.56431172  0.48399265  1  0  0.113758  0  0.969264  0  0  0.122872  0  1.030236  0  0  0.126292  0  1.028556  0  0.11677  0  0.10125  0.120242  0  1.03187  0
H  H18  1  0.56520219  0.27040384  0.98393724  1  0  0.11372  0  0.969087  0  0  0.122499  0  1.030445  0  0  0.125961  0  1.028715  0  0.121822  0  0.101128  0.119867  0  1.032092  0
H  H19  1  0.43479801  0.72959820  0.48393787  1  0  0.113745  0  0.969158  0  0  0.122531  0  1.030501  0  0  0.125995  0  1.028766  0  0.121798  0  0.101141  0.119899  0  1.032147  0
H  H20  1  0.26946378  0.56431172  0.01600735  1  0  0.113759  0  0.969264  0  0  0.122872  0  1.030236  0  0  0.126292  0  1.028557  0  0.11677  0  0.10125  0.120242  0  1.03187  0
H  H21  1  0.73053508  0.43568745  0.51600735  1  0  0.11376  0  0.969212  0  0  0.122875  0  1.03018  0  0  0.126296  0  1.028498  0  0.11678  0  0.101238  0.120236  0  1.031825  0
H  H22  1  0.61393072  0.54649988  0.16097746  1  0  0.116542  0  0.987047  0  0  0.125784  0  1.047316  0  0  0.129387  0  1.045393  0  0.144533  0  0.099603  0.123094  0  1.049053  0
H  H23  1  0.38606859  0.45350025  0.66097871  1  0  0.11658  0  0.987071  0  0  0.125832  0  1.047324  0  0  0.129434  0  1.045404  0  0.144494  0  0.099621  0.123142  0  1.049061  0
H  H24  1  0.54571203  0.61299058  0.83895468  1  0  0.116495  0  0.987864  0  0  0.126226  0  1.047758  0  0  0.129847  0  1.045805  0  0.147126  0  0.099359  0.123528  0  1.049505  0
H  H25  1  0.45428772  0.38701050  0.33895592  1  0  0.116485  0  0.987908  0  0  0.126197  0  1.047822  0  0  0.129819  0  1.045868  0  0.147142  0  0.099353  0.123499  0  1.049567  0
H  H26  1  0.38606859  0.45350025  0.83902129  1  0  0.116579  0  0.987071  0  0  0.125832  0  1.047324  0  0  0.129434  0  1.045404  0  0.149115  0  0.099621  0.123142  0  1.049061  0
H  H27  1  0.61393072  0.54649988  0.33902254  1  0  0.116542  0  0.987047  0  0  0.125783  0  1.047317  0  0  0.129387  0  1.045393  0  0.149156  0  0.099603  0.123094  0  1.049053  0
H  H28  1  0.45428772  0.38701050  0.16104408  1  0  0.116485  0  0.987908  0  0  0.126198  0  1.047822  0  0  0.129819  0  1.045867  0  0.151762  0  0.099353  0.123499  0  1.049567  0
H  H29  1  0.54571203  0.61299058  0.66104532  1  0  0.116495  0  0.987865  0  0  0.126225  0  1.047758  0  0  0.129847  0  1.045805  0  0.151748  0  0.099359  0.123528  0  1.049505  0
H  H30  1  0.81301470  0.74891868  0.15605404  1  0  0.076443  0  0.933719  0  0  0.084992  0  0.997517  0  0  0.087431  0  0.995655  0  0.121759  0  0.118749  0.083113  0  0.999081  0
H  H31  1  0.18698376  0.25108145  0.65605529  1  0  0.076427  0  0.933687  0  0  0.084984  0  0.997492  0  0  0.087419  0  0.995627  0  0.122701  0  0.118738  0.083103  0  0.999054  0
H  H32  1  0.74821456  0.81175699  0.84415826  1  0  0.075939  0  0.932997  0  0  0.084484  0  0.996881  0  0  0.087024  0  0.994924  0  0.088901  0  0.118699  0.082547  0  0.998514  0
H  H33  1  0.25178688  0.18824409  0.34415826  1  0  0.07592  0  0.932991  0  0  0.084452  0  0.996885  0  0  0.08699  0  0.99493  0  0.088888  0  0.118691  0.082515  0  0.998519  0
H  H34  1  0.18698376  0.25108145  0.84394471  1  0  0.076427  0  0.933688  0  0  0.084985  0  0.997492  0  0  0.087419  0  0.995627  0  0.121732  0  0.118738  0.083103  0  0.999054  0
H  H35  1  0.81301470  0.74891868  0.34394596  1  0  0.076444  0  0.933718  0  0  0.084993  0  0.997516  0  0  0.087431  0  0.995653  0  0.122725  0  0.118749  0.083113  0  0.999081  0
H  H36  1  0.25178688  0.18824409  0.15584174  1  0  0.075919  0  0.932991  0  0  0.084451  0  0.996886  0  0  0.086989  0  0.994931  0  0.088006  0  0.11869  0.082514  0  0.998519  0
H  H37  1  0.74821456  0.81175699  0.65584174  1  0  0.075938  0  0.932997  0  0  0.084484  0  0.996881  0  0  0.087023  0  0.994924  0  0.08802  0  0.118699  0.082547  0  0.998514  0
H  H38  1  0.50007527  0.06572970  0.37873988  1  0  0.07471  0  0.939592  0  0  0.081911  0  1.005109  0  0  0.084597  0  1.002807  0  0.076697  0  0.116261  0.07997  0  1.006761  0
H  H39  1  0.49992358  0.93426947  0.87873988  1  0  0.07472  0  0.939568  0  0  0.081928  0  1.00508  0  0  0.084609  0  1.002783  0  0.076697  0  0.116265  0.079986  0  1.006734  0
H  H40  1  0.06570232  0.50010592  0.62126634  1  0  0.074458  0  0.939749  0  0  0.081865  0  1.005051  0  0  0.084489  0  1.002801  0  0.076612  0  0.116243  0.079937  0  1.006699  0
H  H41  1  0.93429823  0.49989326  0.12126634  1  0  0.074463  0  0.939747  0  0  0.081868  0  1.005048  0  0  0.084492  0  1.0028  0  0.076609  0  0.116241  0.079942  0  1.006698  0
H  H42  1  0.49992358  0.93426947  0.62126012  1  0  0.074719  0  0.939568  0  0  0.081928  0  1.005081  0  0  0.08461  0  1.002783  0  0.076697  0  0.116265  0.079986  0  1.006734  0
H  H43  1  0.50007527  0.06572970  0.12126012  1  0  0.074711  0  0.939591  0  0  0.081912  0  1.005108  0  0  0.084596  0  1.002808  0  0.076697  0  0.116261  0.07997  0  1.006761  0
H  H44  1  0.93429823  0.49989326  0.37873366  1  0  0.074462  0  0.939747  0  0  0.081868  0  1.005048  0  0  0.084492  0  1.0028  0  0.076609  0  0.116241  0.079942  0  1.006697  0
H  H45  1  0.06570232  0.50010592  0.87873366  1  0  0.074459  0  0.939748  0  0  0.081865  0  1.00505  0  0  0.084489  0  1.002801  0  0.076612  0  0.116243  0.079937  0  1.006699  0
H  H46  1  0.29074619  0.87179926  0.38517744  1  0  0.111837  0  0.958241  0  0  0.12113  0  1.019776  0  0  0.124294  0  1.018542  0  0.103911  0  0.104806  0.118746  0  1.021063  0
H  H47  1  0.70925396  0.12820087  0.88517806  1  0  0.11186  0  0.958183  0  0  0.121131  0  1.019749  0  0  0.124294  0  1.018518  0  0.103906  0  0.1048  0.118746  0  1.021037  0
H  H48  1  0.87194272  0.29082100  0.61482754  1  0  0.111838  0  0.957599  0  0  0.120855  0  1.019524  0  0  0.124103  0  1.018191  0  0.108896  0  0.104748  0.118407  0  1.020889  0
H  H49  1  0.12805783  0.70917818  0.11482754  1  0  0.111839  0  0.957593  0  0  0.120873  0  1.019503  0  0  0.124121  0  1.018171  0  0.108898  0  0.104742  0.118425  0  1.020868  0
H  H50  1  0.70925396  0.12820087  0.61482194  1  0  0.111858  0  0.958183  0  0  0.12113  0  1.01975  0  0  0.124294  0  1.018517  0  0.103906  0  0.1048  0.118747  0  1.021037  0
H  H51  1  0.29074619  0.87179926  0.11482256  1  0  0.111838  0  0.958241  0  0  0.121129  0  1.019777  0  0  0.124293  0  1.018543  0  0.103911  0  0.104806  0.118746  0  1.021064  0
H  H52  1  0.12805783  0.70917818  0.38517246  1  0  0.111837  0  0.957595  0  0  0.120872  0  1.019506  0  0  0.124121  0  1.018171  0  0.108898  0  0.104742  0.118425  0  1.020869  0
H  H53  1  0.87194272  0.29082100  0.88517246  1  0  0.111838  0  0.957599  0  0  0.120855  0  1.019523  0  0  0.124102  0  1.018192  0  0.108896  0  0.104748  0.118407  0  1.020888  0
C  C54  1  0.63145349  0.83843185  0.04970801  1  0  0.14332  0  3.725532  0  0  0.114205  0  3.982413  0  0  0.120363  0  4.000894  0  0.439043  0  0.050528  0.109989  0  3.970237  0
C  C55  1  0.36854795  0.16156923  0.54970863  1  0  0.143258  0  3.725584  0  0  0.114191  0  3.982432  0  0  0.120351  0  4.00091  0  0.438429  0  0.050518  0.109974  0  3.970256  0
C  C56  1  0.83913682  0.63176940  0.95053792  1  0  0.145403  0  3.724044  0  0  0.116191  0  3.981102  0  0  0.122403  0  3.999554  0  0.431268  0  0.051123  0.11194  0  3.968928  0
C  C57  1  0.16086249  0.36823073  0.45053854  1  0  0.145282  0  3.724098  0  0  0.116062  0  3.981183  0  0  0.122273  0  3.999635  0  0.431283  0  0.051027  0.111807  0  3.969015  0
C  C58  1  0.36854795  0.16156923  0.95029137  1  0  0.143258  0  3.725583  0  0  0.11419  0  3.982432  0  0  0.120351  0  4.00091  0  0.438429  0  0.050518  0.109974  0  3.970255  0
C  C59  1  0.63145349  0.83843185  0.45029199  1  0  0.14332  0  3.725532  0  0  0.114206  0  3.982413  0  0  0.120363  0  4.000894  0  0.439043  0  0.050528  0.109989  0  3.970237  0
C  C60  1  0.16086249  0.36823073  0.04946146  1  0  0.145282  0  3.724097  0  0  0.116062  0  3.981183  0  0  0.122274  0  3.999634  0  0.431283  0  0.051027  0.111807  0  3.969015  0
C  C61  1  0.83913682  0.63176940  0.54946208  1  0  0.145403  0  3.724043  0  0  0.116191  0  3.981102  0  0  0.122403  0  3.999553  0  0.431268  0  0.051123  0.11194  0  3.968928  0
C  C62  1  0.51415854  0.72877140  0.05007969  1  0  -0.144491  0  3.675612  0  0  -0.16237  0  3.919792  0  0  -0.169381  0  3.940635  0  0.007237  0  -0.078164  -0.157815  0  3.906249  0
C  C63  1  0.48583948  0.27122777  0.55008031  1  0  -0.144501  0  3.675553  0  0  -0.162364  0  3.919703  0  0  -0.169376  0  3.940546  0  0.007786  0  -0.078164  -0.157809  0  3.90616  0
C  C64  1  0.72942707  0.51464301  0.95002739  1  0  -0.145742  0  3.676355  0  0  -0.163882  0  3.920606  0  0  -0.170886  0  3.941484  0  0.014716  0  -0.078299  -0.159278  0  3.907043  0
C  C65  1  0.27057223  0.48535712  0.45002802  1  0  -0.145696  0  3.676412  0  0  -0.163844  0  3.920684  0  0  -0.170847  0  3.941567  0  0.014873  0  -0.078287  -0.159245  0  3.907117  0
C  C66  1  0.48583948  0.27122777  0.94991969  1  0  -0.144502  0  3.675553  0  0  -0.162364  0  3.919704  0  0  -0.169375  0  3.940546  0  0.007786  0  -0.078164  -0.15781  0  3.90616  0
C  C67  1  0.51415854  0.72877140  0.44992031  1  0  -0.144491  0  3.675612  0  0  -0.16237  0  3.919792  0  0  -0.169381  0  3.940634  0  0.007237  0  -0.078164  -0.157815  0  3.90625  0
C  C68  1  0.27057223  0.48535712  0.04997198  1  0  -0.145696  0  3.676412  0  0  -0.163844  0  3.920684  0  0  -0.170847  0  3.941567  0  0.014873  0  -0.078287  -0.159245  0  3.907117  0
C  C69  1  0.72942707  0.51464301  0.54997261  1  0  -0.145742  0  3.676355  0  0  -0.163883  0  3.920606  0  0  -0.170886  0  3.941483  0  0.014716  0  -0.078299  -0.159278  0  3.907043  0
C  C70  1  0.50234447  0.61886587  0.09093201  1  0  0.101077  0  3.718762  0  0  0.112712  0  3.948677  0  0  0.116604  0  3.969659  0  -0.067499  0  0.01594  0.110147  0  3.934763  0
C  C71  1  0.49765613  0.38113521  0.59093326  1  0  0.101154  0  3.718549  0  0  0.112791  0  3.948475  0  0  0.116683  0  3.969458  0  -0.067467  0  0.015944  0.110225  0  3.934561  0
C  C72  1  0.61895103  0.50234694  0.90908853  1  0  0.100451  0  3.718478  0  0  0.112227  0  3.948605  0  0  0.116174  0  3.969517  0  0.004898  0  0.015488  0.109612  0  3.93475  0
C  C73  1  0.38104917  0.49765509  0.40908978  1  0  0.100432  0  3.71843  0  0  0.112224  0  3.948541  0  0  0.116167  0  3.969458  0  0.004757  0  0.015488  0.109608  0  3.934687  0
C  C74  1  0.49765613  0.38113521  0.90906674  1  0  0.101155  0  3.718549  0  0  0.11279  0  3.948475  0  0  0.116683  0  3.969457  0  -0.067467  0  0.015944  0.110225  0  3.934561  0
C  C75  1  0.50234447  0.61886587  0.40906799  1  0  0.101077  0  3.718761  0  0  0.112712  0  3.948677  0  0  0.116605  0  3.969659  0  -0.0675  0  0.015939  0.110146  0  3.934763  0
C  C76  1  0.38104917  0.49765509  0.09091022  1  0  0.100431  0  3.718431  0  0  0.112224  0  3.948541  0  0  0.116166  0  3.969458  0  0.004757  0  0.015487  0.109608  0  3.934687  0
C  C77  1  0.61895103  0.50234694  0.59091147  1  0  0.10045  0  3.718478  0  0  0.112228  0  3.948605  0  0  0.116174  0  3.969517  0  0.004898  0  0.015488  0.109611  0  3.93475  0
C  C78  1  0.61278151  0.62765259  0.12996638  1  0  -0.142768  0  3.665946  0  0  -0.160406  0  3.908468  0  0  -0.167327  0  3.928981  0  -0.078282  0  -0.077613  -0.155845  0  3.894987  0
C  C79  1  0.38721521  0.37234563  0.62996825  1  0  -0.142847  0  3.665971  0  0  -0.160508  0  3.908535  0  0  -0.16743  0  3.929047  0  -0.078285  0  -0.077607  -0.155946  0  3.895052  0
C  C80  1  0.62727299  0.61213517  0.87004358  1  0  -0.141611  0  3.664946  0  0  -0.15996  0  3.907787  0  0  -0.166906  0  3.928323  0  -0.024465  0  -0.077587  -0.15539  0  3.894313  0
C  C81  1  0.37272975  0.38786686  0.37004420  1  0  -0.141565  0  3.664854  0  0  -0.159904  0  3.907695  0  0  -0.166848  0  3.92823  0  -0.024529  0  -0.077563  -0.155333  0  3.894221  0
C  C82  1  0.38721521  0.37234563  0.87003175  1  0  -0.142847  0  3.665972  0  0  -0.160507  0  3.908535  0  0  -0.16743  0  3.929046  0  -0.078242  0  -0.077607  -0.155947  0  3.895052  0
C  C83  1  0.61278151  0.62765259  0.37003362  1  0  -0.142767  0  3.665945  0  0  -0.160406  0  3.908469  0  0  -0.167328  0  3.928981  0  -0.078241  0  -0.077613  -0.155845  0  3.894988  0
C  C84  1  0.37272975  0.38786686  0.12995580  1  0  -0.141565  0  3.664854  0  0  -0.159905  0  3.907695  0  0  -0.166848  0  3.92823  0  -0.024471  0  -0.077563  -0.155333  0  3.894221  0
C  C85  1  0.62727299  0.61213517  0.62995642  1  0  -0.141611  0  3.664946  0  0  -0.15996  0  3.907787  0  0  -0.166906  0  3.928322  0  -0.024408  0  -0.077587  -0.15539  0  3.894313  0
C  C86  1  0.72623501  0.74095971  0.12650542  1  0  0.145588  0  3.717988  0  0  0.116271  0  3.97541  0  0  0.122882  0  3.993025  0  0.47948  0  0.051735  0.111863  0  3.96373  0
C  C87  1  0.27376773  0.25904232  0.62650666  1  0  0.145578  0  3.718015  0  0  0.116249  0  3.975463  0  0  0.122867  0  3.993071  0  0.4795  0  0.051696  0.111845  0  3.963779  0
C  C88  1  0.74066412  0.72547376  0.87369506  1  0  0.145831  0  3.718764  0  0  0.116564  0  3.976403  0  0  0.123069  0  3.994109  0  0.459089  0  0.052016  0.112206  0  3.964686  0
C  C89  1  0.25933519  0.27452637  0.37369568  1  0  0.145815  0  3.718727  0  0  0.116563  0  3.976376  0  0  0.123069  0  3.994083  0  0.45896  0  0.051993  0.112206  0  3.964659  0
C  C90  1  0.27376773  0.25904232  0.87349334  1  0  0.145577  0  3.718016  0  0  0.116249  0  3.975464  0  0  0.122868  0  3.99307  0  0.479433  0  0.051696  0.111845  0  3.963779  0
C  C91  1  0.72623501  0.74095971  0.37349458  1  0  0.145588  0  3.717988  0  0  0.116271  0  3.97541  0  0  0.122882  0  3.993024  0  0.47955  0  0.051735  0.111863  0  3.963729  0
C  C92  1  0.25933519  0.27452637  0.12630432  1  0  0.145814  0  3.718728  0  0  0.116563  0  3.976378  0  0  0.123068  0  3.994085  0  0.458844  0  0.051993  0.112205  0  3.96466  0
C  C93  1  0.74066412  0.72547376  0.62630494  1  0  0.145831  0  3.718763  0  0  0.116564  0  3.976403  0  0  0.123069  0  3.994108  0  0.458547  0  0.052016  0.112206  0  3.964686  0
C  C94  1  0.45026477  0.01835065  0.32170713  1  0  0.142607  0  3.728169  0  0  0.115267  0  3.980959  0  0  0.121594  0  3.999043  0  0.508942  0  0.052985  0.111076  0  3.969031  0
C  C95  1  0.54973539  0.98164948  0.82170651  1  0  0.142593  0  3.728176  0  0  0.115244  0  3.980965  0  0  0.121575  0  3.999049  0  0.508891  0  0.052972  0.111053  0  3.969039  0
C  C96  1  0.01826463  0.45035233  0.67829971  1  0  0.14208  0  3.729098  0  0  0.11455  0  3.981983  0  0  0.120933  0  4.000093  0  0.509354  0  0.05271  0.110343  0  3.970023  0
C  C97  1  0.98173593  0.54964685  0.17829971  1  0  0.142074  0  3.729082  0  0  0.114548  0  3.981967  0  0  0.120933  0  4.000076  0  0.509352  0  0.052711  0.11034  0  3.970007  0
C  C98  1  0.54973539  0.98164948  0.67829349  1  0  0.142593  0  3.728176  0  0  0.115244  0  3.980964  0  0  0.121575  0  3.999049  0  0.508891  0  0.052972  0.111053  0  3.969039  0
C  C99  1  0.45026477  0.01835065  0.17829287  1  0  0.142605  0  3.728169  0  0  0.115266  0  3.980959  0  0  0.121594  0  3.999043  0  0.508942  0  0.052985  0.111076  0  3.969031  0
C  C100  1  0.98173593  0.54964685  0.32170029  1  0  0.142075  0  3.729082  0  0  0.114548  0  3.981966  0  0  0.120933  0  4.000075  0  0.509352  0  0.052711  0.11034  0  3.970007  0
C  C101  1  0.01826463  0.45035233  0.82170029  1  0  0.14208  0  3.729097  0  0  0.114549  0  3.981984  0  0  0.120933  0  4.000093  0  0.509354  0  0.05271  0.110343  0  3.970023  0
C  C102  1  0.33272967  0.90899930  0.32452434  1  0  -0.141854  0  3.670011  0  0  -0.159963  0  3.913342  0  0  -0.166932  0  3.934064  0  -0.017974  0  -0.075713  -0.155425  0  3.899822  0
C  C103  1  0.66726959  0.09099892  0.82452434  1  0  -0.141831  0  3.670002  0  0  -0.159919  0  3.913346  0  0  -0.166887  0  3.934069  0  -0.017917  0  -0.075676  -0.155382  0  3.899824  0
C  C104  1  0.90909676  0.33280825  0.67547379  1  0  -0.141688  0  3.670027  0  0  -0.159523  0  3.913593  0  0  -0.166562  0  3.934255  0  -0.019388  0  -0.075491  -0.154939  0  3.900081  0
C  C105  1  0.09090295  0.66719093  0.17547379  1  0  -0.141676  0  3.670006  0  0  -0.159535  0  3.91358  0  0  -0.166575  0  3.934239  0  -0.019391  0  -0.075473  -0.154952  0  3.900067  0
C  C106  1  0.66726959  0.09099892  0.67547566  1  0  -0.141831  0  3.670003  0  0  -0.159918  0  3.913346  0  0  -0.166888  0  3.934068  0  -0.017917  0  -0.075676  -0.155382  0  3.899824  0
C  C107  1  0.33272967  0.90899930  0.17547566  1  0  -0.141854  0  3.670012  0  0  -0.159963  0  3.913344  0  0  -0.166932  0  3.934066  0  -0.017974  0  -0.075713  -0.155425  0  3.899823  0
C  C108  1  0.09090295  0.66719093  0.32452621  1  0  -0.141676  0  3.670007  0  0  -0.159535  0  3.91358  0  0  -0.166575  0  3.934239  0  -0.019391  0  -0.075473  -0.154952  0  3.900067  0
C  C109  1  0.90909676  0.33280825  0.82452621  1  0  -0.141688  0  3.670027  0  0  -0.159523  0  3.913594  0  0  -0.166563  0  3.934255  0  -0.019388  0  -0.075491  -0.15494  0  3.900081  0
C  C110  1  0.27139828  0.84970849  0.25000000  1  0  0.110053  0  3.715788  0  0  0.121207  0  3.944908  0  0  0.125285  0  3.965956  0  -0.062094  0  0.017985  0.118391  0  3.930706  0
C  C111  1  0.72860272  0.15029164  0.75000000  1  0  0.110005  0  3.715913  0  0  0.121151  0  3.945033  0  0  0.125229  0  3.966083  0  -0.062049  0  0.017952  0.118339  0  3.930822  0
C  C112  1  0.84978409  0.27148525  0.75000000  1  0  0.109649  0  3.715452  0  0  0.120632  0  3.944689  0  0  0.124714  0  3.96581  0  0.008443  0  0.018522  0.117862  0  3.930384  0
C  C113  1  0.15021602  0.72851297  0.25000000  1  0  0.109655  0  3.715399  0  0  0.120639  0  3.944648  0  0  0.124722  0  3.965769  0  0.008505  0  0.018523  0.11787  0  3.930343  0
N  N114  1  0.73664010  0.84583486  0.08734280  1  0  -0.41807  0  3.287802  0  0  -0.35612  0  3.555128  0  0  -0.371523  0  3.573802  0  -1.275797  0  -0.407617  -0.345366  0  3.54325  0
N  N115  1  0.26335920  0.15416527  0.58734404  1  0  -0.418004  0  3.287733  0  0  -0.356055  0  3.555053  0  0  -0.371454  0  3.573714  0  -1.275714  0  -0.407562  -0.345301  0  3.543174  0
N  N116  1  0.84605748  0.73638611  0.91298655  1  0  -0.418868  0  3.288199  0  0  -0.356934  0  3.5559  0  0  -0.37223  0  3.574289  0  -1.275829  0  -0.408201  -0.346254  0  3.544236  0
N  N117  1  0.15394222  0.26361306  0.41298655  1  0  -0.418772  0  3.288167  0  0  -0.356845  0  3.555872  0  0  -0.372142  0  3.574263  0  -1.275845  0  -0.40815  -0.346167  0  3.544213  0
N  N118  1  0.26335920  0.15416527  0.91265596  1  0  -0.418004  0  3.287733  0  0  -0.356055  0  3.555054  0  0  -0.371456  0  3.573714  0  -1.275713  0  -0.407561  -0.345301  0  3.543174  0
N  N119  1  0.73664010  0.84583486  0.41265720  1  0  -0.41807  0  3.287803  0  0  -0.35612  0  3.555128  0  0  -0.371523  0  3.573801  0  -1.275797  0  -0.407617  -0.345366  0  3.543251  0
N  N120  1  0.15394222  0.26361306  0.08701345  1  0  -0.418771  0  3.288167  0  0  -0.356845  0  3.555873  0  0  -0.372142  0  3.574264  0  -1.275845  0  -0.40815  -0.346167  0  3.544213  0
N  N121  1  0.84605748  0.73638611  0.58701345  1  0  -0.418868  0  3.2882  0  0  -0.356934  0  3.555899  0  0  -0.372229  0  3.574289  0  -1.275829  0  -0.408202  -0.346253  0  3.544235  0
N  N122  1  0.50989334  0.07216955  0.25000000  1  0  -0.408293  0  3.289676  0  0  -0.345823  0  3.550526  0  0  -0.361088  0  3.56915  0  -1.273474  0  -0.399518  -0.335177  0  3.538529  0
N  N123  1  0.49010682  0.92783058  0.75000000  1  0  -0.408323  0  3.289697  0  0  -0.345847  0  3.550553  0  0  -0.361111  0  3.569174  0  -1.273499  0  -0.399532  -0.335202  0  3.538559  0
N  N124  1  0.07195940  0.51003318  0.75000000  1  0  -0.4074  0  3.287615  0  0  -0.344856  0  3.548614  0  0  -0.360112  0  3.567174  0  -1.275051  0  -0.398994  -0.334216  0  3.536623  0
N  N125  1  0.92803986  0.48996505  0.25000000  1  0  -0.40743  0  3.287594  0  0  -0.344888  0  3.548578  0  0  -0.360145  0  3.567136  0  -1.275062  0  -0.39903  -0.334246  0  3.536588  0
Cl  Cl126  1  0.00556466  0.26140351  0.25000000  1  0  -0.750388  0  1.048767  0  0  -0.690865  0  1.298777  0  0  -0.707046  0  1.285135  0  -0.715099  0  -0.308174  -0.677814  0  1.308611  0
Cl  Cl127  1  0.99443505  0.73859567  0.75000000  1  0  -0.750396  0  1.048759  0  0  -0.690873  0  1.298775  0  0  -0.70706  0  1.285146  0  -0.715103  0  -0.308181  -0.677823  0  1.30861  0
Cl  Cl128  1  0.26170942  0.00513624  0.75000000  1  0  -0.750077  0  1.048197  0  0  -0.6906  0  1.297984  0  0  -0.706801  0  1.284464  0  -0.719788  0  -0.308246  -0.677574  0  1.307814  0
Cl  Cl129  1  0.73829073  0.99486389  0.25000000  1  0  -0.750075  0  1.048208  0  0  -0.6906  0  1.297995  0  0  -0.706802  0  1.284475  0  -0.719789  0  -0.308246  -0.677575  0  1.307824  0
Cl  Cl130  1  0.02663596  0.97402619  0.25000000  1  0  -0.668982  0  0.960197  0  0  -0.614461  0  1.229827  0  0  -0.62765  0  1.210392  0  -0.70862  0  -0.347361  -0.604144  0  1.243251  0
Cl  Cl131  1  0.97336459  0.02597299  0.75000000  1  0  -0.669007  0  0.960249  0  0  -0.614481  0  1.229882  0  0  -0.627666  0  1.210447  0  -0.708595  0  -0.34739  -0.604162  0  1.243307  0
Cl  Cl132  1  0.80117921  0.19835159  0.07797970  1  0  -0.704675  0  0.860109  0  0  -0.651397  0  1.112895  0  0  -0.664055  0  1.091294  0  -0.730542  0  -0.353737  -0.641779  0  1.128162  0
Cl  Cl133  1  0.19882179  0.80164854  0.57797970  1  0  -0.704672  0  0.860107  0  0  -0.651392  0  1.112903  0  0  -0.664051  0  1.091298  0  -0.730543  0  -0.353738  -0.641773  0  1.128162  0
Cl  Cl134  1  0.19882179  0.80164854  0.92202030  1  0  -0.704672  0  0.860107  0  0  -0.651392  0  1.112901  0  0  -0.664051  0  1.091299  0  -0.730543  0  -0.353738  -0.641773  0  1.128162  0
Cl  Cl135  1  0.80117921  0.19835159  0.42202030  1  0  -0.704675  0  0.86011  0  0  -0.651397  0  1.112897  0  0  -0.664056  0  1.091293  0  -0.730542  0  -0.353737  -0.641779  0  1.128161  0
Cl  Cl136  1  0.92997029  0.06946792  0.94270078  1  0  -0.689289  0  0.938941  0  0  -0.645785  0  1.221644  0  0  -0.659697  0  1.202948  0  -0.705493  0  -0.344886  -0.634569  0  1.234709  0
Cl  Cl137  1  0.07002986  0.93053220  0.44270078  1  0  -0.689288  0  0.938943  0  0  -0.645775  0  1.221631  0  0  -0.659686  0  1.202933  0  -0.704829  0  -0.344887  -0.63456  0  1.234697  0
Cl  Cl138  1  0.07003071  0.93053220  0.05729922  1  0  -0.689292  0  0.938941  0  0  -0.645771  0  1.221616  0  0  -0.659681  0  1.202917  0  -0.704768  0  -0.34489  -0.63456  0  1.234688  0
Cl  Cl139  1  0.92997029  0.06946792  0.55729922  1  0  -0.689287  0  0.93894  0  0  -0.645785  0  1.221646  0  0  -0.659698  0  1.202949  0  -0.705493  0  -0.344886  -0.63457  0  1.23471  0
Cl  Cl140  1  0.64640362  0.35367456  0.35958722  1  0  -0.678029  0  0.865953  0  0  -0.637092  0  1.113482  0  0  -0.651239  0  1.095968  0  -0.714066  0  -0.366654  -0.625712  0  1.125699  0
Cl  Cl141  1  0.35359609  0.64632461  0.85958722  1  0  -0.678031  0  0.865958  0  0  -0.637097  0  1.113488  0  0  -0.651245  0  1.095975  0  -0.714076  0  -0.366655  -0.625721  0  1.125706  0
Cl  Cl142  1  0.35359609  0.64632461  0.64041278  1  0  -0.67803  0  0.865958  0  0  -0.637097  0  1.113489  0  0  -0.651244  0  1.095975  0  -0.714076  0  -0.366655  -0.625721  0  1.125706  0
Cl  Cl143  1  0.64640362  0.35367456  0.14041278  1  0  -0.678029  0  0.865952  0  0  -0.637093  0  1.113481  0  0  -0.651238  0  1.095968  0  -0.714066  0  -0.366653  -0.625712  0  1.125699  0
