# generated using pymatgen
data_Cu4H8C13N8
_symmetry_space_group_name_H-M   'P 1'
_cell_length_a   19.84063836
_cell_length_b   19.85898769
_cell_length_c   19.85149353
_cell_angle_alpha   109.30169335
_cell_angle_beta   109.46889626
_cell_angle_gamma   109.61741876
_symmetry_Int_Tables_number   1
_chemical_formula_structural   Cu4H8C13N8
_chemical_formula_sum   'Cu24 H48 C78 N48'
_cell_volume   6023.08495685
_cell_formula_units_Z   6
loop_
 _symmetry_equiv_pos_site_id
 _symmetry_equiv_pos_as_xyz
  1  'x, y, z'
loop_
 _atom_site_type_symbol
 _atom_site_label
 _atom_site_symmetry_multiplicity
 _atom_site_fract_x
 _atom_site_fract_y
 _atom_site_fract_z
 _atom_site_occupancy
 _atom_site_pbe_bader_charge
 _atom_site_pbe_bader_spin_density
 _atom_site_pbe_cm5_charge
 _atom_site_pbe_ddec_charge
 _atom_site_pbe_ddec_spin_density
 _atom_site_pbe_ddec_sum_bond_order
 _atom_site_pbe_magmom
Cu  Cu0  1  0.63909737  0.53017153  0.56552084  1  0.533888  0  0.47997  0.197452  0  2.132646  0
Cu  Cu1  1  0.56613860  0.64174877  0.52781128  1  0.535593  0  0.47804  0.198571  0  2.118375  0
Cu  Cu2  1  0.53019579  0.56884619  0.64134059  1  0.536596  0  0.477932  0.198715  0  2.118417  0
Cu  Cu3  1  0.86039666  0.92748051  0.39111415  1  0.53558  0  0.482042  0.197521  0  2.143637  0
Cu  Cu4  1  0.93432495  0.96209561  0.57529722  1  0.535925  0  0.478193  0.197819  0  2.120258  0
Cu  Cu5  1  0.97045185  0.11176047  0.53909165  1  0.535244  0  0.478539  0.198518  0  2.120818  0
Cu  Cu6  1  0.53572024  0.96918295  0.10930157  1  0.536193  0  0.480779  0.197005  0  2.137112  0
Cu  Cu7  1  0.38609891  0.85852049  0.92469362  1  0.537046  0  0.479569  0.198967  0  2.123732  0
Cu  Cu8  1  0.57253036  0.93179640  0.96179255  1  0.536558  0  0.477514  0.198672  0  2.117074  0
Cu  Cu9  1  0.96392419  0.57258596  0.93365802  1  0.535728  0  0.481968  0.197339  0  2.143782  0
Cu  Cu10  1  0.11358554  0.53780454  0.97257300  1  0.53493  0  0.478563  0.199174  0  2.120372  0
Cu  Cu11  1  0.92751533  0.38839576  0.85886843  1  0.536145  0  0.478554  0.198418  0  2.12044  0
Cu  Cu12  1  0.13938438  0.06662692  0.03071608  1  0.53565  0  0.478944  0.197878  0  2.127818  0
Cu  Cu13  1  0.06582384  0.02800871  0.14194873  1  0.53536  0  0.478815  0.198676  0  2.123125  0
Cu  Cu14  1  0.02907371  0.14072943  0.06841560  1  0.535706  0  0.477287  0.198589  0  2.114003  0
Cu  Cu15  1  0.36005085  0.89088839  0.42743695  1  0.535788  0  0.479336  0.198087  0  2.129883  0
Cu  Cu16  1  0.43390322  0.07535589  0.46189322  1  0.536049  0  0.47906  0.198558  0  2.123382  0
Cu  Cu17  1  0.47118655  0.03905879  0.61163751  1  0.535614  0  0.477641  0.198946  0  2.114657  0
Cu  Cu18  1  0.03651169  0.60915415  0.46898488  1  0.536758  0  0.479483  0.198295  0  2.12925  0
Cu  Cu19  1  0.88663073  0.42471417  0.35846039  1  0.537078  0  0.478714  0.198534  0  2.121957  0
Cu  Cu20  1  0.07294990  0.46120784  0.43232563  1  0.53774  0  0.477253  0.198619  0  2.113613  0
Cu  Cu21  1  0.46406701  0.43316129  0.07219559  1  0.536214  0  0.478851  0.197989  0  2.128122  0
Cu  Cu22  1  0.61401127  0.47197622  0.03742668  1  0.537315  0  0.478745  0.198433  0  2.121653  0
Cu  Cu23  1  0.42752876  0.35897598  0.88787892  1  0.536535  0  0.477253  0.198942  0  2.113042  0
H  H24  1  0.74032240  0.53332990  0.47134784  1  0.110101  0  0.11493  0.110304  0  1.009027  0
H  H25  1  0.63922422  0.68303775  0.41662375  1  0.083774  0  0.119546  0.114068  0  0.987537  0
H  H26  1  0.53704299  0.47548849  0.74497793  1  0.0942  0  0.115193  0.111472  0  1.008089  0
H  H27  1  0.68127879  0.41921081  0.63657040  1  0.096084  0  0.119678  0.114418  0  0.988057  0
H  H28  1  0.47158573  0.74293017  0.53260127  1  0.099754  0  0.114602  0.110165  0  1.009051  0
H  H29  1  0.41972334  0.64079960  0.68294677  1  0.079064  0  0.119289  0.113776  0  0.988203  0
H  H30  1  0.75873762  0.73236041  0.29249713  1  0.061865  0  0.115069  0.110618  0  1.008298  0
H  H31  1  0.86222241  0.77788630  0.54298591  1  0.099826  0  0.120029  0.114989  0  0.986748  0
H  H32  1  0.96458678  0.20909200  0.43939022  1  0.088088  0  0.115204  0.111527  0  1.009514  0
H  H33  1  0.81764838  0.95677263  0.23856803  1  0.106319  0  0.119934  0.11507  0  0.986757  0
H  H34  1  0.02875989  0.06063780  0.77111257  1  0.104117  0  0.114948  0.110586  0  1.008642  0
H  H35  1  0.08101128  0.26324499  0.72152759  1  0.081621  0  0.1194  0.114167  0  0.987799  0
H  H36  1  0.43846626  0.96529647  0.20723453  1  0.111122  0  0.115061  0.110663  0  1.008891  0
H  H37  1  0.23382601  0.81776819  0.95662999  1  0.092105  0  0.119774  0.114367  0  0.987085  0
H  H38  1  0.76971795  0.02567627  0.06169686  1  0.093771  0  0.115107  0.111412  0  1.009086  0
H  H39  1  0.71786700  0.07986573  0.26241374  1  0.099926  0  0.119589  0.114011  0  0.987397  0
H  H40  1  0.28959382  0.75757385  0.72901254  1  0.109696  0  0.114745  0.110386  0  1.008862  0
H  H41  1  0.54228091  0.86041274  0.77952545  1  0.082702  0  0.119589  0.114307  0  0.988647  0
H  H42  1  0.06050070  0.76757066  0.02723920  1  0.101208  0  0.11485  0.11039  0  1.00904  0
H  H43  1  0.26560570  0.72204724  0.08407137  1  0.094411  0  0.120018  0.115039  0  0.98692  0
H  H44  1  0.73049042  0.29120206  0.75471254  1  0.139433  0  0.115265  0.111987  0  1.008717  0
H  H45  1  0.78193972  0.54347972  0.86161555  1  0.065141  0  0.119901  0.115038  0  0.985842  0
H  H46  1  0.21060656  0.43891767  0.96827335  1  0.108999  0  0.11478  0.110069  0  1.008366  0
H  H47  1  0.95813731  0.23669298  0.81777020  1  0.095491  0  0.119574  0.114712  0  0.98769  0
H  H48  1  0.24084293  0.97259864  0.03398719  1  0.111502  0  0.114804  0.11066  0  1.008903  0
H  H49  1  0.13779011  0.91627445  0.18215237  1  0.096255  0  0.120058  0.114877  0  0.986846  0
H  H50  1  0.03434078  0.24321226  0.97360652  1  0.080604  0  0.115426  0.111594  0  1.008669  0
H  H51  1  0.18214323  0.13862274  0.92040693  1  0.094384  0  0.119562  0.114277  0  0.986346  0
H  H52  1  0.97149298  0.03267567  0.24368729  1  0.097626  0  0.11493  0.110775  0  1.008424  0
H  H53  1  0.91827070  0.18151042  0.14029453  1  0.102567  0  0.119486  0.114468  0  0.987532  0
H  H54  1  0.25809002  0.79246673  0.23207415  1  0.099987  0  0.114943  0.110321  0  1.008728  0
H  H55  1  0.36106889  0.04328047  0.27808305  1  0.065015  0  0.11989  0.114749  0  0.986747  0
H  H56  1  0.46621595  0.93950867  0.70928459  1  0.084642  0  0.11524  0.110936  0  1.00922  0
H  H57  1  0.31763547  0.73823908  0.45726478  1  0.081174  0  0.11963  0.114781  0  0.987464  0
H  H58  1  0.52880129  0.27126108  0.56033903  1  0.099878  0  0.115019  0.110487  0  1.008201  0
H  H59  1  0.58225704  0.22170396  0.76283259  1  0.09249  0  0.119594  0.11471  0  0.987681  0
H  H60  1  0.93946510  0.70749905  0.46488294  1  0.105012  0  0.114922  0.110442  0  1.008234  0
H  H61  1  0.73463688  0.45670047  0.31754779  1  0.103844  0  0.119796  0.114794  0  0.986783  0
H  H62  1  0.27036480  0.56121165  0.52738695  1  0.08807  0  0.115092  0.111084  0  1.009302  0
H  H63  1  0.21881058  0.76199080  0.57967429  1  0.092674  0  0.119562  0.114403  0  0.987057  0
H  H64  1  0.78938829  0.22881051  0.25773692  1  0.105493  0  0.11475  0.110102  0  1.008806  0
H  H65  1  0.04164887  0.27861324  0.36054693  1  0.085722  0  0.119669  0.114673  0  0.987571  0
H  H66  1  0.56114080  0.52734838  0.26751665  1  0.099893  0  0.114986  0.110797  0  1.01007  0
H  H67  1  0.76601731  0.58386417  0.22126261  1  0.098252  0  0.119754  0.114527  0  0.987364  0
H  H68  1  0.23009833  0.25629859  0.79077706  1  0.072752  0  0.115192  0.111238  0  1.009534  0
H  H69  1  0.28175323  0.36087287  0.04315329  1  0.108599  0  0.119616  0.114592  0  0.987012  0
H  H70  1  0.71103537  0.46729086  0.93845912  1  0.108525  0  0.114908  0.111061  0  1.008795  0
H  H71  1  0.45874056  0.31853760  0.73642059  1  0.1025  0  0.119458  0.114606  0  0.987921  0
C  C72  1  0.70798469  0.56725077  0.46453150  1  0.350524  0  -0.004862  -0.067237  0  3.985158  0
C  C73  1  0.70633240  0.61144819  0.42252869  1  -0.005612  0  -0.032472  -0.037031  0  3.987905  0
C  C74  1  0.65618967  0.64356191  0.43656153  1  0.424353  0  0.000642  -0.05872  0  3.967156  0
C  C75  1  0.56946688  0.46839873  0.71099456  1  0.40492  0  -0.003837  -0.066955  0  3.982601  0
C  C76  1  0.61280838  0.42569573  0.70711547  1  -0.020171  0  -0.032928  -0.038198  0  3.984639  0
C  C77  1  0.64304850  0.43958959  0.65560307  1  0.404613  0  0.000414  -0.060612  0  3.972346  0
C  C78  1  0.46569855  0.71059188  0.56675991  1  0.399134  0  -0.003511  -0.064886  0  3.981875  0
C  C79  1  0.42420851  0.70830544  0.61143462  1  -0.031709  0  -0.03346  -0.039689  0  3.988403  0
C  C80  1  0.43920359  0.65832726  0.64343078  1  0.41321  0  0.000712  -0.059463  0  3.973247  0
C  C81  1  0.79150609  0.75762305  0.35868184  1  0.425977  0  -0.003868  -0.06715  0  3.985677  0
C  C82  1  0.79389493  0.71715227  0.40440220  1  -0.044806  0  -0.033286  -0.035961  0  3.989127  0
C  C83  1  0.84456157  0.78106843  0.48665033  1  0.398353  0  0.000648  -0.061363  0  3.9686  0
C  C84  1  0.93140260  0.14273194  0.39974717  1  0.487767  0  -0.003937  -0.067792  0  3.983611  0
C  C85  1  0.88734911  0.09564611  0.31371940  1  -0.103263  0  -0.033175  -0.037227  0  3.986198  0
C  C86  1  0.85646384  0.01389470  0.29720235  1  0.40868  0  1.7e-05  -0.061896  0  3.973062  0
C  C87  1  0.03479606  0.10086353  0.74486653  1  0.388178  0  -0.004084  -0.065717  0  3.982  0
C  C88  1  0.07637841  0.18694783  0.78422966  1  -0.000999  0  -0.033276  -0.038513  0  3.985176  0
C  C89  1  0.06146696  0.20421576  0.71942594  1  0.382722  0  0.000832  -0.060093  0  3.974937  0
C  C90  1  0.39769926  0.93189694  0.14104195  1  0.336453  0  -0.004526  -0.067903  0  3.984697  0
C  C91  1  0.31148110  0.88835806  0.09523307  1  0.045074  0  -0.032546  -0.035478  0  3.989144  0
C  C92  1  0.29329865  0.85667951  0.01301139  1  0.399969  0  0.000935  -0.059228  0  3.968491  0
C  C93  1  0.74288171  0.03223706  0.10129179  1  0.375233  0  -0.004212  -0.067679  0  3.983662  0
C  C94  1  0.78183245  0.07447505  0.18732282  1  0.064439  0  -0.032498  -0.037366  0  3.982706  0
C  C95  1  0.71646041  0.06001338  0.20379230  1  0.385676  0  0.000287  -0.060237  0  3.97086  0
C  C96  1  0.35612516  0.79004632  0.75547466  1  0.381238  0  -0.003738  -0.065994  0  3.982143  0
C  C97  1  0.40317607  0.79255046  0.71637661  1  0.037275  0  -0.033443  -0.037122  0  3.98507  0
C  C98  1  0.48516066  0.84266211  0.78136763  1  0.354455  0  0.000572  -0.061019  0  3.974907  0
C  C99  1  0.10144790  0.74230568  0.03456880  1  0.32938  0  -0.004026  -0.06677  0  3.98623  0
C  C100  1  0.18766934  0.78277428  0.07706188  1  0.049631  0  -0.033033  -0.037127  0  3.991125  0
C  C101  1  0.20605817  0.71886239  0.06358846  1  0.39712  0  0.000647  -0.059784  0  3.967694  0
C  C102  1  0.75718478  0.35754150  0.78828869  1  0.361361  0  -0.004421  -0.069512  0  3.984178  0
C  C103  1  0.71820684  0.40461280  0.79152415  1  0.044012  0  -0.032814  -0.035998  0  3.985579  0
C  C104  1  0.78344733  0.48634493  0.84294432  1  0.384159  0  -0.000206  -0.062333  0  3.971959  0
C  C105  1  0.14408231  0.39880559  0.93406170  1  0.373207  0  -0.003958  -0.064911  0  3.981815  0
C  C106  1  0.09721806  0.31273110  0.88940834  1  0.01214  0  -0.033162  -0.038107  0  3.984454  0
C  C107  1  0.01515872  0.29564419  0.85730751  1  0.375359  0  0.000561  -0.061379  0  3.973973  0
C  C108  1  0.20820164  0.96552756  0.06768037  1  0.385796  0  -0.004179  -0.067492  0  3.983698  0
C  C109  1  0.20585664  0.92301826  0.11140337  1  -0.001426  0  -0.032586  -0.036515  0  3.987183  0
C  C110  1  0.15537655  0.93674191  0.14318721  1  0.392124  0  0.000442  -0.059694  0  3.9695  0
C  C111  1  0.06779280  0.21027447  0.96738473  1  0.407361  0  -0.004325  -0.06713  0  3.982874  0
C  C112  1  0.11211257  0.20743934  0.92550697  1  0.020798  0  -0.032793  -0.038357  0  3.983268  0
C  C113  1  0.14315661  0.15678169  0.94014670  1  0.378238  0  -0.000229  -0.060584  0  3.970616  0
C  C114  1  0.96525285  0.06648193  0.21102003  1  0.408686  0  -0.003391  -0.065288  0  3.981985  0
C  C115  1  0.92333366  0.11064009  0.20834369  1  -0.00453  0  -0.032817  -0.037812  0  3.985952  0
C  C116  1  0.93810707  0.14238360  0.15808512  1  0.371735  0  -2.6e-05  -0.061735  0  3.975603  0
C  C117  1  0.29072679  0.85871470  0.25746512  1  0.389965  0  -0.003986  -0.065801  0  3.981826  0
C  C118  1  0.29298344  0.90462180  0.21712765  1  -0.026951  0  -0.033042  -0.037187  0  3.988502  0
C  C119  1  0.34350971  0.98684113  0.28113518  1  0.435774  0  0.000933  -0.059792  0  3.970104  0
C  C120  1  0.43256678  0.89972694  0.64294444  1  0.373771  0  -0.004152  -0.06633  0  3.981922  0
C  C121  1  0.38819400  0.81360276  0.59603746  1  0.031154  0  -0.032752  -0.037328  0  3.982376  0
C  C122  1  0.35679926  0.79699207  0.51425635  1  0.416303  0  0.00017  -0.061491  0  3.972732  0
C  C123  1  0.53500411  0.24496726  0.60051185  1  0.305004  0  -0.004317  -0.066345  0  3.982643  0
C  C124  1  0.57687066  0.28435565  0.68653107  1  0.076363  0  -0.032928  -0.037203  0  3.985572  0
C  C125  1  0.56228317  0.21954162  0.70380603  1  0.381605  0  0.0004  -0.061906  0  3.974798  0
C  C126  1  0.89859166  0.64126258  0.43147395  1  0.346959  0  -0.004526  -0.067174  0  3.982716  0
C  C127  1  0.81230465  0.59535830  0.38800443  1  0.036461  0  -0.032454  -0.036017  0  3.98699  0
C  C128  1  0.79413927  0.51314114  0.35639193  1  0.407238  0  0.000576  -0.06056  0  3.97142  0
C  C129  1  0.24358719  0.60082159  0.53337137  1  0.424064  0  -0.004001  -0.066935  0  3.980839  0
C  C130  1  0.28260000  0.68693535  0.57509599  1  -0.011675  0  -0.032805  -0.037587  0  3.983155  0
C  C131  1  0.21724257  0.70331639  0.56013898  1  0.41583  0  -6.5e-05  -0.06124  0  3.972442  0
C  C132  1  0.85589483  0.25517493  0.29016828  1  0.382421  0  -0.00382  -0.065226  0  3.982458  0
C  C133  1  0.90263014  0.21585481  0.29259603  1  0.017662  0  -0.033217  -0.037536  0  3.98567  0
C  C134  1  0.98472356  0.28072028  0.34277857  1  0.380275  0  0.00065  -0.061429  0  3.975111  0
C  C135  1  0.60201268  0.53443525  0.24206205  1  0.475464  0  -0.004585  -0.067582  0  3.986417  0
C  C136  1  0.68827614  0.57694567  0.28236344  1  -0.081568  0  -0.032588  -0.03637  0  3.988288  0
C  C137  1  0.70650594  0.56331971  0.21829066  1  0.406677  0  0.000783  -0.059521  0  3.971316  0
C  C138  1  0.25688441  0.28923801  0.85714637  1  0.416747  0  -0.003855  -0.066451  0  3.982357  0
C  C139  1  0.21789405  0.29205469  0.90435049  1  0.0474  0  -0.032821  -0.038214  0  3.983073  0
C  C140  1  0.28327241  0.34273356  0.98599917  1  0.343934  0  0.000185  -0.061069  0  3.9722  0
C  C141  1  0.64453353  0.43351507  0.89841324  1  0.396416  0  -0.004261  -0.068116  0  3.983001  0
C  C142  1  0.59771919  0.38946059  0.81238147  1  0.003884  0  -0.033138  -0.036859  0  3.985629  0
C  C143  1  0.51566322  0.35763785  0.79537172  1  0.376071  0  0.00071  -0.061888  0  3.975173  0
C  C144  1  0.62643292  0.37609232  0.74933112  1  0.128041  0  0.023999  0.096783  0  3.881273  0
C  C145  1  0.87370313  0.12411291  0.25047107  1  0.127867  0  0.023684  0.096141  0  3.882453  0
C  C146  1  0.37450910  0.75035622  0.62470521  1  0.125982  0  0.024493  0.0965  0  3.881161  0
C  C147  1  0.12597903  0.24977982  0.87595130  1  0.127105  0  0.023922  0.097068  0  3.876688  0
C  C148  1  0.75019900  0.62520359  0.37430240  1  0.147172  0  0.02442  0.093464  0  3.890134  0
C  C149  1  0.24946983  0.87472289  0.12523477  1  0.105782  0  0.023876  0.092706  0  3.894854  0
N  N150  1  0.62961374  0.61971069  0.48353545  1  -0.768444  0  -0.339426  -0.141461  0  3.776851  0
N  N151  1  0.66176498  0.57237674  0.50095026  1  -0.772492  0  -0.343672  -0.141812  0  3.779876  0
N  N152  1  0.61886388  0.48696447  0.63028041  1  -0.775877  0  -0.341202  -0.140376  0  3.781535  0
N  N153  1  0.57322378  0.50496017  0.66462189  1  -0.771872  0  -0.342067  -0.141767  0  3.770252  0
N  N154  1  0.48622996  0.63247348  0.61917365  1  -0.769969  0  -0.339722  -0.140997  0  3.779913  0
N  N155  1  0.50275515  0.66489688  0.57157746  1  -0.760825  0  -0.342103  -0.142113  0  3.77354  0
N  N156  1  0.87073704  0.85464415  0.48953566  1  -0.751973  0  -0.339799  -0.13953  0  3.776033  0
N  N157  1  0.83782092  0.84012951  0.41016985  1  -0.776003  0  -0.345311  -0.14275  0  3.785192  0
N  N158  1  0.88087049  0.01261899  0.36866430  1  -0.7856  0  -0.342895  -0.141621  0  3.790363  0
N  N159  1  0.92733015  0.09245760  0.43237863  1  -0.770044  0  -0.341587  -0.140153  0  3.772418  0
N  N160  1  0.01442446  0.13314154  0.64648838  1  -0.767685  0  -0.340483  -0.141136  0  3.783152  0
N  N161  1  0.99778046  0.06890213  0.66216359  1  -0.755006  0  -0.341531  -0.141783  0  3.774825  0
N  N162  1  0.36413340  0.88021407  0.01026433  1  -0.767964  0  -0.340515  -0.141652  0  3.780248  0
N  N163  1  0.42892989  0.92684347  0.08966471  1  -0.777942  0  -0.344224  -0.141491  0  3.780687  0
N  N164  1  0.64368833  0.01274437  0.13232278  1  -0.787616  0  -0.341512  -0.140152  0  3.783849  0
N  N165  1  0.65991678  0.99539201  0.06860978  1  -0.802648  0  -0.341615  -0.141491  0  3.770422  0
N  N166  1  0.48668520  0.86840043  0.85419061  1  -0.780056  0  -0.339896  -0.141186  0  3.780611  0
N  N167  1  0.40660718  0.83575433  0.83819865  1  -0.753788  0  -0.342509  -0.142176  0  3.77871  0
N  N168  1  0.13534190  0.64528476  0.01645042  1  -0.772112  0  -0.34001  -0.141771  0  3.779279  0
N  N169  1  0.07044076  0.65979726  0.99840242  1  -0.766306  0  -0.344949  -0.141863  0  3.786018  0
N  N170  1  0.85621709  0.48760310  0.86876531  1  -0.773456  0  -0.342701  -0.141523  0  3.789893  0
N  N171  1  0.84010880  0.40778131  0.83491451  1  -0.790821  0  -0.341575  -0.139554  0  3.772525  0
N  N172  1  0.01345057  0.36681294  0.88150199  1  -0.772779  0  -0.340105  -0.140376  0  3.7812  0
N  N173  1  0.09345349  0.43092981  0.92914250  1  -0.762066  0  -0.342203  -0.143129  0  3.776935  0
N  N174  1  0.12930918  0.98405226  0.11967877  1  -0.759425  0  -0.340781  -0.142304  0  3.780494  0
N  N175  1  0.16206478  0.00198871  0.07282853  1  -0.785139  0  -0.342724  -0.141024  0  3.775719  0
N  N176  1  0.11869400  0.13107861  0.98727871  1  -0.769059  0  -0.341329  -0.142119  0  3.781633  0
N  N177  1  0.07193674  0.16425381  0.00430774  1  -0.779199  0  -0.34043  -0.14027  0  3.768159  0
N  N178  1  0.98537645  0.11846531  0.13237692  1  -0.773605  0  -0.339282  -0.13967  0  3.779003  0
N  N179  1  0.00230244  0.07134643  0.16522266  1  -0.769442  0  -0.34259  -0.143296  0  3.777758  0
N  N180  1  0.36974977  0.98955332  0.35458620  1  -0.770238  0  -0.340703  -0.141307  0  3.779669  0
N  N181  1  0.33700801  0.91008102  0.33998846  1  -0.752417  0  -0.343478  -0.142773  0  3.777013  0
N  N182  1  0.38113699  0.86841567  0.51275555  1  -0.78031  0  -0.341098  -0.141367  0  3.78227  0
N  N183  1  0.42814466  0.93227261  0.59257124  1  -0.770998  0  -0.341336  -0.141604  0  3.770276  0
N  N184  1  0.51506349  0.14653958  0.63279031  1  -0.769082  0  -0.339842  -0.140088  0  3.778211  0
N  N185  1  0.49804608  0.16222742  0.56858777  1  -0.755724  0  -0.342395  -0.142706  0  3.777086  0
N  N186  1  0.86492766  0.51043716  0.37984807  1  -0.772239  0  -0.340577  -0.141594  0  3.779214  0
N  N187  1  0.92979701  0.58991647  0.42642318  1  -0.785922  0  -0.343002  -0.141706  0  3.776264  0
N  N188  1  0.14440342  0.63178862  0.51295946  1  -0.780312  0  -0.341398  -0.141973  0  3.782645  0
N  N189  1  0.16059429  0.56806739  0.49622700  1  -0.796238  0  -0.340703  -0.140147  0  3.767397  0
N  N190  1  0.98662237  0.35369140  0.36858601  1  -0.778867  0  -0.339393  -0.140369  0  3.778747  0
N  N191  1  0.90666111  0.33793060  0.33593351  1  -0.762369  0  -0.342329  -0.14267  0  3.776026  0
N  N192  1  0.63574131  0.51602933  0.14485940  1  -0.768068  0  -0.340218  -0.141369  0  3.779753  0
N  N193  1  0.57083072  0.49803376  0.15952587  1  -0.794399  0  -0.343071  -0.142037  0  3.776494  0
N  N194  1  0.35609680  0.36847036  0.98715633  1  -0.766588  0  -0.341272  -0.141655  0  3.78189  0
N  N195  1  0.33987064  0.33529788  0.90723149  1  -0.79192  0  -0.341003  -0.141255  0  3.769664  0
N  N196  1  0.51383655  0.38142742  0.86651837  1  -0.767112  0  -0.339402  -0.139849  0  3.777193  0
N  N197  1  0.59382626  0.42853419  0.93056286  1  -0.785523  0  -0.342006  -0.14164  0  3.775249  0
