# generated using pymatgen
data_ErH14(C3O2)5
_symmetry_space_group_name_H-M   'P 1'
_cell_length_a   6.07967357
_cell_length_b   10.57292846
_cell_length_c   13.38983907
_cell_angle_alpha   112.13651661
_cell_angle_beta   96.86348186
_cell_angle_gamma   97.88295768
_symmetry_Int_Tables_number   1
_chemical_formula_structural   ErH14(C3O2)5
_chemical_formula_sum   'Er2 H28 C30 O20'
_cell_volume   775.85508176
_cell_formula_units_Z   2
loop_
 _symmetry_equiv_pos_site_id
 _symmetry_equiv_pos_as_xyz
  1  'x, y, z'
loop_
 _atom_site_type_symbol
 _atom_site_label
 _atom_site_symmetry_multiplicity
 _atom_site_fract_x
 _atom_site_fract_y
 _atom_site_fract_z
 _atom_site_occupancy
 _atom_site_hle17_bader_spin_density
 _atom_site_hle17_ddec_charge
 _atom_site_hle17_ddec_spin_density
 _atom_site_hle17_ddec_sum_bond_order
 _atom_site_hle17_magmom
 _atom_site_hse06_10hf_bader_spin_density
 _atom_site_hse06_10hf_ddec_charge
 _atom_site_hse06_10hf_ddec_spin_density
 _atom_site_hse06_10hf_ddec_sum_bond_order
 _atom_site_hse06_10hf_magmom
 _atom_site_hse06_bader_spin_density
 _atom_site_hse06_ddec_charge
 _atom_site_hse06_ddec_spin_density
 _atom_site_hse06_ddec_sum_bond_order
 _atom_site_hse06_magmom
 _atom_site_pbe_bader_spin_density
 _atom_site_pbe_cm5_charge
 _atom_site_pbe_ddec_charge
 _atom_site_pbe_ddec_spin_density
 _atom_site_pbe_ddec_sum_bond_order
 _atom_site_pbe_magmom
Er  Er0  1  0.41547316  0.36989753  0.28997463  1  0  2.217017  0  1.64089  0  0  2.063345  0  2.125994  0  0  2.201697  0  1.919931  0  0  1.50845  2.026643  0  2.156069  0
Er  Er1  1  0.58452272  0.63010375  0.71002737  1  0  2.21705  0  1.640826  0  0  2.063484  0  2.125794  0  0  2.20173  0  1.919865  0  0  1.508451  2.026726  0  2.155929  0
H  H2  1  0.57663483  0.88633758  0.57555257  1  0  0.129846  0  0.908834  0  0  0.138847  0  0.970173  0  0  0.141049  0  0.968416  0  0  0.128898  0.137388  0  0.971314  0
H  H3  1  0.42337098  0.11366891  0.42444926  1  0  0.129864  0  0.908828  0  0  0.138836  0  0.970183  0  0  0.141035  0  0.968433  0  0  0.128914  0.13738  0  0.971325  0
H  H4  1  0.86241208  0.88236858  0.56339596  1  0  0.089342  0  0.961517  0  0  0.09461  0  1.034228  0  0  0.095193  0  1.035384  0  0  0.109502  0.094254  0  1.033391  0
H  H5  1  0.13759272  0.11763477  0.43660115  1  0  0.089328  0  0.961427  0  0  0.094562  0  1.034171  0  0  0.095139  0  1.035336  0  0  0.109472  0.094208  0  1.033332  0
H  H6  1  0.63671464  0.00414163  0.29560396  1  0  0.128176  0  0.968985  0  0  0.135432  0  1.032435  0  0  0.140457  0  1.028202  0  0  0.106284  0.132011  0  1.035347  0
H  H7  1  0.36328354  0.99585131  0.70439270  1  0  0.128182  0  0.968941  0  0  0.13541  0  1.032449  0  0  0.140447  0  1.028199  0  0  0.106282  0.131995  0  1.035352  0
H  H8  1  0.89129430  0.99633873  0.16550717  1  0  0.103424  0  0.953782  0  0  0.117889  0  1.007612  0  0  0.12083  0  1.00613  0  0  0.10523  0.115879  0  1.008606  0
H  H9  1  0.10870353  0.00365837  0.83448846  1  0  0.103466  0  0.95375  0  0  0.117915  0  1.007601  0  0  0.120858  0  1.006111  0  0  0.105242  0.115904  0  1.008592  0
H  H10  1  0.26950467  0.75235924  0.29031709  1  0  0.123004  0  0.949419  0  0  0.129931  0  1.014381  0  0  0.134606  0  1.010168  0  0  0.108923  0.126628  0  1.017452  0
H  H11  1  0.73049716  0.24763996  0.70968087  1  0  0.12302  0  0.949404  0  0  0.129951  0  1.014354  0  0  0.13462  0  1.010151  0  0  0.10892  0.126644  0  1.017428  0
H  H12  1  0.01411889  0.75893248  0.41966914  1  0  0.111048  0  0.944415  0  0  0.125887  0  0.995957  0  0  0.129414  0  0.993609  0  0  0.106107  0.123507  0  0.997435  0
H  H13  1  0.98589089  0.24107089  0.58033048  1  0  0.11104  0  0.944419  0  0  0.125856  0  0.995989  0  0  0.129386  0  0.993641  0  0  0.10607  0.123473  0  0.997471  0
H  H14  1  0.07398566  0.91529852  0.02808295  1  0  0.093713  0  0.955886  0  0  0.098618  0  1.029407  0  0  0.102143  0  1.025437  0  0  0.105322  0.096349  0  1.031955  0
H  H15  1  0.92601849  0.08470276  0.97191799  1  0  0.093698  0  0.955874  0  0  0.098608  0  1.029406  0  0  0.102127  0  1.025443  0  0  0.105315  0.096336  0  1.03196  0
H  H16  1  0.36477655  0.90801840  0.02857433  1  0  0.10764  0  0.89216  0  0  0.124071  0  0.942336  0  0  0.125729  0  0.941417  0  0  0.122643  0.123082  0  0.94279  0
H  H17  1  0.63522230  0.09198705  0.97142681  1  0  0.10762  0  0.892154  0  0  0.124063  0  0.94232  0  0  0.12572  0  0.941402  0  0  0.122627  0.123074  0  0.942778  0
H  H18  1  0.95968632  0.36213077  0.04330003  1  0  0.109653  0  0.91767  0  0  0.118456  0  0.98236  0  0  0.120778  0  0.980446  0  0  0.11992  0.116952  0  0.983549  0
H  H19  1  0.04031752  0.63785386  0.95669821  1  0  0.109639  0  0.917569  0  0  0.118406  0  0.98234  0  0  0.120721  0  0.980439  0  0  0.119901  0.116902  0  0.983536  0
H  H20  1  0.97061999  0.54164390  0.12585192  1  0  0.101879  0  0.932267  0  0  0.109774  0  0.999556  0  0  0.110919  0  1.000123  0  0  0.114219  0.109059  0  0.998997  0
H  H21  1  0.02936988  0.45834381  0.87413902  1  0  0.101887  0  0.932388  0  0  0.1098  0  0.999648  0  0  0.110942  0  1.000217  0  0  0.114232  0.10908  0  0.999096  0
H  H22  1  0.51455550  0.70174856  0.17524903  1  0  0.119319  0  0.967659  0  0  0.125018  0  1.035658  0  0  0.127932  0  1.034132  0  0  0.109102  0.122912  0  1.036889  0
H  H23  1  0.48544402  0.29825376  0.82475272  1  0  0.11931  0  0.967671  0  0  0.125022  0  1.035676  0  0  0.12793  0  1.034155  0  0  0.109118  0.122913  0  1.036914  0
H  H24  1  0.27211819  0.26846614  0.96497231  1  0  0.11582  0  0.964623  0  0  0.124983  0  1.028062  0  0  0.127834  0  1.026636  0  0  0.106365  0.123095  0  1.028753  0
H  H25  1  0.72788101  0.73152995  0.03502982  1  0  0.115873  0  0.964632  0  0  0.125031  0  1.02808  0  0  0.127882  0  1.026655  0  0  0.106392  0.123142  0  1.028774  0
H  H26  1  0.87582900  0.38311942  0.37874790  1  0  0.438945  0  0.857502  0  0  0.410518  0  0.916038  0  0  0.422399  0  0.898951  0  0  0.301618  0.402333  0  0.927993  0
H  H27  1  0.12416986  0.61688603  0.62125474  1  0  0.438936  0  0.857525  0  0  0.410549  0  0.916021  0  0  0.422424  0  0.898938  0  0  0.301619  0.402359  0  0.92798  0
H  H28  1  0.75830627  0.47352974  0.47597388  1  0  0.421278  0  0.883665  0  0  0.391505  0  0.946138  0  0  0.402248  0  0.930901  0  0  0.301367  0.38373  0  0.957568  0
H  H29  1  0.24169392  0.52647467  0.52402928  1  0  0.421289  0  0.883665  0  0  0.391507  0  0.946169  0  0  0.402251  0  0.930928  0  0  0.301367  0.383728  0  0.957603  0
C  C30  1  0.63354728  0.68532063  0.48208354  1  0  0.745379  0  3.786332  0  0  0.698742  0  4.08156  0  0  0.733809  0  4.075527  0  0  0.23946  0.675558  0  4.088662  0
C  C31  1  0.36645589  0.31468274  0.51791871  1  0  0.745436  0  3.786371  0  0  0.698869  0  4.081483  0  0  0.733946  0  4.075432  0  0  0.239508  0.675689  0  4.088566  0
C  C32  1  0.68719975  0.84235341  0.51768054  1  0  -0.092373  0  3.638493  0  0  -0.147294  0  3.896112  0  0  -0.144801  0  3.897017  0  0  -0.063051  -0.148809  0  3.894434  0
C  C33  1  0.31280308  0.15764892  0.48231989  1  0  -0.092405  0  3.638481  0  0  -0.147269  0  3.895964  0  0  -0.144781  0  3.896888  0  0  -0.063066  -0.148785  0  3.894294  0
C  C34  1  0.80314508  0.88028013  0.36512760  1  0  0.239257  0  3.820782  0  0  0.228038  0  4.089273  0  0  0.237278  0  4.105442  0  0  0.070752  0.22154  0  4.07836  0
C  C35  1  0.19685375  0.11971488  0.63486673  1  0  0.239194  0  3.820967  0  0  0.228008  0  4.089368  0  0  0.237247  0  4.105549  0  0  0.070751  0.221509  0  4.078464  0
C  C36  1  0.77425211  0.94774301  0.29387664  1  0  -0.157129  0  3.741926  0  0  -0.179152  0  3.99908  0  0  -0.181027  0  4.013668  0  0  -0.102665  -0.177791  0  3.989322  0
C  C37  1  0.22574605  0.05224992  0.70611629  1  0  -0.157057  0  3.741875  0  0  -0.179078  0  3.999005  0  0  -0.180965  0  4.013593  0  0  -0.102677  -0.177723  0  3.989242  0
C  C38  1  0.91899670  0.94249755  0.21971855  1  0  -0.183699  0  3.792766  0  0  -0.200908  0  4.042888  0  0  -0.204097  0  4.06189  0  0  -0.10865  -0.19863  0  4.02992  0
C  C39  1  0.08099981  0.05749538  0.78027653  1  0  -0.183818  0  3.792789  0  0  -0.20101  0  4.042889  0  0  -0.204199  0  4.061908  0  0  -0.108682  -0.198717  0  4.029907  0
C  C40  1  0.09528489  0.86941900  0.21648866  1  0  0.228428  0  3.82396  0  0  0.218556  0  4.090946  0  0  0.227155  0  4.108167  0  0  0.06504  0.212553  0  4.079368  0
C  C41  1  0.90472191  0.13058020  0.78351106  1  0  0.228573  0  3.823833  0  0  0.218681  0  4.090837  0  0  0.227279  0  4.108059  0  0  0.065121  0.212678  0  4.079254  0
C  C42  1  0.12766137  0.80485243  0.28952237  1  0  -0.14782  0  3.736145  0  0  -0.170713  0  3.996741  0  0  -0.172534  0  4.013204  0  0  -0.100962  -0.16946  0  3.985983  0
C  C43  1  0.87234676  0.19515094  0.71047866  1  0  -0.147802  0  3.735994  0  0  -0.170699  0  3.996579  0  0  -0.172519  0  4.013056  0  0  -0.100955  -0.169447  0  3.98583  0
C  C44  1  0.98255639  0.80970008  0.36354322  1  0  -0.168813  0  3.751431  0  0  -0.188098  0  4.002731  0  0  -0.190751  0  4.020744  0  0  -0.105563  -0.186154  0  3.990399  0
C  C45  1  0.01744907  0.19030015  0.63645375  1  0  -0.168796  0  3.751459  0  0  -0.188082  0  4.002725  0  0  -0.190746  0  4.020749  0  0  -0.105526  -0.186142  0  3.990403  0
C  C46  1  0.23932675  0.93774896  0.08172408  1  0  -0.065636  0  3.630183  0  0  -0.118092  0  3.888178  0  0  -0.114712  0  3.887251  0  0  -0.065271  -0.120291  0  3.888212  0
C  C47  1  0.76067475  0.06225440  0.91827510  1  0  -0.065548  0  3.630156  0  0  -0.118029  0  3.888178  0  0  -0.114634  0  3.887245  0  0  -0.065212  -0.120242  0  3.888234  0
C  C48  1  0.30731441  0.09351810  0.15248072  1  0  0.636218  0  3.929929  0  0  0.591636  0  4.234196  0  0  0.621973  0  4.239171  0  0  0.186169  0.570014  0  4.238059  0
C  C49  1  0.69268013  0.90648421  0.84752002  1  0  0.636401  0  3.929818  0  0  0.591793  0  4.234119  0  0  0.622121  0  4.239089  0  0  0.186245  0.570167  0  4.23799  0
C  C50  1  0.91214472  0.40558203  0.20820512  1  0  0.749363  0  3.801911  0  0  0.70505  0  4.091667  0  0  0.740268  0  4.085764  0  0  0.246822  0.68165  0  4.098677  0
C  C51  1  0.08784783  0.59441403  0.79179217  1  0  0.749343  0  3.801987  0  0  0.705011  0  4.091797  0  0  0.740228  0  4.085885  0  0  0.246799  0.68162  0  4.098788  0
C  C52  1  0.02079705  0.44537447  0.12584763  1  0  -0.067349  0  3.589524  0  0  -0.119697  0  3.839305  0  0  -0.11763  0  3.841632  0  0  -0.057267  -0.121149  0  3.839379  0
C  C53  1  0.97920212  0.55461640  0.87414922  1  0  -0.067283  0  3.589506  0  0  -0.11963  0  3.839322  0  0  -0.11756  0  3.841651  0  0  -0.057259  -0.121088  0  3.839413  0
C  C54  1  0.37926091  0.48413413  0.07635531  1  0  0.247994  0  3.788839  0  0  0.24455  0  4.045994  0  0  0.251528  0  4.065456  0  0  0.073656  0.239487  0  4.035233  0
C  C55  1  0.62073166  0.51586195  0.92364721  1  0  0.247763  0  3.788909  0  0  0.244364  0  4.046075  0  0  0.251348  0  4.065536  0  0  0.07363  0.2393  0  4.035323  0
C  C56  1  0.50897735  0.61392535  0.09873652  1  0  -0.131153  0  3.725697  0  0  -0.157493  0  3.983227  0  0  -0.159693  0  4.001717  0  0  -0.090407  -0.15589  0  3.970528  0
C  C57  1  0.49101920  0.38607281  0.90126683  1  0  -0.130982  0  3.725638  0  0  -0.157431  0  3.983271  0  0  -0.159621  0  4.001751  0  0  -0.090443  -0.155822  0  3.970569  0
C  C58  1  0.36930422  0.36992462  0.97894709  1  0  -0.154469  0  3.742714  0  0  -0.177144  0  3.996269  0  0  -0.180074  0  4.015053  0  0  -0.095428  -0.174903  0  3.983138  0
C  C59  1  0.63069963  0.63007564  0.02105802  1  0  -0.154393  0  3.742635  0  0  -0.177087  0  3.996104  0  0  -0.180034  0  4.014928  0  0  -0.095432  -0.174853  0  3.983001  0
O  O60  1  0.53171925  0.60686922  0.38584132  1  0  -0.709135  0  2.015282  0  0  -0.665935  0  2.276728  0  0  -0.703585  0  2.260815  0  0  -0.386583  -0.649036  0  2.283487  0
O  O61  1  0.46828425  0.39312999  0.61416121  1  0  -0.709151  0  2.01523  0  0  -0.666039  0  2.276695  0  0  -0.703683  0  2.260783  0  0  -0.386586  -0.649128  0  2.283442  0
O  O62  1  0.69951442  0.64085116  0.55561290  1  0  -0.770179  0  2.080181  0  0  -0.708924  0  2.33564  0  0  -0.748858  0  2.321513  0  0  -0.403028  -0.690094  0  2.343678  0
O  O63  1  0.30048942  0.35915430  0.44439225  1  0  -0.770229  0  2.080391  0  0  -0.708943  0  2.335751  0  0  -0.74889  0  2.321609  0  0  -0.403055  -0.690136  0  2.343826  0
O  O64  1  0.64653305  0.88938097  0.43239903  1  0  -0.247429  0  2.355734  0  0  -0.184193  0  2.594036  0  0  -0.200349  0  2.596957  0  0  -0.178983  -0.172554  0  2.591227  0
O  O65  1  0.35346778  0.11061510  0.56759870  1  0  -0.247432  0  2.35585  0  0  -0.184173  0  2.594054  0  0  -0.20032  0  2.596984  0  0  -0.178969  -0.172537  0  2.59126  0
O  O66  1  0.43160620  0.13692334  0.24722258  1  0  -0.68195  0  2.007798  0  0  -0.632578  0  2.250333  0  0  -0.668925  0  2.243498  0  0  -0.381477  -0.614968  0  2.25466  0
O  O67  1  0.56839365  0.86308003  0.75277949  1  0  -0.682024  0  2.007794  0  0  -0.632642  0  2.250338  0  0  -0.668953  0  2.243482  0  0  -0.3815  -0.615011  0  2.254649  0
O  O68  1  0.23929132  0.17880376  0.11509016  1  0  -0.698771  0  1.979346  0  0  -0.656646  0  2.228389  0  0  -0.690898  0  2.221366  0  0  -0.373231  -0.639495  0  2.233084  0
O  O69  1  0.76070323  0.82119856  0.88491058  1  0  -0.698888  0  1.979274  0  0  -0.656773  0  2.228345  0  0  -0.691016  0  2.221323  0  0  -0.373304  -0.639615  0  2.233043  0
O  O70  1  0.24308159  0.85420997  0.14363594  1  0  -0.267743  0  2.346964  0  0  -0.203036  0  2.586713  0  0  -0.219126  0  2.589912  0  0  -0.184476  -0.191304  0  2.584022  0
O  O71  1  0.75692124  0.14579235  0.85636449  1  0  -0.267911  0  2.346964  0  0  -0.203168  0  2.586707  0  0  -0.219277  0  2.589912  0  0  -0.184545  -0.19144  0  2.584023  0
O  O72  1  0.04157474  0.39277353  0.28491378  1  0  -0.722737  0  2.065782  0  0  -0.664509  0  2.305421  0  0  -0.702809  0  2.290977  0  0  -0.377441  -0.646239  0  2.313036  0
O  O73  1  0.95842080  0.60722670  0.71508640  1  0  -0.722743  0  2.065865  0  0  -0.664518  0  2.305526  0  0  -0.702806  0  2.291084  0  0  -0.377442  -0.646252  0  2.313141  0
O  O74  1  0.69971452  0.38774877  0.19681596  1  0  -0.715212  0  2.048117  0  0  -0.666464  0  2.302741  0  0  -0.706652  0  2.289583  0  0  -0.390421  -0.647417  0  2.307136  0
O  O75  1  0.30028102  0.61225147  0.80318496  1  0  -0.71515  0  2.048011  0  0  -0.666426  0  2.302679  0  0  -0.706587  0  2.28951  0  0  -0.390363  -0.647364  0  2.307065  0
O  O76  1  0.26258419  0.46817001  0.15682486  1  0  -0.378993  0  2.415274  0  0  -0.309315  0  2.663158  0  0  -0.333551  0  2.666366  0  0  -0.232248  -0.298926  0  2.662547  0
O  O77  1  0.73740904  0.53182815  0.84317756  1  0  -0.379016  0  2.415421  0  0  -0.30933  0  2.663214  0  0  -0.333562  0  2.666431  0  0  -0.232232  -0.298932  0  2.662615  0
O  O78  1  0.74109192  0.38188751  0.41419863  1  0  -0.896216  0  1.866345  0  0  -0.845297  0  2.044528  0  0  -0.875176  0  2.005979  0  0  -0.63871  -0.831536  0  2.066723  0
O  O79  1  0.25890429  0.61812002  0.58580448  1  0  -0.896219  0  1.866325  0  0  -0.845369  0  2.044394  0  0  -0.875221  0  2.00586  0  0  -0.638716  -0.831574  0  2.066585  0
