# generated using pymatgen
data_Ag3H22C11S3N7
_symmetry_space_group_name_H-M   'P 1'
_cell_length_a   8.72988412
_cell_length_b   9.65297990
_cell_length_c   12.26373091
_cell_angle_alpha   71.88481667
_cell_angle_beta   75.58002170
_cell_angle_gamma   82.38807837
_symmetry_Int_Tables_number   1
_chemical_formula_structural   Ag3H22C11S3N7
_chemical_formula_sum   'Ag6 H44 C22 S6 N14'
_cell_volume   949.58666833
_cell_formula_units_Z   2
loop_
 _symmetry_equiv_pos_site_id
 _symmetry_equiv_pos_as_xyz
  1  'x, y, z'
loop_
 _atom_site_type_symbol
 _atom_site_label
 _atom_site_symmetry_multiplicity
 _atom_site_fract_x
 _atom_site_fract_y
 _atom_site_fract_z
 _atom_site_occupancy
 _atom_site_hle17_bader_spin_density
 _atom_site_hle17_ddec_charge
 _atom_site_hle17_ddec_spin_density
 _atom_site_hle17_ddec_sum_bond_order
 _atom_site_hle17_magmom
 _atom_site_hse06_10hf_bader_spin_density
 _atom_site_hse06_10hf_ddec_charge
 _atom_site_hse06_10hf_ddec_spin_density
 _atom_site_hse06_10hf_ddec_sum_bond_order
 _atom_site_hse06_10hf_magmom
 _atom_site_hse06_bader_spin_density
 _atom_site_hse06_ddec_charge
 _atom_site_hse06_ddec_spin_density
 _atom_site_hse06_ddec_sum_bond_order
 _atom_site_hse06_magmom
 _atom_site_pbe_bader_spin_density
 _atom_site_pbe_cm5_charge
 _atom_site_pbe_ddec_charge
 _atom_site_pbe_ddec_spin_density
 _atom_site_pbe_ddec_sum_bond_order
 _atom_site_pbe_magmom
Ag  Ag0  1  0.07588773  0.88320999  0.95323620  1  0  0.356854  0  1.716285  0  0  0.22845  0  2.19826  0  0  0.253829  0  2.152696  0  0  0.370957  0.211377  0  2.229212  0
Ag  Ag1  1  0.92411452  0.11679042  0.04676706  1  0  0.356877  0  1.716262  0  0  0.228475  0  2.198238  0  0  0.253854  0  2.152669  0  0  0.370938  0.211381  0  2.22922  0
Ag  Ag2  1  0.21846197  0.15067941  0.45541960  1  0  0.440409  0  1.720376  0  0  0.331354  0  2.205783  0  0  0.349373  0  2.163205  0  0  0.401066  0.319697  0  2.234259  0
Ag  Ag3  1  0.78153514  0.84932750  0.54458044  1  0  0.440363  0  1.720492  0  0  0.331323  0  2.205914  0  0  0.349339  0  2.163336  0  0  0.401079  0.319672  0  2.234374  0
Ag  Ag4  1  0.29096741  0.39674555  0.57063887  1  0  0.450875  0  1.658273  0  0  0.328236  0  2.142461  0  0  0.349752  0  2.099252  0  0  0.412967  0.313901  0  2.171335  0
Ag  Ag5  1  0.70903708  0.60325701  0.42936101  1  0  0.450849  0  1.658286  0  0  0.328187  0  2.1425  0  0  0.349702  0  2.099293  0  0  0.412962  0.313852  0  2.171374  0
H  H6  1  0.09801241  0.10137142  0.28496651  1  0  0.254242  0  0.970269  0  0  0.242487  0  1.040179  0  0  0.247224  0  1.038239  0  0  0.259428  0.239054  0  1.041671  0
H  H7  1  0.90198503  0.89863010  0.71503812  1  0  0.254288  0  0.970173  0  0  0.242537  0  1.040087  0  0  0.247273  0  1.038148  0  0  0.259479  0.239103  0  1.04158  0
H  H8  1  0.94559947  0.10542177  0.39362301  1  0  0.273063  0  0.953191  0  0  0.261184  0  1.019474  0  0  0.266482  0  1.015958  0  0  0.271102  0.257291  0  1.022115  0
H  H9  1  0.05439564  0.89457967  0.60637796  1  0  0.273043  0  0.953175  0  0  0.261174  0  1.019432  0  0  0.266472  0  1.015915  0  0  0.271089  0.257283  0  1.02207  0
H  H10  1  0.12146255  0.71695863  0.17954857  1  0  0.219457  0  0.97238  0  0  0.214392  0  1.029591  0  0  0.217831  0  1.029191  0  0  0.264888  0.211817  0  1.030272  0
H  H11  1  0.87854110  0.28303849  0.82045447  1  0  0.219464  0  0.972394  0  0  0.214399  0  1.029591  0  0  0.217839  0  1.029191  0  0  0.26492  0.211829  0  1.030258  0
H  H12  1  0.31866790  0.80196180  0.78378869  1  0  0.228892  0  0.945373  0  0  0.226995  0  0.995212  0  0  0.229816  0  0.995652  0  0  0.281971  0.225005  0  0.994952  0
H  H13  1  0.68133527  0.19804294  0.21621087  1  0  0.228947  0  0.945371  0  0  0.227062  0  0.995172  0  0  0.229883  0  0.995609  0  0  0.281984  0.225072  0  0.994912  0
H  H14  1  0.40042941  0.35987862  0.76756939  1  0  0.282509  0  0.945326  0  0  0.271591  0  1.005728  0  0  0.277296  0  1.002323  0  0  0.276953  0.267688  0  1.007817  0
H  H15  1  0.59956941  0.64012063  0.23243068  1  0  0.282495  0  0.945295  0  0  0.271579  0  1.005694  0  0  0.277283  0  1.002293  0  0  0.27694  0.267678  0  1.007783  0
H  H16  1  0.54798188  0.39938343  0.65059337  1  0  0.267508  0  0.950506  0  0  0.257592  0  1.014335  0  0  0.262347  0  1.011829  0  0  0.270535  0.25411  0  1.016273  0
H  H17  1  0.45201905  0.60061915  0.34940875  1  0  0.267517  0  0.950504  0  0  0.257609  0  1.014329  0  0  0.262364  0  1.011823  0  0  0.270558  0.254128  0  1.016265  0
H  H18  1  0.88411004  0.34545197  0.32898558  1  0  0.051079  0  0.941093  0  0  0.068884  0  1.008214  0  0  0.068838  0  1.008842  0  0  0.095016  0.068958  0  1.00763  0
H  H19  1  0.11588612  0.65455166  0.67101466  1  0  0.05104  0  0.941201  0  0  0.068855  0  1.008328  0  0  0.068807  0  1.008955  0  0  0.094996  0.068929  0  1.007743  0
H  H20  1  0.94461867  0.29137779  0.19795526  1  0  0.029458  0  0.945341  0  0  0.048658  0  1.015254  0  0  0.049121  0  1.014428  0  0  0.083697  0.048241  0  1.015932  0
H  H21  1  0.05537768  0.70862259  0.80204740  1  0  0.029428  0  0.94535  0  0  0.048663  0  1.015238  0  0  0.049126  0  1.014411  0  0  0.083676  0.048244  0  1.015916  0
H  H22  1  0.22527298  0.36312384  0.18634763  1  0  0.067405  0  0.953123  0  0  0.082615  0  1.021416  0  0  0.083503  0  1.021565  0  0  0.08402  0.081799  0  1.021668  0
H  H23  1  0.77472354  0.63687432  0.81365393  1  0  0.067375  0  0.953097  0  0  0.08259  0  1.021387  0  0  0.083481  0  1.021535  0  0  0.084039  0.081774  0  1.021637  0
H  H24  1  0.13480511  0.44669843  0.29856866  1  0  0.071288  0  0.95184  0  0  0.087492  0  1.019314  0  0  0.087822  0  1.019891  0  0  0.083851  0.087196  0  1.018955  0
H  H25  1  0.86519369  0.55330083  0.70143223  1  0  0.0713  0  0.95186  0  0  0.087526  0  1.019295  0  0  0.087858  0  1.019873  0  0  0.083878  0.087229  0  1.018935  0
H  H26  1  0.07406076  0.52171204  0.05044711  1  0  0.053894  0  0.944127  0  0  0.072054  0  1.009371  0  0  0.071981  0  1.010223  0  0  0.096739  0.072105  0  1.008775  0
H  H27  1  0.92593916  0.47828831  0.94955331  1  0  0.05388  0  0.944144  0  0  0.072066  0  1.009375  0  0  0.071992  0  1.01023  0  0  0.096736  0.072116  0  1.008781  0
H  H28  1  0.93655448  0.58008237  0.16183606  1  0  0.055753  0  0.943332  0  0  0.072484  0  1.012525  0  0  0.07272  0  1.012497  0  0  0.096163  0.072354  0  1.012628  0
H  H29  1  0.06344418  0.41991907  0.83816429  1  0  0.055756  0  0.943335  0  0  0.072494  0  1.012535  0  0  0.072734  0  1.012504  0  0  0.096165  0.072365  0  1.012635  0
H  H30  1  0.37305141  0.56053365  0.11894846  1  0  0.056703  0  0.940909  0  0  0.077156  0  1.001646  0  0  0.076975  0  1.002452  0  0  0.097109  0.077334  0  1.000901  0
H  H31  1  0.62694764  0.43946229  0.88105078  1  0  0.05669  0  0.940896  0  0  0.07713  0  1.001649  0  0  0.076953  0  1.002459  0  0  0.097075  0.077301  0  1.000909  0
H  H32  1  0.37387539  0.75202305  0.08147995  1  0  0.058671  0  0.96335  0  0  0.073768  0  1.032201  0  0  0.074095  0  1.032454  0  0  0.097582  0.073467  0  1.032184  0
H  H33  1  0.62612718  0.24797295  0.91852193  1  0  0.058677  0  0.963328  0  0  0.073786  0  1.032155  0  0  0.074117  0  1.032409  0  0  0.09758  0.073483  0  1.032135  0
H  H34  1  0.50089700  0.64690064  0.91504257  1  0  0.055989  0  0.948071  0  0  0.073537  0  1.016894  0  0  0.073173  0  1.01797  0  0  0.096283  0.073647  0  1.016396  0
H  H35  1  0.49910197  0.35309641  0.08495722  1  0  0.056001  0  0.948115  0  0  0.07355  0  1.016924  0  0  0.073187  0  1.018  0  0  0.09628  0.07366  0  1.016424  0
H  H36  1  0.31577365  0.58615069  0.92035433  1  0  0.072085  0  0.946174  0  0  0.087585  0  1.01354  0  0  0.088328  0  1.01282  0  0  0.101457  0.086862  0  1.014223  0
H  H37  1  0.68422378  0.41385181  0.07964434  1  0  0.072118  0  0.946171  0  0  0.087605  0  1.013543  0  0  0.088348  0  1.012825  0  0  0.101443  0.08688  0  1.014226  0
H  H38  1  0.56067073  0.88480888  0.78793847  1  0  0.038062  0  0.945928  0  0  0.05148  0  1.024234  0  0  0.052075  0  1.023494  0  0  0.083935  0.050961  0  1.025001  0
H  H39  1  0.43933393  0.11519050  0.21206708  1  0  0.038059  0  0.945937  0  0  0.051463  0  1.024263  0  0  0.052057  0  1.023524  0  0  0.083948  0.050947  0  1.025025  0
H  H40  1  0.46204838  0.93150686  0.91815894  1  0  0.055368  0  0.945545  0  0  0.071631  0  1.012533  0  0  0.071451  0  1.013978  0  0  0.093407  0.071674  0  1.01172  0
H  H41  1  0.53795143  0.06849466  0.08184528  1  0  0.055284  0  0.945666  0  0  0.071566  0  1.012639  0  0  0.071385  0  1.014083  0  0  0.093361  0.07161  0  1.011825  0
H  H42  1  0.28380731  0.11251538  0.81480027  1  0  0.062779  0  0.963654  0  0  0.078905  0  1.035925  0  0  0.079524  0  1.03531  0  0  0.079887  0.078311  0  1.036599  0
H  H43  1  0.71619726  0.88748609  0.18519987  1  0  0.062752  0  0.963657  0  0  0.078905  0  1.03591  0  0  0.079523  0  1.035294  0  0  0.07987  0.078311  0  1.036587  0
H  H44  1  0.35972973  0.06233126  0.68336078  1  0  0.066332  0  0.960618  0  0  0.083431  0  1.02819  0  0  0.083523  0  1.028972  0  0  0.081986  0.083182  0  1.027946  0
H  H45  1  0.64027394  0.93766585  0.31664145  1  0  0.066413  0  0.960583  0  0  0.083482  0  1.028176  0  0  0.083574  0  1.028958  0  0  0.082  0.083234  0  1.027932  0
H  H46  1  0.57988531  0.16206954  0.79840476  1  0  0.03464  0  0.961317  0  0  0.05291  0  1.028174  0  0  0.052515  0  1.029557  0  0  0.085166  0.053156  0  1.027378  0
H  H47  1  0.42012032  0.83793407  0.20159221  1  0  0.034636  0  0.961306  0  0  0.052878  0  1.028203  0  0  0.052483  0  1.029585  0  0  0.085147  0.053125  0  1.027404  0
H  H48  1  0.61084292  0.16153677  0.65044119  1  0  0.059009  0  0.944177  0  0  0.078878  0  1.003761  0  0  0.078094  0  1.005808  0  0  0.097134  0.079387  0  1.00235  0
H  H49  1  0.38915924  0.83846574  0.34955666  1  0  0.058961  0  0.944278  0  0  0.078874  0  1.003814  0  0  0.078091  0  1.00586  0  0  0.097129  0.079384  0  1.0024  0
C  C50  1  0.98636775  0.30449044  0.27211007  1  0  0.093255  0  3.659591  0  0  0.040047  0  3.915432  0  0  0.043331  0  3.93142  0  0  -0.080921  0.037926  0  3.904378  0
C  C51  1  0.01362751  0.69550881  0.72789144  1  0  0.093269  0  3.659624  0  0  0.040007  0  3.915514  0  0  0.043296  0  3.931503  0  0  -0.080891  0.037884  0  3.904461  0
C  C52  1  0.11359177  0.41494092  0.22486733  1  0  -0.174375  0  3.691006  0  0  -0.211354  0  3.946482  0  0  -0.213419  0  3.96107  0  0  -0.17884  -0.209496  0  3.936189  0
C  C53  1  0.88640475  0.58505725  0.77513423  1  0  -0.174333  0  3.690983  0  0  -0.211297  0  3.94646  0  0  -0.213369  0  3.961062  0  0  -0.178886  -0.209438  0  3.936167  0
C  C54  1  0.06265468  0.54944278  0.13270909  1  0  0.032125  0  3.661844  0  0  -0.025088  0  3.921702  0  0  -0.021478  0  3.936228  0  0  -0.078443  -0.027232  0  3.911183  0
C  C55  1  0.93734523  0.45055758  0.86729214  1  0  0.032149  0  3.661835  0  0  -0.025134  0  3.921767  0  0  -0.021528  0  3.936298  0  0  -0.078448  -0.027278  0  3.911242  0
C  C56  1  0.32228645  0.66319057  0.06721872  1  0  0.015193  0  3.649628  0  0  -0.041599  0  3.904999  0  0  -0.037879  0  3.91764  0  0  -0.080401  -0.04389  0  3.89589  0
C  C57  1  0.67771607  0.33680646  0.93277964  1  0  0.015206  0  3.649595  0  0  -0.041552  0  3.904876  0  0  -0.037849  0  3.917545  0  0  -0.080347  -0.043831  0  3.895754  0
C  C58  1  0.37176402  0.67046723  0.93731027  1  0  0.000684  0  3.644512  0  0  -0.061885  0  3.90738  0  0  -0.058344  0  3.920773  0  0  -0.081878  -0.064136  0  3.897978  0
C  C59  1  0.62823709  0.32953311  0.06268913  1  0  0.000583  0  3.644628  0  0  -0.061979  0  3.907486  0  0  -0.058437  0  3.92089  0  0  -0.0819  -0.064228  0  3.898074  0
C  C60  1  0.44520478  0.92298280  0.83457968  1  0  0.033418  0  3.678854  0  0  -0.022672  0  3.935304  0  0  -0.019819  0  3.951386  0  0  -0.080642  -0.024577  0  3.924416  0
C  C61  1  0.55479866  0.07701760  0.16542257  1  0  0.033553  0  3.678912  0  0  -0.022544  0  3.935352  0  0  -0.019689  0  3.951431  0  0  -0.080584  -0.02445  0  3.924467  0
C  C62  1  0.39167233  0.07188546  0.76204762  1  0  -0.163285  0  3.691198  0  0  -0.199546  0  3.939255  0  0  -0.201406  0  3.954479  0  0  -0.178378  -0.198172  0  3.929054  0
C  C63  1  0.60833239  0.92811383  0.23795305  1  0  -0.163316  0  3.691099  0  0  -0.199559  0  3.939131  0  0  -0.201427  0  3.954368  0  0  -0.178375  -0.198185  0  3.928933  0
C  C64  1  0.52029846  0.17994217  0.72534271  1  0  0.087295  0  3.643603  0  0  0.03319  0  3.897433  0  0  0.036561  0  3.913545  0  0  -0.082061  0.03096  0  3.88616  0
C  C65  1  0.47970382  0.82005819  0.27465730  1  0  0.08727  0  3.643649  0  0  0.033146  0  3.897485  0  0  0.036517  0  3.913596  0  0  -0.08206  0.030917  0  3.886214  0
C  C66  1  0.59643025  0.17128937  0.42880789  1  0  0.28694  0  3.955102  0  0  0.27218  0  4.247885  0  0  0.291123  0  4.262574  0  0  0.149257  0.25927  0  4.237986  0
C  C67  1  0.40356232  0.82871528  0.57118944  1  0  0.28702  0  3.955127  0  0  0.272254  0  4.247897  0  0  0.291193  0  4.262586  0  0  0.149351  0.259343  0  4.237998  0
C  C68  1  0.91018462  0.33323069  0.58396743  1  0  0.301033  0  3.948846  0  0  0.28464  0  4.238054  0  0  0.304272  0  4.25309  0  0  0.152982  0.271176  0  4.228002  0
C  C69  1  0.08981036  0.66677196  0.41603978  1  0  0.301095  0  3.948903  0  0  0.284713  0  4.238079  0  0  0.304348  0  4.253112  0  0  0.153071  0.271248  0  4.228026  0
C  C70  1  0.74512924  0.79206662  0.99653337  1  0  0.253675  0  3.93901  0  0  0.24565  0  4.233707  0  0  0.261923  0  4.249131  0  0  0.136604  0.234432  0  4.224081  0
C  C71  1  0.25487122  0.20792506  0.00347243  1  0  0.253694  0  3.939192  0  0  0.245671  0  4.233881  0  0  0.261946  0  4.2493  0  0  0.136606  0.234454  0  4.224255  0
S  S72  1  0.46513061  0.29756105  0.37895952  1  0  -0.322608  0  2.427245  0  0  -0.277168  0  2.834275  0  0  -0.290021  0  2.815465  0  0  -0.142774  -0.268524  0  2.846645  0
S  S73  1  0.53486178  0.70244584  0.62104054  1  0  -0.322583  0  2.427046  0  0  -0.277128  0  2.834042  0  0  -0.289981  0  2.815236  0  0  -0.142794  -0.268483  0  2.846409  0
S  S74  1  0.04001489  0.21770491  0.64673674  1  0  -0.327805  0  2.390872  0  0  -0.280436  0  2.788558  0  0  -0.293533  0  2.769609  0  0  -0.138382  -0.271666  0  2.801514  0
S  S75  1  0.95998159  0.78229332  0.35326808  1  0  -0.327842  0  2.390969  0  0  -0.280475  0  2.788658  0  0  -0.293568  0  2.769702  0  0  -0.138418  -0.271703  0  2.801618  0
S  S76  1  0.81549184  0.95007974  0.91023243  1  0  -0.316129  0  2.484386  0  0  -0.265226  0  2.887464  0  0  -0.279945  0  2.872171  0  0  -0.145627  -0.255999  0  2.899089  0
S  S77  1  0.18450841  0.04991522  0.08977257  1  0  -0.316139  0  2.48442  0  0  -0.265221  0  2.887465  0  0  -0.279942  0  2.872173  0  0  -0.145609  -0.255995  0  2.899089  0
N  N78  1  0.04280044  0.16094114  0.34169888  1  0  -0.607551  0  3.168179  0  0  -0.545989  0  3.42192  0  0  -0.565354  0  3.423514  0  0  -0.644065  -0.532349  0  3.420464  0
N  N79  1  0.95719341  0.83906140  0.65830285  1  0  -0.607541  0  3.168059  0  0  -0.546031  0  3.421928  0  0  -0.565395  0  3.423517  0  0  -0.644097  -0.532393  0  3.420473  0
N  N80  1  0.14952740  0.68087833  0.10633334  1  0  -0.39211  0  3.263174  0  0  -0.314206  0  3.51283  0  0  -0.332561  0  3.526078  0  0  -0.500993  -0.301224  0  3.503355  0
N  N81  1  0.85047494  0.31912096  0.89366856  1  0  -0.392113  0  3.263167  0  0  -0.314193  0  3.512841  0  0  -0.332538  0  3.526088  0  0  -0.501009  -0.301211  0  3.503351  0
N  N82  1  0.32723797  0.81460507  0.86171063  1  0  -0.383869  0  3.27021  0  0  -0.29781  0  3.517099  0  0  -0.316638  0  3.530688  0  0  -0.499605  -0.28445  0  3.507082  0
N  N83  1  0.67276430  0.18539532  0.13829101  1  0  -0.383943  0  3.270313  0  0  -0.297911  0  3.517245  0  0  -0.316736  0  3.53083  0  0  -0.499619  -0.28455  0  3.50723  0
N  N84  1  0.45572189  0.33294216  0.69157119  1  0  -0.611241  0  3.207351  0  0  -0.543802  0  3.462329  0  0  -0.564924  0  3.464621  0  0  -0.646657  -0.528731  0  3.459888  0
N  N85  1  0.54427921  0.66705821  0.30842983  1  0  -0.611189  0  3.207318  0  0  -0.54375  0  3.462281  0  0  -0.564875  0  3.464571  0  0  -0.646651  -0.528681  0  3.45984  0
N  N86  1  0.69464595  0.08119380  0.46077743  1  0  -0.495862  0  2.914464  0  0  -0.440398  0  3.202826  0  0  -0.456411  0  3.206412  0  0  -0.389785  -0.429834  0  3.200551  0
N  N87  1  0.30535069  0.91880318  0.53921952  1  0  -0.495912  0  2.914567  0  0  -0.44044  0  3.2029  0  0  -0.456458  0  3.206504  0  0  -0.389835  -0.429877  0  3.200626  0
N  N88  1  0.81415377  0.41668334  0.54181380  1  0  -0.498008  0  3.004358  0  0  -0.435696  0  3.30991  0  0  -0.454053  0  3.313558  0  0  -0.405748  -0.423556  0  3.307638  0
N  N89  1  0.18584333  0.58332262  0.45819383  1  0  -0.498055  0  3.004489  0  0  -0.435752  0  3.310034  0  0  -0.454112  0  3.313679  0  0  -0.405798  -0.423612  0  3.307762  0
N  N90  1  0.69351812  0.67945271  0.05729584  1  0  -0.473096  0  2.661791  0  0  -0.436576  0  2.890405  0  0  -0.449098  0  2.900854  0  0  -0.346945  -0.428498  0  2.883847  0
N  N91  1  0.30648240  0.32053789  0.94271103  1  0  -0.47309  0  2.661897  0  0  -0.436609  0  2.890551  0  0  -0.449134  0  2.900998  0  0  -0.346975  -0.428531  0  2.883994  0
