# generated using pymatgen
data_AlH7C14S2N2O11
_symmetry_space_group_name_H-M   'P 1'
_cell_length_a   6.63218256
_cell_length_b   22.70797801
_cell_length_c   26.42040394
_cell_angle_alpha   100.66804629
_cell_angle_beta   89.99970111
_cell_angle_gamma   90.00126045
_symmetry_Int_Tables_number   1
_chemical_formula_structural   AlH7C14S2N2O11
_chemical_formula_sum   'Al4 H28 C56 S8 N8 O44'
_cell_volume   3910.23177725
_cell_formula_units_Z   4
loop_
 _symmetry_equiv_pos_site_id
 _symmetry_equiv_pos_as_xyz
  1  'x, y, z'
loop_
 _atom_site_type_symbol
 _atom_site_label
 _atom_site_symmetry_multiplicity
 _atom_site_fract_x
 _atom_site_fract_y
 _atom_site_fract_z
 _atom_site_occupancy
 _atom_site_pbe_bader_charge
 _atom_site_pbe_bader_spin_density
 _atom_site_pbe_cm5_charge
 _atom_site_pbe_ddec_charge
 _atom_site_pbe_ddec_spin_density
 _atom_site_pbe_ddec_sum_bond_order
 _atom_site_pbe_magmom
Al  Al0  1  0.76034459  0.75036397  0.25078847  1  2.496152  0  0.398298  1.636006  0  2.581387  0
Al  Al1  1  0.20912817  0.25057548  0.75047659  1  2.500401  0  0.400613  1.636897  0  2.580392  0
Al  Al2  1  0.26034477  0.74963718  0.24921128  1  2.496212  0  0.398333  1.635967  0  2.581304  0
Al  Al3  1  0.70912794  0.24941869  0.74952116  1  2.5004  0  0.400622  1.63696  0  2.580242  0
H  H4  1  0.68286744  0.95055326  0.46109646  1  0.06485  0  0.112533  0.114701  0  0.993056  0
H  H5  1  0.30875036  0.04992526  0.53870246  1  0.105246  0  0.112672  0.115946  0  0.992715  0
H  H6  1  0.18286840  0.54945073  0.03890025  1  0.0649  0  0.112508  0.114725  0  0.993104  0
H  H7  1  0.80875237  0.45007147  0.96130026  1  0.105104  0  0.11268  0.115955  0  0.992707  0
H  H8  1  0.66366285  0.02864662  0.54118540  1  0.074956  0  0.111292  0.112531  0  0.999171  0
H  H9  1  0.32824142  0.97163105  0.45868464  1  0.079554  0  0.111228  0.111948  0  0.999942  0
H  H10  1  0.16365637  0.47135437  0.95881470  1  0.074887  0  0.111286  0.112556  0  0.999169  0
H  H11  1  0.82823431  0.52836525  0.04131929  1  0.079615  0  0.111218  0.111906  0  0.999888  0
H  H12  1  0.53162545  0.23298622  0.98331197  1  0.653098  0  0.341736  0.401952  0  0.862898  0
H  H13  1  0.48640762  0.78747579  0.08202898  1  0.662782  0  0.335176  0.400852  0  0.882327  0
H  H14  1  0.03165248  0.26700420  0.51668161  1  0.65322  0  0.341802  0.402043  0  0.862942  0
H  H15  1  0.98642550  0.71253296  0.41797916  1  0.661736  0  0.335114  0.400846  0  0.882273  0
H  H16  1  0.62769997  0.04822378  0.02230280  1  0.669952  0  0.34931  0.407024  0  0.8375  0
H  H17  1  0.63768254  0.94305176  0.97994689  1  0.667916  0  0.348247  0.407212  0  0.840334  0
H  H18  1  0.12770069  0.45177192  0.47769852  1  0.670033  0  0.349314  0.407037  0  0.837552  0
H  H19  1  0.13768442  0.55695185  0.52005132  1  0.667369  0  0.348305  0.407325  0  0.840148  0
H  H20  1  0.22924630  0.03595175  0.88573528  1  0.096823  0  0.118393  0.120432  0  0.977535  0
H  H21  1  0.22828368  0.97402453  0.11833949  1  0.11533  0  0.117354  0.118307  0  0.985815  0
H  H22  1  0.72925899  0.46405514  0.61426366  1  0.096585  0  0.118409  0.120404  0  0.977483  0
H  H23  1  0.72827294  0.52598307  0.38165838  1  0.115616  0  0.117421  0.118402  0  0.986065  0
H  H24  1  0.20670795  0.10521020  0.82243185  1  0.131832  0  0.128807  0.136384  0  0.956603  0
H  H25  1  0.22303332  0.90550919  0.18239949  1  0.092782  0  0.125643  0.132908  0  0.956821  0
H  H26  1  0.70671566  0.39479968  0.67756942  1  0.131725  0  0.128849  0.136426  0  0.956692  0
H  H27  1  0.72301244  0.59449846  0.31759877  1  0.092909  0  0.12566  0.132993  0  0.956763  0
H  H28  1  0.50755849  0.82260359  0.28035826  1  0.625489  0  0.356922  0.43493  0  0.847953  0
H  H29  1  0.45651478  0.17681426  0.72062529  1  0.626459  0  0.357636  0.435917  0  0.846234  0
H  H30  1  0.00755070  0.67739754  0.21963852  1  0.625682  0  0.356901  0.434883  0  0.847981  0
H  H31  1  0.95651660  0.32318001  0.77936965  1  0.626639  0  0.357676  0.435961  0  0.846148  0
C  C32  1  0.50987363  0.69167627  0.31825788  1  1.652253  0  0.265522  0.629364  0  4.151891  0
C  C33  1  0.45949202  0.30766532  0.68116225  1  1.649948  0  0.268751  0.62772  0  4.13627  0
C  C34  1  0.00992028  0.80832556  0.18174006  1  1.652725  0  0.265714  0.629583  0  4.151365  0
C  C35  1  0.95948462  0.19233026  0.81883462  1  1.650122  0  0.268732  0.627616  0  4.13616  0
C  C36  1  0.51145882  0.66926289  0.17640873  1  1.67763  0  0.276897  0.724122  0  4.156941  0
C  C37  1  0.46049122  0.33055062  0.82367141  1  1.682897  0  0.279313  0.725996  0  4.154863  0
C  C38  1  0.01148790  0.83073186  0.32359111  1  1.677818  0  0.276858  0.724062  0  4.157219  0
C  C39  1  0.96051341  0.16944037  0.67633083  1  1.682438  0  0.279412  0.726306  0  4.154902  0
C  C40  1  0.80804638  0.01592167  0.52274746  1  0.019234  0  -0.071415  -0.111277  0  3.941652  0
C  C41  1  0.18370561  0.98447928  0.47701342  1  -0.051998  0  -0.071421  -0.109444  0  3.941617  0
C  C42  1  0.30803751  0.48407213  0.97725601  1  0.019273  0  -0.071287  -0.111163  0  3.941798  0
C  C43  1  0.68369485  0.51551118  0.02299017  1  -0.05209  0  -0.071471  -0.109308  0  3.941557  0
C  C44  1  0.98507192  0.04403905  0.54500664  1  0.074613  0  0.010814  0.133193  0  4.095652  0
C  C45  1  0.00655342  0.95647920  0.45471934  1  0.084208  0  0.0101  0.129481  0  4.097648  0
C  C46  1  0.48505077  0.45594861  0.95499788  1  0.074423  0  0.010954  0.133331  0  4.095083  0
C  C47  1  0.50654738  0.54351324  0.04528434  1  0.083743  0  0.010148  0.129551  0  4.097479  0
C  C48  1  0.17307186  0.02772788  0.52145672  1  0.034531  0  -0.069965  -0.108434  0  3.935901  0
C  C49  1  0.81857760  0.97274742  0.47831217  1  0.012792  0  -0.07053  -0.107899  0  3.93751  0
C  C50  1  0.67305565  0.47225907  0.97854755  1  0.034829  0  -0.069994  -0.108613  0  3.936031  0
C  C51  1  0.31856965  0.52724692  0.02168906  1  0.012686  0  -0.070647  -0.108113  0  3.937852  0
C  C52  1  0.97438889  0.08767479  0.59061407  1  -0.54709  0  -0.01329  -0.019245  0  4.065148  0
C  C53  1  0.01438973  0.91292593  0.40903067  1  -0.616455  0  -0.011525  -0.01324  0  4.062773  0
C  C54  1  0.47436528  0.41231507  0.90938238  1  -0.54754  0  -0.013489  -0.019493  0  4.066027  0
C  C55  1  0.51438464  0.58706524  0.09097300  1  -0.616755  0  -0.011506  -0.013355  0  4.062731  0
C  C56  1  0.01474603  0.87567513  0.36942720  1  0.343597  0  -0.037153  -0.194545  0  3.956498  0
C  C57  1  0.96572612  0.12491995  0.63014671  1  0.274707  0  -0.032924  -0.188459  0  3.951272  0
C  C58  1  0.51473701  0.62431508  0.13057608  1  0.344207  0  -0.037242  -0.194503  0  3.9564  0
C  C59  1  0.46570494  0.37507261  0.86986284  1  0.275134  0  -0.032815  -0.188099  0  3.952188  0
C  C60  1  0.83346391  0.16504764  0.90468193  1  -0.136305  0  0.009762  -0.088396  0  3.82321  0
C  C61  1  0.88870363  0.83245174  0.09508512  1  -0.15171  0  0.00087  -0.111039  0  3.886049  0
C  C62  1  0.33348106  0.33495509  0.59531926  1  -0.135999  0  0.009835  -0.088223  0  3.823153  0
C  C63  1  0.38870062  0.66755258  0.40491536  1  -0.15174  0  0.000848  -0.111043  0  3.886046  0
C  C64  1  0.83975106  0.12413485  0.93895504  1  -0.11606  0  -0.000863  -0.117408  0  3.858829  0
C  C65  1  0.87669139  0.87401014  0.06157164  1  -0.068431  0  0.005917  -0.102806  0  3.839943  0
C  C66  1  0.33976444  0.37586391  0.56104382  1  -0.116116  0  -0.000954  -0.117489  0  3.858863  0
C  C67  1  0.37669211  0.62599306  0.43842807  1  -0.068454  0  0.005938  -0.102661  0  3.840215  0
C  C68  1  0.98709604  0.07846707  0.93259156  1  0.04267  0  0.008359  0.02557  0  3.972903  0
C  C69  1  0.00541897  0.92427771  0.06922593  1  0.057638  0  0.005859  0.020432  0  3.971737  0
C  C70  1  0.48710827  0.42153201  0.56740646  1  0.042779  0  0.008431  0.025612  0  3.972846  0
C  C71  1  0.50540807  0.57572605  0.43077087  1  0.057333  0  0.005939  0.02045  0  3.972199  0
C  C72  1  0.11693316  0.07147426  0.89016265  1  0.04482  0  -0.060878  -0.071827  0  3.931557  0
C  C73  1  0.12986819  0.93499637  0.11296588  1  -0.027964  0  -0.062849  -0.072244  0  3.930479  0
C  C74  1  0.61694624  0.42852700  0.60983594  1  0.044885  0  -0.060939  -0.071797  0  3.931463  0
C  C75  1  0.62985429  0.56500773  0.38703086  1  -0.027708  0  -0.062912  -0.072351  0  3.931041  0
C  C76  1  0.10434935  0.10968896  0.85514750  1  0.015257  0  -0.053175  -0.046152  0  3.901602  0
C  C77  1  0.12805855  0.89684372  0.14816984  1  0.065913  0  -0.060654  -0.064378  0  3.917349  0
C  C78  1  0.60436035  0.39031430  0.64485264  1  0.015326  0  -0.053173  -0.046164  0  3.901695  0
C  C79  1  0.62803918  0.60316017  0.35182805  1  0.065451  0  -0.060674  -0.06446  0  3.917486  0
C  C80  1  0.96394140  0.15635363  0.86174696  1  0.029761  0  0.018529  0.00188  0  3.864788  0
C  C81  1  0.00876862  0.84511289  0.13953454  1  -0.002078  0  0.014673  0.000905  0  3.893919  0
C  C82  1  0.46394784  0.34364835  0.63825302  1  0.030306  0  0.018484  0.00165  0  3.865005  0
C  C83  1  0.50875606  0.65488917  0.36046455  1  -0.00197  0  0.01465  0.000894  0  3.89411  0
C  C84  1  0.03093585  0.96498615  0.03241376  1  0.967004  0  0.237533  0.234655  0  4.051805  0
C  C85  1  0.02322743  0.03793439  0.96919573  1  0.996162  0  0.2395  0.233388  0  4.050248  0
C  C86  1  0.53093019  0.53501914  0.46758534  1  0.966971  0  0.23744  0.234356  0  4.051965  0
C  C87  1  0.52324156  0.46206744  0.53080213  1  0.996276  0  0.239504  0.233415  0  4.050264  0
S  S88  1  0.69077742  0.23513693  0.91427763  1  3.107904  0  0.546918  1.138044  0  5.992527  0
S  S89  1  0.78639224  0.75756479  0.07669343  1  3.104436  0  0.544317  1.131834  0  6.045641  0
S  S90  1  0.19079845  0.26486490  0.58571938  1  3.107715  0  0.546916  1.137854  0  5.992564  0
S  S91  1  0.28641269  0.74244070  0.42330940  1  3.104454  0  0.544463  1.13184  0  6.046033  0
S  S92  1  0.64880294  0.12549153  0.98786928  1  3.007142  0  0.546485  1.145012  0  5.933602  0
S  S93  1  0.66844489  0.86752325  0.01598963  1  3.03157  0  0.556635  1.165511  0  5.880507  0
S  S94  1  0.14880962  0.37450536  0.51213274  1  3.007107  0  0.546501  1.144906  0  5.933531  0
S  S95  1  0.16844826  0.63247833  0.48400862  1  3.031959  0  0.556509  1.165216  0  5.880841  0
N  N96  1  0.04889010  0.97922365  0.94949563  1  -0.553239  0  -0.153516  -0.141142  0  3.194931  0
N  N97  1  0.06587917  0.02344322  0.05145207  1  -0.551115  0  -0.153584  -0.144251  0  3.204676  0
N  N98  1  0.54889278  0.52077905  0.55050300  1  -0.553148  0  -0.153435  -0.141058  0  3.194959  0
N  N99  1  0.56589401  0.47656238  0.44854586  1  -0.551147  0  -0.153608  -0.144096  0  3.20441  0
N  N100  1  0.05642584  0.94143456  0.98189354  1  -0.556535  0  -0.152712  -0.13925  0  3.193175  0
N  N101  1  0.06589600  0.06121674  0.01900291  1  -0.511822  0  -0.15426  -0.134636  0  3.194999  0
N  N102  1  0.55641544  0.55856943  0.51810470  1  -0.556811  0  -0.152725  -0.139209  0  3.193382  0
N  N103  1  0.56591488  0.43878834  0.48099463  1  -0.511624  0  -0.154268  -0.13471  0  3.195029  0
O  O104  1  0.33883143  0.68775034  0.19365825  1  -1.240708  0  -0.226693  -0.583661  0  2.294567  0
O  O105  1  0.62992966  0.31261841  0.80394180  1  -1.246091  0  -0.226457  -0.590868  0  2.321905  0
O  O106  1  0.83883341  0.81224909  0.30633722  1  -1.240877  0  -0.226712  -0.583673  0  2.294297  0
O  O107  1  0.12995475  0.18737459  0.69605906  1  -1.245905  0  -0.226516  -0.591006  0  2.322219  0
O  O108  1  0.68279470  0.70394219  0.30273054  1  -1.236831  0  -0.226553  -0.568595  0  2.344003  0
O  O109  1  0.28770791  0.29786187  0.69894218  1  -1.23945  0  -0.228928  -0.580668  0  2.367951  0
O  O110  1  0.18280996  0.79606096  0.19726848  1  -1.237499  0  -0.226593  -0.568626  0  2.344327  0
O  O111  1  0.78770460  0.20213083  0.80105244  1  -1.23912  0  -0.228939  -0.580732  0  2.368112  0
O  O112  1  0.68039615  0.68689275  0.19666495  1  -1.246737  0  -0.227182  -0.589927  0  2.318425  0
O  O113  1  0.28806332  0.31311523  0.80563404  1  -1.246743  0  -0.225411  -0.58245  0  2.287369  0
O  O114  1  0.18040014  0.81310523  0.30333675  1  -1.24698  0  -0.22716  -0.589842  0  2.31895  0
O  O115  1  0.78807897  0.18687969  0.69436483  1  -1.246526  0  -0.225423  -0.58246  0  2.287102  0
O  O116  1  0.83940234  0.79862440  0.20017052  1  -1.238809  0  -0.228503  -0.57592  0  2.356345  0
O  O117  1  0.13061933  0.20436239  0.80220443  1  -1.235013  0  -0.220965  -0.560151  0  2.354046  0
O  O118  1  0.33938430  0.70137340  0.29982764  1  -1.239084  0  -0.228378  -0.575781  0  2.356997  0
O  O119  1  0.63061155  0.29562752  0.69779218  1  -1.23508  0  -0.22098  -0.560221  0  2.354281  0
O  O120  1  0.51000755  0.78676712  0.25374880  1  -1.424441  0  -0.446009  -0.980632  0  2.178695  0
O  O121  1  0.45854241  0.21325221  0.74655038  1  -1.424312  0  -0.445435  -0.980533  0  2.178016  0
O  O122  1  0.01000500  0.71323223  0.24624990  1  -1.424615  0  -0.445987  -0.980597  0  2.178647  0
O  O123  1  0.95853893  0.28674000  0.75344725  1  -1.424548  0  -0.445464  -0.980625  0  2.178193  0
O  O124  1  0.83354515  0.27861971  0.90365025  1  -1.268888  0  -0.283192  -0.479388  0  2.138528  0
O  O125  1  0.49736436  0.22614319  0.88985659  1  -1.267123  0  -0.284543  -0.489845  0  2.172764  0
O  O126  1  0.65954189  0.25152367  0.97543703  1  -1.198016  0  -0.356593  -0.523299  0  2.17545  0
O  O127  1  0.77353382  0.74612473  0.02143155  1  -1.250791  0  -0.301472  -0.51339  0  2.165802  0
O  O128  1  0.90154718  0.71894675  0.10266923  1  -1.27116  0  -0.281365  -0.479112  0  2.1758  0
O  O129  1  0.56670281  0.76190250  0.10115473  1  -1.208082  0  -0.336087  -0.496886  0  2.209278  0
O  O130  1  0.33356266  0.22138109  0.59634593  1  -1.268934  0  -0.283136  -0.479339  0  2.138439  0
O  O131  1  0.99737166  0.27385012  0.61013256  1  -1.266967  0  -0.284507  -0.489594  0  2.172947  0
O  O132  1  0.15958847  0.24848153  0.52455809  1  -1.198253  0  -0.356752  -0.523493  0  2.175645  0
O  O133  1  0.27356917  0.75388597  0.47857131  1  -1.25074  0  -0.301581  -0.513431  0  2.166045  0
O  O134  1  0.40157560  0.78105536  0.39733085  1  -1.27154  0  -0.281393  -0.479068  0  2.175806  0
O  O135  1  0.06672339  0.73810455  0.39885167  1  -1.206763  0  -0.336031  -0.496874  0  2.20928  0
O  O136  1  0.71814156  0.15142104  0.03855527  1  -1.257018  0  -0.296531  -0.501752  0  2.117751  0
O  O137  1  0.46291786  0.14504839  0.96802148  1  -1.28372  0  -0.291385  -0.51925  0  2.201443  0
O  O138  1  0.62118488  0.05370285  0.98630941  1  -1.209859  0  -0.364604  -0.545519  0  2.168325  0
O  O139  1  0.71713679  0.84091133  0.96410477  1  -1.249606  0  -0.279725  -0.474874  0  2.120726  0
O  O140  1  0.49678852  0.84897139  0.04285871  1  -1.292247  0  -0.294252  -0.528342  0  2.192411  0
O  O141  1  0.62562309  0.93853970  0.01608709  1  -1.213855  0  -0.370132  -0.560098  0  2.162975  0
O  O142  1  0.21812113  0.34857722  0.46144294  1  -1.256868  0  -0.296526  -0.501684  0  2.117719  0
O  O143  1  0.96292530  0.35495444  0.53198465  1  -1.283737  0  -0.291424  -0.519216  0  2.201373  0
O  O144  1  0.12121358  0.44629748  0.51369302  1  -1.20992  0  -0.364604  -0.545548  0  2.168381  0
O  O145  1  0.21715673  0.65909462  0.53589380  1  -1.249654  0  -0.27964  -0.474722  0  2.120653  0
O  O146  1  0.99680097  0.65103196  0.45714017  1  -1.292743  0  -0.294273  -0.528321  0  2.192446  0
O  O147  1  0.12560596  0.56146538  0.48391235  1  -1.213148  0  -0.370099  -0.56009  0  2.162979  0
