# generated using pymatgen
data_CdH10C10S(NO3)2
_symmetry_space_group_name_H-M   'P 1'
_cell_length_a   8.43437382
_cell_length_b   12.88186664
_cell_length_c   12.88185402
_cell_angle_alpha   92.82902020
_cell_angle_beta   97.50327577
_cell_angle_gamma   97.50256583
_symmetry_Int_Tables_number   1
_chemical_formula_structural   CdH10C10S(NO3)2
_chemical_formula_sum   'Cd4 H40 C40 S4 N8 O24'
_cell_volume   1372.61258846
_cell_formula_units_Z   4
loop_
 _symmetry_equiv_pos_site_id
 _symmetry_equiv_pos_as_xyz
  1  'x, y, z'
loop_
 _atom_site_type_symbol
 _atom_site_label
 _atom_site_symmetry_multiplicity
 _atom_site_fract_x
 _atom_site_fract_y
 _atom_site_fract_z
 _atom_site_occupancy
 _atom_site_pbe_bader_charge
 _atom_site_pbe_bader_spin_density
 _atom_site_pbe_cm5_charge
 _atom_site_pbe_ddec_charge
 _atom_site_pbe_ddec_spin_density
 _atom_site_pbe_ddec_sum_bond_order
 _atom_site_pbe_magmom
Cd  Cd0  1  0.15160804  0.10824005  0.55618586  1  1.307556  0  0.777918  0.984422  0  2.125754  0
Cd  Cd1  1  0.34838770  0.44380891  0.89175619  1  1.3075  0  0.777888  0.984383  0  2.125816  0
Cd  Cd2  1  0.84839130  0.89175512  0.44381510  1  1.307601  0  0.777927  0.984477  0  2.125742  0
Cd  Cd3  1  0.65160466  0.55618699  0.10823951  1  1.307639  0  0.777931  0.984475  0  2.125638  0
H  H4  1  0.20539616  0.72879672  0.56286556  1  0.095286  0  0.110552  0.134328  0  1.007096  0
H  H5  1  0.29460735  0.43714268  0.27120164  1  0.095174  0  0.110496  0.134299  0  1.007086  0
H  H6  1  0.79459354  0.27119322  0.43714680  1  0.09525  0  0.110507  0.134298  0  1.007161  0
H  H7  1  0.70540943  0.56285550  0.72879708  1  0.095069  0  0.110498  0.134258  0  1.007133  0
H  H8  1  0.09061203  0.18089601  0.88786667  1  0.094303  0  0.09913  0.107162  0  1.026707  0
H  H9  1  0.40940330  0.11213947  0.81910611  1  0.094268  0  0.09914  0.107109  0  1.026768  0
H  H10  1  0.90938938  0.81910861  0.11213631  1  0.094443  0  0.099108  0.107126  0  1.02669  0
H  H11  1  0.59059642  0.88785713  0.18088716  1  0.094411  0  0.099142  0.107106  0  1.026743  0
H  H12  1  0.03199991  0.11246201  0.99892122  1  0.109908  0  0.095645  0.102402  0  1.04862  0
H  H13  1  0.46801180  0.00108438  0.88754066  1  0.110012  0  0.095633  0.102309  0  1.04868  0
H  H14  1  0.96800255  0.88754730  0.00108122  1  0.10993  0  0.095669  0.102406  0  1.048682  0
H  H15  1  0.53199682  0.99891448  0.11245037  1  0.11002  0  0.095635  0.102299  0  1.048832  0
H  H16  1  0.88766370  0.11889237  0.88421369  1  0.085191  0  0.096032  0.100505  0  1.010126  0
H  H17  1  0.61235195  0.11578877  0.88111179  1  0.084639  0  0.095975  0.100429  0  1.009998  0
H  H18  1  0.11233722  0.88111539  0.11578934  1  0.085152  0  0.095995  0.100437  0  1.010195  0
H  H19  1  0.38765054  0.88420926  0.11887479  1  0.084548  0  0.09601  0.100489  0  1.010096  0
H  H20  1  0.51808210  0.26752828  0.63209413  1  0.117805  0  0.11834  0.121807  0  1.013862  0
H  H21  1  0.98191136  0.36790568  0.73247207  1  0.117596  0  0.118339  0.121806  0  1.013837  0
H  H22  1  0.48191574  0.73247074  0.36790215  1  0.117384  0  0.11832  0.121775  0  1.013908  0
H  H23  1  0.01806633  0.63209980  0.26752805  1  0.117564  0  0.11837  0.121945  0  1.013845  0
H  H24  1  0.81145490  0.18374553  0.66789340  1  0.144947  0  0.120531  0.118433  0  1.040538  0
H  H25  1  0.68853843  0.33211184  0.81625470  1  0.144898  0  0.120539  0.118453  0  1.040477  0
H  H26  1  0.18854071  0.81625431  0.33210426  1  0.144912  0  0.120526  0.118422  0  1.040591  0
H  H27  1  0.31144654  0.66788908  0.18375602  1  0.14496  0  0.120516  0.118397  0  1.040475  0
H  H28  1  0.42314037  0.93675192  0.61070412  1  0.174374  0  0.131494  0.100237  0  1.016742  0
H  H29  1  0.07686056  0.38928927  0.06325072  1  0.174236  0  0.131499  0.100225  0  1.01673  0
H  H30  1  0.57686005  0.06324777  0.38928698  1  0.174269  0  0.131512  0.100331  0  1.016652  0
H  H31  1  0.92314685  0.61071524  0.93674814  1  0.174293  0  0.131564  0.100425  0  1.016679  0
H  H32  1  0.72321634  0.98292038  0.64624743  1  0.546392  0  0.313888  0.288448  0  0.974582  0
H  H33  1  0.77678100  0.35375341  0.01708364  1  0.546334  0  0.313854  0.288409  0  0.974646  0
H  H34  1  0.27678254  0.01708333  0.35374831  1  0.546378  0  0.313844  0.288375  0  0.974717  0
H  H35  1  0.22322292  0.64624663  0.98292719  1  0.546496  0  0.313843  0.288351  0  0.974822  0
H  H36  1  0.98392954  0.27633121  0.54925688  1  0.601603  0  0.303431  0.372285  0  0.934987  0
H  H37  1  0.51607737  0.45074364  0.72367351  1  0.601574  0  0.303394  0.372229  0  0.935032  0
H  H38  1  0.01608524  0.72367394  0.45073644  1  0.601778  0  0.303441  0.372315  0  0.935037  0
H  H39  1  0.48392681  0.54926244  0.27632433  1  0.601602  0  0.30345  0.372316  0  0.93497  0
H  H40  1  0.16351943  0.30813777  0.53032361  1  0.660611  0  0.282871  0.379458  0  0.968263  0
H  H41  1  0.33648759  0.46967669  0.69186120  1  0.660619  0  0.282884  0.37951  0  0.968187  0
H  H42  1  0.83650178  0.69185881  0.46967468  1  0.660642  0  0.28289  0.379502  0  0.968211  0
H  H43  1  0.66351091  0.53032559  0.30814146  1  0.660604  0  0.282905  0.379526  0  0.968179  0
C  C44  1  0.07028220  0.00733774  0.77085695  1  1.403519  0  0.213622  0.523009  0  4.163392  0
C  C45  1  0.42972701  0.22914875  0.99266685  1  1.403823  0  0.213685  0.523055  0  4.163585  0
C  C46  1  0.92971168  0.99266541  0.22914920  1  1.403655  0  0.213699  0.523036  0  4.163349  0
C  C47  1  0.57027730  0.77084709  0.00732913  1  1.403473  0  0.213543  0.522721  0  4.16407  0
C  C48  1  0.12107086  0.91068793  0.73810112  1  -0.147028  0  -0.062539  -0.309947  0  4.04012  0
C  C49  1  0.37893928  0.26190498  0.08931467  1  -0.146879  0  -0.062575  -0.310098  0  4.040277  0
C  C50  1  0.87891906  0.08931374  0.26190930  1  -0.146942  0  -0.062594  -0.310071  0  4.040157  0
C  C51  1  0.62106775  0.73808691  0.91068066  1  -0.146881  0  -0.062534  -0.309968  0  4.040227  0
C  C52  1  0.13372371  0.87511123  0.63350633  1  0.705424  0  0.074429  0.336255  0  4.174681  0
C  C53  1  0.36628303  0.36650156  0.12488979  1  0.705175  0  0.074461  0.336476  0  4.174376  0
C  C54  1  0.86627714  0.12489120  0.36650586  1  0.705605  0  0.074442  0.336438  0  4.174423  0
C  C55  1  0.63372231  0.63349348  0.87510549  1  0.705568  0  0.074415  0.336424  0  4.174428  0
C  C56  1  0.18048895  0.77220660  0.63219921  1  -0.00678  0  -0.114375  -0.252684  0  3.970316  0
C  C57  1  0.31951941  0.36781091  0.22779499  1  -0.006636  0  -0.114304  -0.252689  0  3.970034  0
C  C58  1  0.81951122  0.22779820  0.36781376  1  -0.007233  0  -0.114269  -0.25263  0  3.970277  0
C  C59  1  0.68049124  0.63218641  0.77219772  1  -0.007291  0  -0.114274  -0.252603  0  3.970168  0
C  C60  1  0.19700002  0.73201521  0.72943197  1  -0.195759  0  -0.016932  -0.076122  0  3.999256  0
C  C61  1  0.30300698  0.27057599  0.26798452  1  -0.195001  0  -0.016948  -0.076081  0  3.999263  0
C  C62  1  0.80299381  0.26798252  0.27057867  1  -0.19508  0  -0.016938  -0.076214  0  3.999609  0
C  C63  1  0.69700384  0.72942215  0.73201057  1  -0.195471  0  -0.016897  -0.076153  0  3.999594  0
C  C64  1  0.23866845  0.62599507  0.75199248  1  1.603744  0  0.202977  0.587909  0  4.238057  0
C  C65  1  0.26133448  0.24801533  0.37400568  1  1.603093  0  0.202953  0.58781  0  4.238171  0
C  C66  1  0.76132165  0.37400739  0.24801797  1  1.603248  0  0.203091  0.588145  0  4.23802  0
C  C67  1  0.73867906  0.75197888  0.62598953  1  1.603812  0  0.203033  0.588015  0  4.238357  0
C  C68  1  0.01457290  0.11421459  0.91357498  1  0.284171  0  -0.14863  -0.169121  0  3.848746  0
C  C69  1  0.48543817  0.08643093  0.88578868  1  0.284302  0  -0.148556  -0.168904  0  3.848707  0
C  C70  1  0.98542341  0.88579399  0.08642845  1  0.284246  0  -0.148601  -0.169074  0  3.848722  0
C  C71  1  0.51456790  0.91356711  0.11419899  1  0.284533  0  -0.148579  -0.168965  0  3.848805  0
C  C72  1  0.54272482  0.18692795  0.63234315  1  0.388496  0  -0.007013  -0.041132  0  3.987037  0
C  C73  1  0.95726866  0.36765498  0.81307139  1  0.3887  0  -0.007028  -0.041148  0  3.987139  0
C  C74  1  0.45727661  0.81307103  0.36765189  1  0.388913  0  -0.007029  -0.041106  0  3.987088  0
C  C75  1  0.04271294  0.63234656  0.18692895  1  0.388336  0  -0.00713  -0.041522  0  3.987146  0
C  C76  1  0.68718107  0.14730832  0.64949998  1  0.351237  0  -0.001905  -0.05524  0  3.945728  0
C  C77  1  0.81281391  0.35050450  0.85269319  1  0.351421  0  -0.001976  -0.055276  0  3.945897  0
C  C78  1  0.31281576  0.85269143  0.35049313  1  0.351436  0  -0.001966  -0.055299  0  3.945782  0
C  C79  1  0.18717691  0.64950100  0.14731198  1  0.351624  0  -0.001893  -0.055113  0  3.945493  0
C  C80  1  0.48571254  0.01630263  0.62163047  1  0.968105  0  0.139652  0.14721  0  3.953802  0
C  C81  1  0.01428481  0.37836579  0.98369656  1  0.9685  0  0.139624  0.147265  0  3.953822  0
C  C82  1  0.51428973  0.98369478  0.37836460  1  0.968266  0  0.139586  0.147069  0  3.953879  0
C  C83  1  0.98571304  0.62163878  0.01630300  1  0.968544  0  0.139511  0.146876  0  3.954107  0
S  S84  1  0.16298062  0.81807892  0.82746437  1  0.244786  0  0.079196  0.139028  0  2.969167  0
S  S85  1  0.33702384  0.17254485  0.18192423  1  0.244829  0  0.079254  0.139112  0  2.969393  0
S  S86  1  0.83699325  0.18192047  0.17254532  1  0.244933  0  0.07918  0.139063  0  2.969517  0
S  S87  1  0.66298866  0.82745021  0.81807401  1  0.245036  0  0.079172  0.139047  0  2.969511  0
N  N88  1  0.41775847  0.10413320  0.61545947  1  -1.230504  0  -0.367717  -0.330692  0  3.530739  0
N  N89  1  0.08223627  0.38453605  0.89586853  1  -1.230594  0  -0.367686  -0.330676  0  3.530806  0
N  N90  1  0.58224177  0.89586577  0.38453469  1  -1.230812  0  -0.367678  -0.33063  0  3.530911  0
N  N91  1  0.91775220  0.61546930  0.10412789  1  -1.230844  0  -0.367571  -0.330407  0  3.53079  0
N  N92  1  0.64780034  0.03976797  0.64275228  1  -1.333169  0  -0.383775  -0.20947  0  3.708189  0
N  N93  1  0.85219483  0.35724793  0.96023487  1  -1.33324  0  -0.383656  -0.209454  0  3.708387  0
N  N94  1  0.35219940  0.96023414  0.35724194  1  -1.333028  0  -0.383642  -0.209393  0  3.708288  0
N  N95  1  0.14780453  0.64275831  0.03977031  1  -1.333186  0  -0.383721  -0.20935  0  3.708307  0
O  O96  1  0.05963978  0.01643929  0.87484226  1  -1.068775  0  -0.178489  -0.194205  0  2.551132  0
O  O97  1  0.44037822  0.12516467  0.98356330  1  -1.069036  0  -0.178568  -0.194252  0  2.551301  0
O  O98  1  0.94035583  0.98356615  0.12516101  1  -1.069038  0  -0.178503  -0.194114  0  2.551024  0
O  O99  1  0.55963500  0.87483341  0.01642889  1  -1.069047  0  -0.178525  -0.194069  0  2.551403  0
O  O100  1  0.03685083  0.07893875  0.71293715  1  -1.157108  0  -0.29661  -0.49473  0  2.269288  0
O  O101  1  0.46315472  0.28706572  0.92106558  1  -1.157136  0  -0.296581  -0.494721  0  2.269454  0
O  O102  1  0.96314613  0.92106197  0.28706609  1  -1.157116  0  -0.296587  -0.494708  0  2.269289  0
O  O103  1  0.53683271  0.71292936  0.07892655  1  -1.1569  0  -0.29651  -0.4946  0  2.269565  0
O  O104  1  0.10611102  0.92635082  0.54869279  1  -1.16957  0  -0.361429  -0.575614  0  2.373284  0
O  O105  1  0.39388641  0.45131241  0.07364482  1  -1.169797  0  -0.361519  -0.5758  0  2.37321  0
O  O106  1  0.89389187  0.07364448  0.45131625  1  -1.169895  0  -0.361516  -0.575783  0  2.373225  0
O  O107  1  0.60611774  0.54868262  0.92634957  1  -1.169783  0  -0.361502  -0.575815  0  2.373319  0
O  O108  1  0.26353123  0.60531519  0.84908620  1  -1.184715  0  -0.332327  -0.589086  0  2.296696  0
O  O109  1  0.23646419  0.15091875  0.39467795  1  -1.184644  0  -0.332339  -0.5892  0  2.29683  0
O  O110  1  0.73646141  0.39468255  0.15092433  1  -1.184561  0  -0.33241  -0.589334  0  2.296796  0
O  O111  1  0.76353859  0.84907549  0.60531553  1  -1.184545  0  -0.332413  -0.589306  0  2.296824  0
O  O112  1  0.24585612  0.56500734  0.67350922  1  -1.163516  0  -0.313238  -0.52217  0  2.135614  0
O  O113  1  0.25414518  0.32649731  0.43499302  1  -1.163263  0  -0.313181  -0.522003  0  2.135697  0
O  O114  1  0.75412013  0.43499210  0.32650379  1  -1.163406  0  -0.313284  -0.522186  0  2.135725  0
O  O115  1  0.74588099  0.67350002  0.56500496  1  -1.163539  0  -0.313224  -0.522091  0  2.135861  0
O  O116  1  0.09367083  0.27856730  0.58498126  1  -1.230668  0  -0.574718  -0.722623  0  2.037933  0
O  O117  1  0.40633544  0.41501814  0.72143062  1  -1.230465  0  -0.574699  -0.722607  0  2.037991  0
O  O118  1  0.90634082  0.72142934  0.41501774  1  -1.230735  0  -0.574726  -0.722703  0  2.038094  0
O  O119  1  0.59366889  0.58498321  0.27856631  1  -1.230704  0  -0.574767  -0.722709  0  2.037947  0
