# generated using pymatgen
data_Zn3H16C50(I2O3)4
_symmetry_space_group_name_H-M   'P 1'
_cell_length_a   21.94588333
_cell_length_b   21.94402096
_cell_length_c   21.94441059
_cell_angle_alpha   91.92618988
_cell_angle_beta   118.89525852
_cell_angle_gamma   118.89590249
_symmetry_Int_Tables_number   1
_chemical_formula_structural   Zn3H16C50(I2O3)4
_chemical_formula_sum   'Zn6 H32 C100 I16 O24'
_cell_volume   7592.66039565
_cell_formula_units_Z   2
loop_
 _symmetry_equiv_pos_site_id
 _symmetry_equiv_pos_as_xyz
  1  'x, y, z'
loop_
 _atom_site_type_symbol
 _atom_site_label
 _atom_site_symmetry_multiplicity
 _atom_site_fract_x
 _atom_site_fract_y
 _atom_site_fract_z
 _atom_site_occupancy
 _atom_site_pbe_bader_charge
 _atom_site_pbe_bader_spin_density
 _atom_site_pbe_cm5_charge
 _atom_site_pbe_ddec_charge
 _atom_site_pbe_ddec_spin_density
 _atom_site_pbe_ddec_sum_bond_order
 _atom_site_pbe_magmom
Zn  Zn0  1  0.44278926  0.50000623  0.94279276  1  1.290475  0  0.7332  1.002464  0  1.979464  0
Zn  Zn1  1  0.99999960  0.04156608  0.04156437  1  1.295237  0  0.732763  0.956601  0  2.088666  0
Zn  Zn2  1  0.99999306  0.95843638  0.95842621  1  1.291059  0  0.73277  0.956599  0  2.088614  0
Zn  Zn3  1  0.55719876  0.05720518  0.49998772  1  1.284316  0  0.733066  1.002342  0  1.979918  0
Zn  Zn4  1  0.55722036  0.50000443  0.05720831  1  1.285911  0  0.733105  1.00237  0  1.97952  0
Zn  Zn5  1  0.44278600  0.94278439  0.49999887  1  1.292371  0  0.733024  1.002137  0  1.979992  0
H  H6  1  0.28470674  0.67971494  0.18457864  1  0.084419  0  0.087528  0.092991  0  1.061429  0
H  H7  1  0.49468517  0.39478954  0.67950068  1  0.085995  0  0.087638  0.093342  0  1.061579  0
H  H8  1  0.71531997  0.89985599  0.39503332  1  0.091512  0  0.087556  0.093051  0  1.061403  0
H  H9  1  0.50528271  0.18480214  0.90009614  1  0.083193  0  0.087596  0.093304  0  1.061493  0
H  H10  1  0.50484656  0.32028762  0.60498011  1  0.086027  0  0.087489  0.092987  0  1.061424  0
H  H11  1  0.28470025  0.60518159  0.09991097  1  0.090642  0  0.087583  0.09332  0  1.06137  0
H  H12  1  0.49520049  0.10015261  0.81546736  1  0.083619  0  0.087584  0.093114  0  1.061389  0
H  H13  1  0.71527361  0.81516988  0.32048011  1  0.082498  0  0.087656  0.09328  0  1.061612  0
H  H14  1  0.87912373  0.94448134  0.21669875  1  0.075701  0  0.106  0.106028  0  0.981752  0
H  H15  1  0.72830040  0.06627159  0.94451358  1  0.05654  0  0.106138  0.10589  0  0.981427  0
H  H16  1  0.12111075  0.33773587  0.06554801  1  0.070173  0  0.106016  0.106032  0  0.981757  0
H  H17  1  0.27179518  0.21627850  0.33796268  1  0.056623  0  0.106195  0.105948  0  0.981719  0
H  H18  1  0.27213013  0.05550750  0.93451053  1  0.055137  0  0.106064  0.106083  0  0.981735  0
H  H19  1  0.87819464  0.93368554  0.66200780  1  0.060647  0  0.106175  0.106007  0  0.981201  0
H  H20  1  0.72772972  0.66235079  0.78327780  1  0.05558  0  0.105989  0.106075  0  0.981792  0
H  H21  1  0.12163840  0.78369376  0.05549481  1  0.066603  0  0.106178  0.105906  0  0.981494  0
H  H22  1  0.69655905  0.55843217  0.83368223  1  0.078641  0  0.098691  0.108498  0  1.00376  0
H  H23  1  0.72382101  0.86100414  0.55829838  1  0.079141  0  0.098543  0.108401  0  1.00353  0
H  H24  1  0.30330926  0.13710693  0.86179238  1  0.070228  0  0.098732  0.108538  0  1.003685  0
H  H25  1  0.27601124  0.83434513  0.13716999  1  0.062187  0  0.098489  0.108418  0  1.003886  0
H  H26  1  0.27543260  0.44160294  0.13826846  1  0.052955  0  0.098749  0.10851  0  1.004015  0
H  H27  1  0.69727769  0.13896453  0.86282857  1  0.082808  0  0.098564  0.108436  0  1.003622  0
H  H28  1  0.72480974  0.86292094  0.16630466  1  0.067219  0  0.098665  0.108544  0  1.003642  0
H  H29  1  0.30283389  0.16563703  0.44169536  1  0.081262  0  0.098505  0.108478  0  1.003867  0
H  H30  1  0.92277223  0.92924762  0.13515126  1  0.089697  0  0.104751  0.117602  0  1.007584  0
H  H31  1  0.79428089  0.00700967  0.92931324  1  0.09816  0  0.10485  0.117838  0  1.006737  0
H  H32  1  0.07735912  0.21249763  0.00661812  1  0.100554  0  0.104866  0.117956  0  1.006785  0
H  H33  1  0.20574784  0.13504710  0.21271690  1  0.093587  0  0.104909  0.118014  0  1.006847  0
H  H34  1  0.20584202  0.07072742  0.99342973  1  0.093277  0  0.104666  0.117508  0  1.007283  0
H  H35  1  0.92227629  0.99297381  0.78725453  1  0.107149  0  0.104809  0.117633  0  1.006686  0
H  H36  1  0.79405910  0.78757034  0.86481640  1  0.089496  0  0.104846  0.117843  0  1.007214  0
H  H37  1  0.07763916  0.86493109  0.07069668  1  0.088526  0  0.104975  0.118022  0  1.007096  0
C  C38  1  0.62071088  0.62069787  0.00000783  1  1.588181  0  0.207545  0.60243  0  4.167576  0
C  C39  1  0.73171189  0.06214913  0.89673836  1  0.008626  0  -0.092626  -0.067959  0  4.033466  0
C  C40  1  0.50004250  0.91635650  0.41634718  1  1.579606  0  0.211805  0.599666  0  4.153373  0
C  C41  1  0.49995477  0.58365007  0.08361551  1  1.578571  0  0.211371  0.598952  0  4.153645  0
C  C42  1  0.50002530  0.08367362  0.58368501  1  1.589486  0  0.211906  0.60015  0  4.152984  0
C  C43  1  0.49996164  0.41632532  0.91632465  1  1.588133  0  0.211723  0.599423  0  4.153173  0
C  C44  1  0.57665977  0.88593322  0.37749088  1  -0.222183  0  -0.039884  -0.008033  0  3.817891  0
C  C45  1  0.50861168  0.30940198  0.88600616  1  -0.211763  0  -0.039686  -0.007887  0  3.81763  0
C  C46  1  0.42340867  0.80085008  0.30932341  1  -0.244178  0  -0.039779  -0.00776  0  3.817774  0
C  C47  1  0.49128728  0.37733166  0.80074457  1  -0.213424  0  -0.039746  -0.007989  0  3.81777  0
C  C48  1  0.49159294  0.11409189  0.69073512  1  -0.209803  0  -0.03964  -0.007471  0  3.81746  0
C  C49  1  0.16484583  0.33026788  0.06151835  1  0.015942  0  -0.092918  -0.069736  0  4.034269  0
C  C50  1  0.57656099  0.69055098  0.19921599  1  -0.246185  0  -0.039599  -0.007864  0  3.817454  0
C  C51  1  0.50850465  0.19917249  0.62256458  1  -0.211468  0  -0.039733  -0.007604  0  3.81773  0
C  C52  1  0.42337740  0.62262606  0.11396629  1  -0.233647  0  -0.039769  -0.008181  0  3.81818  0
C  C53  1  0.26836473  0.16508438  0.33042210  1  -0.018015  0  -0.092698  -0.068238  0  4.034078  0
C  C54  1  0.50004109  0.86696637  0.36698162  1  0.096646  0  -0.032718  -0.107869  0  4.0076  0
C  C55  1  0.49993914  0.36694069  0.86694302  1  0.066008  0  -0.03273  -0.107736  0  4.008139  0
C  C56  1  0.50005626  0.13306183  0.63308178  1  0.064695  0  -0.032865  -0.108369  0  4.007874  0
C  C57  1  0.49996320  0.63301679  0.13300304  1  0.098905  0  -0.032687  -0.10741  0  4.007885  0
C  C58  1  0.42154879  0.75600677  0.25966566  1  0.036899  0  -0.014626  0.042075  0  4.026619  0
C  C59  1  0.26870441  0.10328473  0.93853190  1  -0.041869  0  -0.092847  -0.06958  0  4.034146  0
C  C60  1  0.49612194  0.33435982  0.75591155  1  0.039871  0  -0.015093  0.042439  0  4.025801  0
C  C61  1  0.57848083  0.83812282  0.33448027  1  0.036223  0  -0.014616  0.042278  0  4.026081  0
C  C62  1  0.50382047  0.25975710  0.83821733  1  0.036982  0  -0.015032  0.042135  0  4.026133  0
C  C63  1  0.50367094  0.24400001  0.66554547  1  0.041387  0  -0.014644  0.042117  0  4.026552  0
C  C64  1  0.42153389  0.66561065  0.16177156  1  0.052644  0  -0.015033  0.04227  0  4.026523  0
C  C65  1  0.49638103  0.16188773  0.74036881  1  0.034077  0  -0.014782  0.042002  0  4.026336  0
C  C66  1  0.57844021  0.74021135  0.24407142  1  0.039725  0  -0.015129  0.042289  0  4.026264  0
C  C67  1  0.83455274  0.93782621  0.66954629  1  -0.010095  0  -0.092766  -0.068545  0  4.033441  0
C  C68  1  0.50000950  0.77355450  0.27356287  1  -0.059443  0  0.01019  0.027211  0  3.864866  0
C  C69  1  0.49998581  0.27355675  0.77356358  1  0.025613  0  0.010098  0.026662  0  3.865597  0
C  C70  1  0.50001343  0.22644845  0.72645543  1  -0.070827  0  0.010147  0.027208  0  3.864897  0
C  C71  1  0.49999252  0.72642202  0.22643373  1  0.035305  0  0.010106  0.026681  0  3.865537  0
C  C72  1  0.73121076  0.66980520  0.83450622  1  -0.069066  0  -0.092799  -0.069649  0  4.034083  0
C  C73  1  0.34478118  0.69343393  0.19587881  1  -0.087086  0  -0.097669  -0.113451  0  4.005909  0
C  C74  1  0.49720410  0.34848585  0.69327428  1  -0.111569  0  -0.097818  -0.114482  0  4.006252  0
C  C75  1  0.65523645  0.85108764  0.34866709  1  -0.109773  0  -0.097682  -0.113552  0  4.005853  0
C  C76  1  0.50277326  0.19605238  0.85127956  1  0.012655  0  -0.097726  -0.11416  0  4.006032  0
C  C77  1  0.50243209  0.30656107  0.65133964  1  0.018665  0  -0.097591  -0.11341  0  4.006016  0
C  C78  1  0.34477796  0.65149251  0.14872820  1  -0.006569  0  -0.097808  -0.114331  0  4.005975  0
C  C79  1  0.49759184  0.14891285  0.80415232  1  -0.098501  0  -0.097652  -0.113557  0  4.006236  0
C  C80  1  0.16529559  0.83489374  0.10325911  1  -0.053808  0  -0.092701  -0.067996  0  4.033305  0
C  C81  1  0.65520871  0.80392530  0.30671522  1  0.018016  0  -0.097904  -0.114371  0  4.00632  0
C  C82  1  0.69492935  0.78458086  0.07846268  1  -0.308629  0  -0.053606  0.003018  0  3.895788  0
C  C83  1  0.83533757  0.89672413  0.16547129  1  -0.093993  0  -0.092807  -0.069383  0  4.034783  0
C  C84  1  0.70649782  0.09013346  0.78447018  1  -0.284744  0  -0.053404  0.003349  0  3.895555  0
C  C85  1  0.30521558  0.38359055  0.08974649  1  -0.266637  0  -0.053629  0.002928  0  3.895864  0
C  C86  1  0.29356228  0.07802259  0.38364419  1  -0.288627  0  -0.053311  0.003523  0  3.895707  0
C  C87  1  0.29382933  0.21543298  0.91028790  1  -0.279392  0  -0.053608  0.002999  0  3.895625  0
C  C88  1  0.69431394  0.90985284  0.61635559  1  -0.270847  0  -0.053406  0.003417  0  3.895533  0
C  C89  1  0.70608400  0.61642100  0.92152235  1  -0.288816  0  -0.053754  0.002996  0  3.895726  0
C  C90  1  0.30558009  0.92195946  0.21551915  1  -0.310133  0  -0.053156  0.003635  0  3.895307  0
C  C91  1  0.74916306  0.84812737  0.13973648  1  0.071019  0  -0.108428  -0.138418  0  4.06566  0
C  C92  1  0.70892360  0.09969152  0.84806852  1  0.026264  0  -0.108627  -0.139316  0  4.066355  0
C  C93  1  0.25103858  0.39068081  0.09910302  1  -0.012854  0  -0.108493  -0.138066  0  4.064858  0
C  C94  1  0.29116736  0.13921983  0.39077141  1  0.075859  0  -0.108557  -0.139259  0  4.065873  0
C  C95  1  0.29154958  0.15188824  0.90095005  1  0.053085  0  -0.108486  -0.138262  0  4.064687  0
C  C96  1  0.74834452  0.90028567  0.60921700  1  0.037619  0  -0.108583  -0.139126  0  4.066113  0
C  C97  1  0.70834010  0.60936162  0.86024499  1  0.076062  0  -0.108343  -0.138162  0  4.064809  0
C  C98  1  0.25150709  0.86075918  0.15192942  1  0.122778  0  -0.108707  -0.139463  0  4.065826  0
C  C99  1  0.62064807  0.99999441  0.62065618  1  1.586891  0  0.207312  0.602306  0  4.16642  0
C  C100  1  0.85996659  0.88759843  0.12109371  1  0.04946  0  -0.092882  -0.129679  0  3.974309  0
C  C101  1  0.76681911  0.02822276  0.88763667  1  -0.029737  0  -0.093247  -0.130567  0  3.973752  0
C  C102  1  0.14017244  0.26123548  0.02775627  1  -0.033213  0  -0.092754  -0.129705  0  3.973677  0
C  C103  1  0.23322588  0.12084592  0.26138925  1  -0.049503  0  -0.093309  -0.130713  0  3.974981  0
C  C104  1  0.23345466  0.11239607  0.97229741  1  0.013443  0  -0.092639  -0.129332  0  3.973674  0
C  C105  1  0.37931795  0.37930262  0.00001341  1  1.58777  0  0.207519  0.602401  0  4.167699  0
C  C106  1  0.85939033  0.97176833  0.73858557  1  -0.075804  0  -0.093114  -0.129949  0  3.973662  0
C  C107  1  0.76646704  0.73882356  0.87887897  1  0.001625  0  -0.093097  -0.129802  0  3.974123  0
C  C108  1  0.14050865  0.87913109  0.11236764  1  -0.018422  0  -0.093276  -0.130808  0  3.974993  0
C  C109  1  0.37932897  0.99998910  0.37933478  1  1.587834  0  0.207552  0.602634  0  4.166484  0
C  C110  1  0.80301654  0.82365793  0.05523833  1  -0.019611  0  0.004293  0.082969  0  3.954835  0
C  C111  1  0.76860593  0.02097545  0.82365224  1  -0.016589  0  0.004824  0.083805  0  3.954676  0
C  C112  1  0.19706349  0.25228133  0.02072341  1  0.004663  0  0.004134  0.082765  0  3.954813  0
C  C113  1  0.23141225  0.05506614  0.25236242  1  -0.021053  0  0.004712  0.083776  0  3.954834  0
C  C114  1  0.23156035  0.17633981  0.97932749  1  -0.017168  0  0.004124  0.082924  0  3.954498  0
C  C115  1  0.80267354  0.97902936  0.74762752  1  0.00224  0  0.004714  0.083545  0  3.955038  0
C  C116  1  0.76840007  0.74774470  0.94473560  1  -0.014299  0  0.004374  0.082901  0  3.955201  0
C  C117  1  0.19726615  0.94491444  0.17634143  1  -0.016386  0  0.004707  0.083746  0  3.954356  0
C  C118  1  0.72516554  0.76234690  0.04276330  1  0.055414  0  -0.00298  0.02891  0  3.92005  0
C  C119  1  0.71978467  0.03747259  0.76230269  1  -0.000432  0  -0.003467  0.028113  0  3.920898  0
C  C120  1  0.27492203  0.31763974  0.03725624  1  0.037959  0  -0.003083  0.028783  0  3.920832  0
C  C121  1  0.28023316  0.04253493  0.31768956  1  0.02037  0  -0.003437  0.028037  0  3.920951  0
C  C122  1  0.28039263  0.23765866  0.96278783  1  -0.002547  0  -0.003131  0.028676  0  3.920243  0
C  C123  1  0.72482107  0.96252481  0.68230673  1  0.03255  0  -0.003403  0.028016  0  3.920906  0
C  C124  1  0.71957257  0.68237359  0.95722425  1  0.019643  0  -0.002964  0.028767  0  3.920408  0
C  C125  1  0.27512983  0.95745455  0.23769452  1  0.045713  0  -0.00339  0.028128  0  3.920656  0
C  C126  1  0.81745938  0.81745305  0.99998367  1  -0.011787  0  -0.01143  -0.128374  0  3.891045  0
C  C127  1  0.81740790  0.00000574  0.81740710  1  -0.006496  0  -0.011394  -0.128498  0  3.890702  0
C  C128  1  0.18255045  0.18255674  0.00002204  1  -0.013756  0  -0.011334  -0.128277  0  3.890318  0
C  C129  1  0.18257945  0.99999207  0.18259008  1  -0.014224  0  -0.0114  -0.128545  0  3.890073  0
C  C130  1  0.68967720  0.68966330  0.00000103  1  -0.013129  0  -0.002382  -0.07896  0  3.791876  0
C  C131  1  0.68961769  0.99999275  0.68962710  1  0.017656  0  -0.002244  -0.078541  0  3.792063  0
C  C132  1  0.31035994  0.31034553  0.00002493  1  0.01425  0  -0.002287  -0.078945  0  3.7923  0
C  C133  1  0.31036346  0.99999104  0.31037361  1  -0.009229  0  -0.002351  -0.078766  0  3.792462  0
C  C134  1  0.88428473  0.00000121  0.88428629  1  1.537309  0  0.224142  0.613505  0  4.129669  0
C  C135  1  0.11567591  0.11568629  0.00000828  1  1.536481  0  0.224373  0.614108  0  4.129682  0
C  C136  1  0.11570221  0.99999283  0.11570740  1  1.522177  0  0.224221  0.613772  0  4.129594  0
C  C137  1  0.88432057  0.88432177  0.99998769  1  1.523197  0  0.224351  0.614092  0  4.129665  0
I  I138  1  0.69444043  0.98526509  0.46091428  1  0.15728  0  0.1036  0.025052  0  1.581777  0
I  I139  1  0.52478321  0.29104162  0.98543719  1  0.156036  0  0.103586  0.024909  0  1.581856  0
I  I140  1  0.30563271  0.76647481  0.29088037  1  0.15541  0  0.103458  0.024846  0  1.581983  0
I  I141  1  0.47508149  0.46057713  0.76619563  1  0.155483  0  0.103494  0.024837  0  1.581678  0
I  I142  1  0.47568261  0.01475758  0.70918477  1  0.155923  0  0.103683  0.025047  0  1.581884  0
I  I143  1  0.69434713  0.70888489  0.23376765  1  0.155763  0  0.103392  0.02474  0  1.581605  0
I  I144  1  0.52440812  0.23353471  0.53914132  1  0.155554  0  0.103608  0.024975  0  1.581816  0
I  I145  1  0.30558347  0.53936488  0.01452010  1  0.157526  0  0.103525  0.024915  0  1.581405  0
I  I146  1  0.56519596  0.73781213  0.02580930  1  0.13342  0  0.079511  0.00377  0  1.582577  0
I  I147  1  0.71251304  0.17305022  0.73756736  1  0.131296  0  0.079011  0.00339  0  1.581867  0
I  I148  1  0.43496760  0.46061337  0.17270700  1  0.130967  0  0.079352  0.00362  0  1.582683  0
I  I149  1  0.28757760  0.02513677  0.46056306  1  0.131388  0  0.079063  0.003459  0  1.582257  0
I  I150  1  0.28792889  0.26221708  0.82733081  1  0.131166  0  0.079401  0.0037  0  1.582971  0
I  I151  1  0.56450475  0.82694169  0.53946322  1  0.131283  0  0.079098  0.003486  0  1.581993  0
I  I152  1  0.71197825  0.53934136  0.97418325  1  0.132567  0  0.079442  0.003716  0  1.58257  0
I  I153  1  0.43538238  0.97484955  0.26241590  1  0.13165  0  0.07906  0.003441  0  1.582107  0
O  O154  1  0.54484284  0.58630790  0.94241727  1  -1.149869  0  -0.316504  -0.566632  0  2.286227  0
O  O155  1  0.64385476  0.04148233  0.58627419  1  -1.145688  0  -0.316102  -0.5663  0  2.28658  0
O  O156  1  0.45518999  0.39758216  0.04148702  1  -1.15778  0  -0.316571  -0.566671  0  2.285555  0
O  O157  1  0.35611549  0.94239232  0.39761379  1  -1.15366  0  -0.316228  -0.566313  0  2.285896  0
O  O158  1  0.35611035  0.41368536  0.95853413  1  -1.145618  0  -0.316528  -0.566642  0  2.286345  0
O  O159  1  0.54477865  0.95850436  0.60238534  1  -1.157793  0  -0.316299  -0.566391  0  2.285934  0
O  O160  1  0.64391120  0.60242686  0.05760952  1  -1.153587  0  -0.316653  -0.566751  0  2.285604  0
O  O161  1  0.45519612  0.05757906  0.41371063  1  -1.150282  0  -0.316407  -0.566605  0  2.286561  0
O  O162  1  0.45584627  0.57068002  0.01411618  1  -1.148115  0  -0.307291  -0.538337  0  2.477675  0
O  O163  1  0.55653148  0.11479359  0.57069301  1  -1.152482  0  -0.30752  -0.538867  0  2.477534  0
O  O164  1  0.54406931  0.55825861  0.11474991  1  -1.151823  0  -0.307251  -0.538354  0  2.477198  0
O  O165  1  0.44348008  0.01416580  0.55828716  1  -1.155564  0  -0.307552  -0.538859  0  2.476928  0
O  O166  1  0.44345578  0.42931653  0.88520646  1  -1.151048  0  -0.307462  -0.538471  0  2.4776  0
O  O167  1  0.45592969  0.88522563  0.44173997  1  -1.151977  0  -0.307327  -0.538519  0  2.477444  0
O  O168  1  0.55650663  0.44171873  0.98583311  1  -1.155345  0  -0.307466  -0.538552  0  2.47678  0
O  O169  1  0.54414707  0.98585553  0.42931205  1  -1.147936  0  -0.307456  -0.538633  0  2.477329  0
O  O170  1  0.89611866  0.94955338  0.87537695  1  -1.147263  0  -0.310489  -0.550649  0  2.299977  0
O  O171  1  0.07413560  0.05340590  0.94956347  1  -1.154077  0  -0.31054  -0.550721  0  2.299979  0
O  O172  1  0.10385855  0.97925507  0.05342394  1  -1.144923  0  -0.310538  -0.550783  0  2.300163  0
O  O173  1  0.92584778  0.87541439  0.97923732  1  -1.14286  0  -0.310459  -0.550677  0  2.29982  0
O  O174  1  0.92583304  0.05044734  0.94657222  1  -1.154314  0  -0.310477  -0.550642  0  2.300287  0
O  O175  1  0.89616152  0.94660064  0.02073226  1  -1.145217  0  -0.310504  -0.550614  0  2.300037  0
O  O176  1  0.07416248  0.02073441  0.12460694  1  -1.14261  0  -0.310539  -0.55079  0  2.300065  0
O  O177  1  0.10383009  0.12459267  0.05044414  1  -1.14691  0  -0.310395  -0.550661  0  2.300225  0
