# generated using pymatgen
data_ZnH8C15NO8
_symmetry_space_group_name_H-M   'P 1'
_cell_length_a   4.65148889
_cell_length_b   14.43747928
_cell_length_c   21.20800000
_cell_angle_alpha   95.03019227
_cell_angle_beta   90.00000000
_cell_angle_gamma   90.00000000
_symmetry_Int_Tables_number   1
_chemical_formula_structural   ZnH8C15NO8
_chemical_formula_sum   'Zn4 H32 C60 N4 O32'
_cell_volume   1418.75439578
_cell_formula_units_Z   4
loop_
 _symmetry_equiv_pos_site_id
 _symmetry_equiv_pos_as_xyz
  1  'x, y, z'
loop_
 _atom_site_type_symbol
 _atom_site_label
 _atom_site_symmetry_multiplicity
 _atom_site_fract_x
 _atom_site_fract_y
 _atom_site_fract_z
 _atom_site_occupancy
 _atom_site_pbe_bader_charge
 _atom_site_pbe_bader_spin_density
 _atom_site_pbe_cm5_charge
 _atom_site_pbe_ddec_charge
 _atom_site_pbe_ddec_spin_density
 _atom_site_pbe_ddec_sum_bond_order
 _atom_site_pbe_magmom
Zn  Zn0  1  0.16460321  0.62922254  0.96761718  1  1.303501  0  0.717816  0.890348  0  2.279435  0
Zn  Zn1  1  0.66460225  0.87077796  0.53238247  1  1.303506  0  0.717825  0.890372  0  2.279434  0
Zn  Zn2  1  0.83539918  0.37077780  0.03238274  1  1.303501  0  0.717809  0.890319  0  2.279444  0
Zn  Zn3  1  0.33539798  0.12922237  0.46761746  1  1.303493  0  0.717834  0.890392  0  2.279406  0
H  H4  1  0.43703856  0.27160227  0.65027009  1  0.655755  0  0.303563  0.367814  0  0.974318  0
H  H5  1  0.93703760  0.22839789  0.84973011  1  0.655755  0  0.303573  0.36784  0  0.974283  0
H  H6  1  0.56296383  0.72839875  0.34972941  1  0.655764  0  0.303558  0.367812  0  0.974264  0
H  H7  1  0.06296264  0.77160105  0.15026926  1  0.655743  0  0.30354  0.367801  0  0.974335  0
H  H8  1  0.37866155  0.74215426  0.80298822  1  0.675041  0  0.313341  0.37544  0  0.96308  0
H  H9  1  0.87866275  0.75784554  0.69701233  1  0.674997  0  0.313354  0.37541  0  0.963118  0
H  H10  1  0.62133654  0.25784537  0.19701214  1  0.675038  0  0.313345  0.375407  0  0.963134  0
H  H11  1  0.12133749  0.24215340  0.30298798  1  0.674998  0  0.313365  0.375459  0  0.963052  0
H  H12  1  0.19453341  0.32879718  0.79630424  1  0.151177  0  0.116415  0.121091  0  1.010189  0
H  H13  1  0.69453245  0.17120229  0.70369591  1  0.151192  0  0.116411  0.121108  0  1.010153  0
H  H14  1  0.80546898  0.67120315  0.20369615  1  0.151179  0  0.116418  0.12109  0  1.010199  0
H  H15  1  0.30546563  0.82879665  0.29630393  1  0.151172  0  0.116408  0.121091  0  1.010175  0
H  H16  1  0.98844910  0.55781808  0.68844376  1  0.107802  0  0.112907  0.11564  0  1.011466  0
H  H17  1  0.48844790  0.94218172  0.81155585  1  0.107812  0  0.112882  0.115571  0  1.011455  0
H  H18  1  0.01155114  0.44218156  0.31155565  1  0.107813  0  0.112913  0.115648  0  1.011454  0
H  H19  1  0.51155233  0.05781791  0.18844356  1  0.107793  0  0.112942  0.115704  0  1.011448  0
H  H20  1  0.57692710  0.73749632  0.04655544  1  0.168711  0  0.117963  0.09575  0  1.026418  0
H  H21  1  0.07691731  0.76250418  0.45344421  1  0.168862  0  0.117924  0.095734  0  1.026418  0
H  H22  1  0.42308389  0.26250471  0.95344406  1  0.168858  0  0.117955  0.095736  0  1.026408  0
H  H23  1  0.92308078  0.23749545  0.54655567  1  0.16886  0  0.117975  0.095782  0  1.02638  0
H  H24  1  0.73883440  0.89858101  0.06606012  1  0.141103  0  0.111466  0.124797  0  1.026285  0
H  H25  1  0.23883320  0.60141948  0.43394001  1  0.141114  0  0.111465  0.124811  0  1.026266  0
H  H26  1  0.26116799  0.10142001  0.93394032  1  0.141117  0  0.111482  0.124803  0  1.026288  0
H  H27  1  0.76116703  0.39858085  0.56605992  1  0.141108  0  0.111465  0.124805  0  1.026266  0
H  H28  1  0.14387436  0.96900854  0.91921522  1  0.138601  0  0.113087  0.1336  0  1.033799  0
H  H29  1  0.64387986  0.53099126  0.58078534  1  0.13859  0  0.113086  0.133594  0  1.033828  0
H  H30  1  0.85612158  0.03099109  0.08078514  1  0.138586  0  0.113086  0.133575  0  1.033842  0
H  H31  1  0.35612253  0.46900907  0.41921506  1  0.138589  0  0.113089  0.133585  0  1.033822  0
H  H32  1  0.00586909  0.80398695  0.90655637  1  0.118078  0  0.122636  0.102845  0  0.976634  0
H  H33  1  0.50586813  0.69601355  0.59344376  1  0.11806  0  0.122617  0.102824  0  0.976619  0
H  H34  1  0.99413330  0.19601338  0.09344356  1  0.118067  0  0.122615  0.102816  0  0.976663  0
H  H35  1  0.49413211  0.30398748  0.40655621  1  0.118067  0  0.122627  0.102827  0  0.976646  0
C  C36  1  0.08619391  0.39471695  0.79231269  1  -0.088855  0  -0.055806  -0.060745  0  3.888911  0
C  C37  1  0.58619295  0.10528252  0.70768747  1  -0.088859  0  -0.055812  -0.060789  0  3.888896  0
C  C38  1  0.91380848  0.60528338  0.20768724  1  -0.088838  0  -0.055805  -0.060724  0  3.888907  0
C  C39  1  0.41380514  0.89471712  0.29231241  1  -0.088849  0  -0.055767  -0.060723  0  3.888928  0
C  C40  1  0.93018388  0.43501420  0.84380230  1  0.05506  0  -0.007915  -0.051559  0  3.928464  0
C  C41  1  0.43018269  0.06498596  0.65619789  1  0.055062  0  -0.007896  -0.051498  0  3.928404  0
C  C42  1  0.06981850  0.56498613  0.15619762  1  0.055048  0  -0.007906  -0.051592  0  3.928502  0
C  C43  1  0.56981540  0.93501367  0.34380199  1  0.055046  0  -0.007942  -0.051613  0  3.92852  0
C  C44  1  0.79334598  0.52137568  0.83992990  1  -0.035459  0  0.019549  -0.015528  0  3.833128  0
C  C45  1  0.29334263  0.97862412  0.66007019  1  -0.034972  0  0.019553  -0.015525  0  3.833143  0
C  C46  1  0.20665426  0.47862465  0.16007003  1  -0.035576  0  0.019568  -0.015455  0  3.83317  0
C  C47  1  0.70665330  0.02137552  0.33993017  1  -0.035564  0  0.019553  -0.015546  0  3.833104  0
C  C48  1  0.80974073  0.56413506  0.78243596  1  0.006008  0  -0.014221  -0.086642  0  3.944193  0
C  C49  1  0.30973953  0.93586474  0.71756412  1  0.005499  0  -0.014194  -0.086642  0  3.944291  0
C  C50  1  0.19025951  0.43586527  0.21756397  1  0.006124  0  -0.014223  -0.086681  0  3.94423  0
C  C51  1  0.69025640  0.06413489  0.28243576  1  0.006059  0  -0.014193  -0.08654  0  3.944137  0
C  C52  1  0.97449443  0.52337612  0.73202214  1  -0.032096  0  -0.06046  -0.071407  0  3.914617  0
C  C53  1  0.47449323  0.97662369  0.76797747  1  -0.032095  0  -0.060438  -0.071302  0  3.914573  0
C  C54  1  0.02550581  0.47662422  0.26797779  1  -0.032083  0  -0.060451  -0.071367  0  3.914613  0
C  C55  1  0.52550486  0.02337665  0.23202198  1  -0.032056  0  -0.060483  -0.071491  0  3.914694  0
C  C56  1  0.11462136  0.43906444  0.73674493  1  0.095907  0  -0.015635  -0.047153  0  3.98698  0
C  C57  1  0.61462256  0.06093503  0.76325476  1  0.095901  0  -0.015643  -0.047196  0  3.986978  0
C  C58  1  0.88537672  0.56093520  0.26325543  1  0.095881  0  -0.01565  -0.047205  0  3.987093  0
C  C59  1  0.38537768  0.93906461  0.23674465  1  0.095909  0  -0.015617  -0.047115  0  3.987008  0
C  C60  1  0.28879140  0.39600469  0.68264040  1  1.541439  0  0.230097  0.584088  0  4.139944  0
C  C61  1  0.78879260  0.10399409  0.81736066  1  1.541474  0  0.230144  0.584179  0  4.140052  0
C  C62  1  0.71120454  0.60399703  0.31735772  1  1.541289  0  0.230188  0.584245  0  4.139844  0
C  C63  1  0.21120764  0.89600555  0.18263875  1  1.541472  0  0.230147  0.584166  0  4.14008  0
C  C64  1  0.93056226  0.38583703  0.90332971  1  1.576637  0  0.221341  0.588885  0  4.165231  0
C  C65  1  0.43056106  0.11416244  0.59667045  1  1.576633  0  0.221321  0.588812  0  4.165363  0
C  C66  1  0.06943798  0.61416261  0.09667018  1  1.576639  0  0.221345  0.588894  0  4.165248  0
C  C67  1  0.56943918  0.88583789  0.40332948  1  1.576625  0  0.221298  0.588829  0  4.165337  0
C  C68  1  0.63908784  0.56857537  0.89665469  1  1.638493  0  0.227887  0.619441  0  4.186195  0
C  C69  1  0.13908665  0.93142443  0.60334586  1  1.638475  0  0.227858  0.619451  0  4.186164  0
C  C70  1  0.36091240  0.43142427  0.10334566  1  1.638492  0  0.227827  0.619361  0  4.18622  0
C  C71  1  0.86091144  0.06857520  0.39665449  1  1.638482  0  0.227872  0.619439  0  4.1862  0
C  C72  1  0.65246635  0.65036999  0.76981731  1  1.538973  0  0.242365  0.600122  0  4.100938  0
C  C73  1  0.15246301  0.84963051  0.73018187  1  1.539083  0  0.242338  0.600158  0  4.100906  0
C  C74  1  0.34753388  0.34963034  0.23018308  1  1.538985  0  0.242359  0.600138  0  4.100964  0
C  C75  1  0.84753508  0.15036913  0.26981802  1  1.538982  0  0.242366  0.600124  0  4.100879  0
C  C76  1  0.48307113  0.79107000  0.01984987  1  0.399623  0  0.050183  0.105013  0  3.92884  0
C  C77  1  0.98306588  0.70893050  0.48015026  1  0.399484  0  0.050234  0.105051  0  3.928891  0
C  C78  1  0.51693341  0.20893103  0.98015057  1  0.399496  0  0.050212  0.105072  0  3.928806  0
C  C79  1  0.01693221  0.29106983  0.51984967  1  0.399495  0  0.050179  0.104986  0  3.928751  0
C  C80  1  0.57420754  0.88245377  0.03023140  1  0.031167  0  -0.073701  -0.152946  0  3.908435  0
C  C81  1  0.07420635  0.61754673  0.46976825  1  0.031175  0  -0.073669  -0.152892  0  3.908486  0
C  C82  1  0.42579055  0.11754726  0.96976903  1  0.031167  0  -0.07374  -0.153005  0  3.908418  0
C  C83  1  0.92579174  0.38245360  0.53023168  1  0.031183  0  -0.073693  -0.152905  0  3.908353  0
C  C84  1  0.45505215  0.95075293  0.99477540  1  -0.018429  0  0.020742  0.113116  0  3.936857  0
C  C85  1  0.95505119  0.54924757  0.50522425  1  -0.018422  0  0.020718  0.113047  0  3.936962  0
C  C86  1  0.54494809  0.04924810  0.00522457  1  0.020939  0  0.020736  0.113075  0  3.936908  0
C  C87  1  0.04494690  0.45075207  0.49477516  1  0.020933  0  0.020733  0.113048  0  3.936929  0
C  C88  1  0.24761534  0.92128459  0.94910709  1  -0.038019  0  -0.075638  -0.166832  0  3.893776  0
C  C89  1  0.74761653  0.57871591  0.55089304  1  -0.037992  0  -0.07566  -0.166878  0  3.893871  0
C  C90  1  0.75238275  0.07871574  0.05089331  1  -0.037977  0  -0.075643  -0.166803  0  3.893824  0
C  C91  1  0.25238370  0.42128442  0.44910689  1  -0.037995  0  -0.075644  -0.166796  0  3.893825  0
C  C92  1  0.16687345  0.82830089  0.94151340  1  0.4427  0  0.051535  0.104351  0  3.927634  0
C  C93  1  0.66687034  0.67169961  0.55848673  1  0.442688  0  0.051559  0.104387  0  3.927644  0
C  C94  1  0.83312894  0.17170014  0.05848704  1  0.442678  0  0.051553  0.104339  0  3.927699  0
C  C95  1  0.33312774  0.32830072  0.44151320  1  0.442685  0  0.051543  0.104365  0  3.927647  0
N  N96  1  0.28163885  0.76399147  0.97636494  1  -1.236311  0  -0.332308  -0.24724  0  3.61164  0
N  N97  1  0.78163575  0.73600833  0.52363514  1  -1.236343  0  -0.332312  -0.247254  0  3.611773  0
N  N98  1  0.71836568  0.23600886  0.02363546  1  -1.236349  0  -0.332299  -0.247202  0  3.611746  0
N  N99  1  0.21836449  0.26399130  0.47636474  1  -1.236334  0  -0.332329  -0.247287  0  3.611722  0
O  O100  1  0.37015460  0.43901507  0.63816927  1  -1.163969  0  -0.294943  -0.509585  0  2.145895  0
O  O101  1  0.87015364  0.06098579  0.86183050  1  -1.163998  0  -0.294973  -0.509623  0  2.146047  0
O  O102  1  0.62983704  0.56098456  0.36183203  1  -1.163885  0  -0.295074  -0.509806  0  2.145712  0
O  O103  1  0.12984875  0.93901385  0.13816986  1  -1.163998  0  -0.294993  -0.509632  0  2.14608  0
O  O104  1  0.34090375  0.30663526  0.68877008  1  -1.167831  0  -0.331702  -0.48956  0  2.331244  0
O  O105  1  0.84090279  0.19336491  0.81122965  1  -1.167811  0  -0.331712  -0.489605  0  2.331238  0
O  O106  1  0.65909649  0.69336507  0.31122937  1  -1.167779  0  -0.331668  -0.489512  0  2.331289  0
O  O107  1  0.15909745  0.80663473  0.18876977  1  -1.167813  0  -0.331705  -0.489598  0  2.331258  0
O  O108  1  0.02779110  0.30403963  0.90291636  1  -1.189304  0  -0.307021  -0.552886  0  2.238837  0
O  O109  1  0.52779015  0.19596123  0.59708341  1  -1.189296  0  -0.307005  -0.552851  0  2.238885  0
O  O110  1  0.97220914  0.69596140  0.09708361  1  -1.189312  0  -0.307018  -0.552874  0  2.238819  0
O  O111  1  0.47220794  0.80403910  0.40291651  1  -1.189289  0  -0.307001  -0.55284  0  2.238836  0
O  O112  1  0.83253343  0.43220094  0.95323736  1  -1.147367  0  -0.301799  -0.5178  0  2.356753  0
O  O113  1  0.33253654  0.06779923  0.54676284  1  -1.147363  0  -0.301803  -0.517803  0  2.356832  0
O  O114  1  0.16746681  0.56779939  0.04676256  1  -1.147328  0  -0.301802  -0.517809  0  2.356772  0
O  O115  1  0.66746370  0.93220041  0.45323705  1  -1.147326  0  -0.301799  -0.51781  0  2.356817  0
O  O116  1  0.37612473  0.54864334  0.90289330  1  -1.156303  0  -0.296557  -0.514311  0  2.3804  0
O  O117  1  0.87612377  0.95135647  0.59710632  1  -1.156313  0  -0.296542  -0.514342  0  2.380351  0
O  O118  1  0.62387551  0.45135630  0.09710659  1  -1.156303  0  -0.296528  -0.514282  0  2.380349  0
O  O119  1  0.12387431  0.04864387  0.40289361  1  -1.156272  0  -0.296551  -0.514311  0  2.380346  0
O  O120  1  0.76922897  0.62939289  0.93315027  1  -1.177207  0  -0.315198  -0.564274  0  2.408474  0
O  O121  1  0.26922777  0.87060552  0.56685067  1  -1.177192  0  -0.315183  -0.564253  0  2.40842  0
O  O122  1  0.23077342  0.37060536  0.06685047  1  -1.177209  0  -0.315184  -0.564229  0  2.408418  0
O  O123  1  0.73077031  0.12939342  0.43314964  1  -1.177206  0  -0.315192  -0.564263  0  2.408436  0
O  O124  1  0.49803623  0.68899916  0.81747434  1  -1.176445  0  -0.311093  -0.458569  0  2.352235  0
O  O125  1  0.99803528  0.81100064  0.68252669  1  -1.176533  0  -0.311054  -0.458505  0  2.352302  0
O  O126  1  0.50196186  0.31099978  0.18252598  1  -1.176434  0  -0.311077  -0.458497  0  2.352269  0
O  O127  1  0.00196281  0.18899900  0.31747367  1  -1.176389  0  -0.31107  -0.458548  0  2.352288  0
O  O128  1  0.65988118  0.68240267  0.71719424  1  -1.177888  0  -0.298916  -0.53528  0  2.232944  0
O  O129  1  0.15987999  0.81759714  0.78280773  1  -1.177864  0  -0.298943  -0.535391  0  2.232838  0
O  O130  1  0.34011690  0.31759836  0.28280667  1  -1.177902  0  -0.298911  -0.535336  0  2.232931  0
O  O131  1  0.84012025  0.18240250  0.21719215  1  -1.177899  0  -0.29895  -0.535356  0  2.232821  0
