# generated using pymatgen
data_Zn4H30C61S6N4(Cl3O8)2
_symmetry_space_group_name_H-M   'P 1'
_cell_length_a   12.70439371
_cell_length_b   14.09697107
_cell_length_c   28.15696752
_cell_angle_alpha   90.60898686
_cell_angle_beta   89.80268720
_cell_angle_gamma   89.83832456
_symmetry_Int_Tables_number   1
_chemical_formula_structural   Zn4H30C61S6N4(Cl3O8)2
_chemical_formula_sum   'Zn4 H30 C61 S6 N4 Cl6 O16'
_cell_volume   5042.39369340
_cell_formula_units_Z   1
loop_
 _symmetry_equiv_pos_site_id
 _symmetry_equiv_pos_as_xyz
  1  'x, y, z'
loop_
 _atom_site_type_symbol
 _atom_site_label
 _atom_site_symmetry_multiplicity
 _atom_site_fract_x
 _atom_site_fract_y
 _atom_site_fract_z
 _atom_site_occupancy
 _atom_site_pbe_bader_charge
 _atom_site_pbe_bader_spin_density
 _atom_site_pbe_cm5_charge
 _atom_site_pbe_ddec_charge
 _atom_site_pbe_ddec_spin_density
 _atom_site_pbe_ddec_sum_bond_order
 _atom_site_pbe_magmom
Zn  Zn0  1  0.50403925  0.39972789  0.49521390  1  1.299944  0  0.666659  0.840213  0  2.417587  0
Zn  Zn1  1  0.49763413  0.59938487  0.50134864  1  1.30083  0  0.663486  0.836072  0  2.39164  0
Zn  Zn2  1  0.50414757  0.60006230  0.04922229  1  1.296523  0  0.667221  0.841586  0  2.41618  0
Zn  Zn3  1  0.49894600  0.40029314  0.04332557  1  1.289406  0  0.663635  0.838817  0  2.383875  0
H  H4  1  0.62429318  0.05949311  0.44334192  1  0.105433  0  0.113765  0.130895  0  1.004927  0
H  H5  1  0.37629294  0.93986961  0.55459045  1  0.108915  0  0.114628  0.132302  0  1.003539  0
H  H6  1  0.60536409  0.74454854  0.45269375  1  0.136768  0  0.133396  0.111239  0  0.979359  0
H  H7  1  0.61950943  0.91917468  0.44631005  1  0.097574  0  0.116354  0.124559  0  0.996771  0
H  H8  1  0.39878224  0.25578671  0.54634691  1  0.152998  0  0.130655  0.108941  0  0.988764  0
H  H9  1  0.38398556  0.08132638  0.55298360  1  0.082007  0  0.116086  0.125524  0  0.995234  0
H  H10  1  0.49971504  0.34041817  0.21162198  1  0.126716  0  0.111794  0.135712  0  0.983158  0
H  H11  1  0.50025147  0.34276010  0.74221195  1  0.062101  0  0.10073  0.110815  0  1.026635  0
H  H12  1  0.50199998  0.65635482  0.80227430  1  0.108128  0  0.100622  0.110112  0  1.02711  0
H  H13  1  0.49912012  0.36546292  0.89797248  1  0.118998  0  0.102151  0.108001  0  1.018255  0
H  H14  1  0.49657767  0.35039034  0.81102853  1  0.031943  0  0.102344  0.104631  0  1.010917  0
H  H15  1  0.49906897  0.63363008  0.64647768  1  0.117719  0  0.102703  0.109004  0  1.016365  0
H  H16  1  0.49728747  0.64878509  0.73345837  1  0.051416  0  0.102505  0.10485  0  1.010916  0
H  H17  1  0.86716294  0.65966255  0.49931353  1  0.081675  0  0.111596  0.135033  0  0.983011  0
H  H18  1  0.62416556  0.93972552  0.10078583  1  0.10867  0  0.113823  0.130822  0  1.006123  0
H  H19  1  0.37812205  0.06091835  0.98953635  1  0.081752  0  0.114297  0.131736  0  1.003588  0
H  H20  1  0.60679096  0.25445552  0.09123452  1  0.160629  0  0.134087  0.11479  0  0.971956  0
H  H21  1  0.62102978  0.07975015  0.09721851  1  0.080469  0  0.116187  0.124152  0  0.996261  0
H  H22  1  0.39981437  0.74454987  0.99800126  1  0.139892  0  0.130495  0.108784  0  0.989059  0
H  H23  1  0.38618804  0.91908213  0.99087538  1  0.096007  0  0.115953  0.125206  0  0.99455  0
H  H24  1  0.86896211  0.34204380  0.04557524  1  0.10044  0  0.111541  0.135412  0  0.983214  0
H  H25  1  0.57275581  0.70663331  0.35393425  1  0.041813  0  0.093521  0.131805  0  0.993329  0
H  H26  1  0.49771552  0.73097381  0.30198320  1  0.033104  0  0.086323  0.121566  0  1.006785  0
H  H27  1  0.43429717  0.70595716  0.35721901  1  0.06406  0  0.097433  0.141131  0  0.985478  0
H  H28  1  0.18102681  0.29465739  0.53146805  1  0.048421  0  0.094491  0.134042  0  0.990607  0
H  H29  1  0.06461188  0.26939283  0.49846154  1  0.027976  0  0.08584  0.120642  0  1.007345  0
H  H30  1  0.18648991  0.29363113  0.46902369  1  0.071292  0  0.097647  0.142539  0  0.985057  0
H  H31  1  0.18102642  0.70690641  0.01327581  1  0.051491  0  0.094443  0.133804  0  0.991107  0
H  H32  1  0.06411404  0.73225677  0.04637139  1  0.034772  0  0.085743  0.120123  0  1.007043  0
H  H33  1  0.18582808  0.70802274  0.07571938  1  0.07476  0  0.097324  0.141964  0  0.987096  0
C  C34  1  0.50087644  0.48395957  0.59092469  1  1.563097  0  0.213205  0.606615  0  4.159851  0
C  C35  1  0.29563353  0.48778080  0.49822127  1  1.538909  0  0.20413  0.60869  0  4.2056  0
C  C36  1  0.50076791  0.51146378  0.40550339  1  1.585151  0  0.204047  0.608546  0  4.201079  0
C  C37  1  0.70550248  0.51528026  0.49925163  1  1.584194  0  0.20446  0.604445  0  4.209408  0
C  C38  1  0.50155236  0.51506602  0.95357274  1  1.618371  0  0.213144  0.606215  0  4.159672  0
C  C39  1  0.29647792  0.51381642  0.04706709  1  1.549915  0  0.204603  0.609384  0  4.203302  0
C  C40  1  0.50160899  0.48499453  0.13892311  1  1.557743  0  0.205023  0.603944  0  4.207819  0
C  C41  1  0.70633973  0.48661953  0.04493060  1  1.604372  0  0.204721  0.602782  0  4.2101  0
C  C42  1  0.57396640  0.19715525  0.46600039  1  0.689786  0  0.158122  0.298884  0  4.046601  0
C  C43  1  0.57168668  0.09821452  0.46711098  1  0.017245  0  -0.082255  -0.232697  0  3.918554  0
C  C44  1  0.42765916  0.80234106  0.53198430  1  0.667579  0  0.158122  0.29838  0  4.046547  0
C  C45  1  0.42939880  0.90132963  0.53096174  1  0.011207  0  -0.081298  -0.234484  0  3.91706  0
C  C46  1  0.55646010  0.79176034  0.47437466  1  0.448716  0  0.066892  0.129429  0  3.900525  0
C  C47  1  0.56332349  0.88954933  0.47125451  1  0.055975  0  -0.079356  -0.180934  0  3.93428  0
C  C48  1  0.44619817  0.20836437  0.52413366  1  0.493527  0  0.066083  0.130963  0  3.896937  0
C  C49  1  0.43917029  0.11059600  0.52747042  1  -0.04997  0  -0.079637  -0.18061  0  3.930087  0
C  C50  1  0.50293428  0.05249532  0.49827912  1  0.017051  0  0.0183  0.124415  0  3.967922  0
C  C51  1  0.49860367  0.94741945  0.50012884  1  -0.079165  0  0.019191  0.127967  0  3.964481  0
C  C52  1  0.50110454  0.58420481  0.32140159  1  0.018927  0  -0.011136  0.134126  0  3.976908  0
C  C53  1  0.50060063  0.41432933  0.22309481  1  0.090414  0  -0.098304  -0.147001  0  3.989943  0
C  C54  1  0.50067106  0.50930498  0.35320560  1  -0.173405  0  -0.029406  -0.180662  0  3.92117  0
C  C55  1  0.50126930  0.48845639  0.19134503  1  -0.159127  0  -0.026067  -0.104731  0  3.969421  0
C  C56  1  0.50078130  0.44824424  0.27052360  1  -0.21351  0  -0.029922  -0.007542  0  4.103553  0
C  C57  1  0.50133624  0.54810562  0.27419424  1  -0.120297  0  -0.029567  -0.082444  0  4.05201  0
C  C58  1  0.50006934  0.48244933  0.64434391  1  0.049897  0  -0.019204  -0.091219  0  3.909716  0
C  C59  1  0.50107475  0.51661126  0.90014043  1  -0.043656  0  -0.019378  -0.090936  0  3.90883  0
C  C60  1  0.50021375  0.40094203  0.67288513  1  0.058231  0  0.023123  0.154869  0  3.999746  0
C  C61  1  0.49953722  0.40850365  0.72235521  1  0.01753  0  -0.097563  -0.205629  0  3.958123  0
C  C62  1  0.50180485  0.59812053  0.87160845  1  0.082565  0  0.022733  0.154355  0  4.00007  0
C  C63  1  0.50079673  0.59062321  0.82213739  1  -0.036069  0  -0.097146  -0.20466  0  3.959397  0
C  C64  1  0.49930329  0.42869297  0.87610223  1  -0.022669  0  -0.083029  -0.071673  0  3.99554  0
C  C65  1  0.49801805  0.42097834  0.82703233  1  0.009803  0  -0.093585  -0.139292  0  3.986836  0
C  C66  1  0.49896134  0.57041305  0.66837626  1  -0.105084  0  -0.083283  -0.072451  0  3.997428  0
C  C67  1  0.49808422  0.57816242  0.71745475  1  0.013648  0  -0.093748  -0.139037  0  3.988728  0
C  C68  1  0.49856705  0.49666594  0.74595141  1  -0.024231  0  -0.000905  0.092814  0  3.987132  0
C  C69  1  0.49884817  0.50247461  0.79855165  1  -0.017313  0  -0.000734  0.094039  0  3.987004  0
C  C70  1  0.10883096  0.41615241  0.49924911  1  0.039761  0  -0.010004  0.135769  0  3.977771  0
C  C71  1  0.89229578  0.58586202  0.49935092  1  0.071972  0  -0.098307  -0.145142  0  3.990575  0
C  C72  1  0.17987629  0.49110763  0.49888940  1  -0.136463  0  -0.029722  -0.18154  0  3.9259  0
C  C73  1  0.82150671  0.51155601  0.49944145  1  -0.170445  0  -0.027189  -0.108565  0  3.977312  0
C  C74  1  0.99715901  0.55212060  0.49942106  1  -0.197761  0  -0.030045  -0.007612  0  4.103789  0
C  C75  1  0.00455391  0.45225870  0.49953568  1  -0.144652  0  -0.0291  -0.082088  0  4.052354  0
C  C76  1  0.57356688  0.80233197  0.07841352  1  0.647805  0  0.15823  0.300232  0  4.044732  0
C  C77  1  0.57194236  0.90125614  0.07702155  1  0.007567  0  -0.081768  -0.233031  0  3.917848  0
C  C78  1  0.42972111  0.19805450  0.01209765  1  0.667186  0  0.15808  0.298325  0  4.046749  0
C  C79  1  0.43130163  0.09904622  0.01301318  1  0.065856  0  -0.081021  -0.233242  0  3.916778  0
C  C80  1  0.55823235  0.20765656  0.06945773  1  0.497608  0  0.066912  0.129653  0  3.896143  0
C  C81  1  0.56500699  0.10980048  0.07241774  1  -0.051663  0  -0.078736  -0.179343  0  3.933733  0
C  C82  1  0.44701805  0.79175079  0.02015103  1  0.51953  0  0.065811  0.131274  0  3.896518  0
C  C83  1  0.44065031  0.88954640  0.01653528  1  -0.036707  0  -0.07918  -0.180745  0  3.929016  0
C  C84  1  0.50411878  0.94733354  0.04565577  1  0.01244  0  0.018177  0.126541  0  3.965786  0
C  C85  1  0.50025916  0.05243242  0.04367629  1  -0.062674  0  0.019264  0.12606  0  3.967544  0
C  C86  1  0.10924116  0.58544499  0.04562252  1  0.11391  0  -0.010221  0.135092  0  3.977714  0
C  C87  1  0.89361310  0.41584125  0.04533694  1  0.01944  0  -0.098136  -0.146012  0  3.989557  0
C  C88  1  0.18073577  0.51047147  0.04621591  1  -0.135285  0  -0.029617  -0.181342  0  3.924827  0
C  C89  1  0.82236759  0.49014357  0.04488293  1  -0.188358  0  -0.026378  -0.106328  0  3.97439  0
C  C90  1  0.99830879  0.44955088  0.04537951  1  -0.12821  0  -0.029615  -0.006606  0  4.101086  0
C  C91  1  0.00515562  0.54939587  0.04509742  1  -0.238816  0  -0.029205  -0.08292  0  4.053384  0
C  C92  1  0.50131719  0.68765165  0.33412426  1  -0.048516  0  -0.23553  -0.390341  0  3.979725  0
C  C93  1  0.13624239  0.31274752  0.49946976  1  -0.051529  0  -0.235469  -0.390713  0  3.977709  0
C  C94  1  0.13601522  0.68886388  0.04533201  1  -0.076474  0  -0.235387  -0.38943  0  3.978472  0
S  S95  1  0.50025611  0.39764243  0.32591077  1  0.233488  0  0.05074  0.084885  0  2.810636  0
S  S96  1  0.50193836  0.59963173  0.21887778  1  0.205459  0  0.056188  0.091482  0  2.815767  0
S  S97  1  0.12036920  0.60278395  0.49912883  1  0.22395  0  0.049406  0.081481  0  2.808399  0
S  S98  1  0.88168829  0.40053728  0.49972665  1  0.248027  0  0.058855  0.095377  0  2.815401  0
S  S99  1  0.12181362  0.39884626  0.04593955  1  0.237517  0  0.050426  0.082729  0  2.805664  0
S  S100  1  0.88196505  0.60114230  0.04444608  1  0.234114  0  0.058285  0.094377  0  2.815983  0
N  N101  1  0.51228752  0.25171356  0.49369184  1  -1.218413  0  -0.309183  -0.239858  0  3.446746  0
N  N102  1  0.48965323  0.74795202  0.50434646  1  -1.228176  0  -0.309181  -0.243037  0  3.449331  0
N  N103  1  0.51217966  0.74806051  0.05079315  1  -1.201369  0  -0.30977  -0.242026  0  3.447537  0
N  N104  1  0.49163123  0.25195142  0.03966140  1  -1.229408  0  -0.308952  -0.242925  0  3.450545  0
Cl  Cl105  1  0.65923876  0.25141009  0.42781268  1  -0.127657  0  0.044974  -0.035857  0  1.520745  0
Cl  Cl106  1  0.34278537  0.74772497  0.57030921  1  -0.143142  0  0.047064  -0.033143  0  1.504573  0
Cl  Cl107  1  0.50268582  0.28573108  0.65036794  1  -0.217244  0  -0.034648  -0.108325  0  1.49087  0
Cl  Cl108  1  0.50573085  0.71324768  0.89415336  1  -0.21694  0  -0.034421  -0.108171  0  1.489533  0
Cl  Cl109  1  0.65747383  0.74765828  0.11696595  1  -0.134326  0  0.044502  -0.037144  0  1.521306  0
Cl  Cl110  1  0.34492937  0.25339644  0.97409488  1  -0.131817  0  0.047012  -0.033856  0  1.504931  0
O  O111  1  0.49383593  0.40574188  0.56844502  1  -1.154575  0  -0.316633  -0.546521  0  2.391309  0
O  O112  1  0.50825122  0.56564574  0.57215241  1  -1.165831  0  -0.321584  -0.558697  0  2.354885  0
O  O113  1  0.34182914  0.56844174  0.49904729  1  -1.160768  0  -0.330226  -0.568563  0  2.384991  0
O  O114  1  0.34049266  0.40683806  0.49685588  1  -1.158915  0  -0.313248  -0.532599  0  2.302242  0
O  O115  1  0.50194569  0.59157142  0.42696307  1  -1.163245  0  -0.314849  -0.538972  0  2.29134  0
O  O116  1  0.49982144  0.42996184  0.42516004  1  -1.16051  0  -0.32925  -0.564216  0  2.386828  0
O  O117  1  0.65953603  0.43484082  0.50054580  1  -1.162897  0  -0.325311  -0.560644  0  2.373584  0
O  O118  1  0.66090821  0.59630474  0.49782104  1  -1.171188  0  -0.32276  -0.545954  0  2.287582  0
O  O119  1  0.49164878  0.59309221  0.97607974  1  -1.161171  0  -0.316915  -0.547688  0  2.38927  0
O  O120  1  0.51126807  0.43358013  0.97234731  1  -1.168135  0  -0.321872  -0.559033  0  2.351734  0
O  O121  1  0.34334075  0.43325510  0.04551734  1  -1.176189  0  -0.329415  -0.567806  0  2.381668  0
O  O122  1  0.34075420  0.59474652  0.04924304  1  -1.159647  0  -0.31373  -0.532644  0  2.300527  0
O  O123  1  0.50113709  0.40446056  0.11806341  1  -1.16386  0  -0.321444  -0.544664  0  2.271223  0
O  O124  1  0.50250124  0.56614821  0.11898108  1  -1.163188  0  -0.328072  -0.563973  0  2.388472  0
O  O125  1  0.66015911  0.56707902  0.04262764  1  -1.163261  0  -0.325819  -0.559655  0  2.373309  0
O  O126  1  0.66193710  0.40582608  0.04727958  1  -1.160206  0  -0.321865  -0.543997  0  2.286258  0
