# generated using pymatgen
data_ZnH15C23N3(ClO)4
_symmetry_space_group_name_H-M   'P 1'
_cell_length_a   8.75808706
_cell_length_b   8.89178140
_cell_length_c   17.80732079
_cell_angle_alpha   89.32971551
_cell_angle_beta   75.74477647
_cell_angle_gamma   60.46497204
_symmetry_Int_Tables_number   1
_chemical_formula_structural   ZnH15C23N3(ClO)4
_chemical_formula_sum   'Zn2 H30 C46 N6 Cl8 O8'
_cell_volume   1159.45739254
_cell_formula_units_Z   2
loop_
 _symmetry_equiv_pos_site_id
 _symmetry_equiv_pos_as_xyz
  1  'x, y, z'
loop_
 _atom_site_type_symbol
 _atom_site_label
 _atom_site_symmetry_multiplicity
 _atom_site_fract_x
 _atom_site_fract_y
 _atom_site_fract_z
 _atom_site_occupancy
 _atom_site_hle17_bader_spin_density
 _atom_site_hle17_ddec_charge
 _atom_site_hle17_ddec_spin_density
 _atom_site_hle17_ddec_sum_bond_order
 _atom_site_hle17_magmom
 _atom_site_hse06_10hf_bader_spin_density
 _atom_site_hse06_10hf_ddec_charge
 _atom_site_hse06_10hf_ddec_spin_density
 _atom_site_hse06_10hf_ddec_sum_bond_order
 _atom_site_hse06_10hf_magmom
 _atom_site_hse06_bader_spin_density
 _atom_site_hse06_ddec_charge
 _atom_site_hse06_ddec_spin_density
 _atom_site_hse06_ddec_sum_bond_order
 _atom_site_hse06_magmom
 _atom_site_pbe_bader_spin_density
 _atom_site_pbe_cm5_charge
 _atom_site_pbe_ddec_charge
 _atom_site_pbe_ddec_spin_density
 _atom_site_pbe_ddec_sum_bond_order
 _atom_site_pbe_magmom
Zn  Zn0  1  0.80896623  0.24985971  0.74994938  1  0  0.973428  0  1.831944  0  0  0.777184  0  2.285821  0  0  0.825967  0  2.23448  0  0  0.688579  0.743278  0  2.320834  0
Zn  Zn1  1  0.19101617  0.75013500  0.25004538  1  0  0.973402  0  1.831933  0  0  0.777241  0  2.28569  0  0  0.826028  0  2.23434  0  0  0.688624  0.74333  0  2.320727  0
H  H2  1  0.16185129  0.15182582  0.63262669  1  0  0.083965  0  0.974784  0  0  0.084855  0  1.05271  0  0  0.088392  0  1.048666  0  0  0.108151  0.082264  0  1.055586  0
H  H3  1  0.94610689  0.34731583  0.86751974  1  0  0.084383  0  0.974123  0  0  0.085915  0  1.051277  0  0  0.089552  0  1.04711  0  0  0.108229  0.083209  0  1.054319  0
H  H4  1  0.83811598  0.84818140  0.36738040  1  0  0.083995  0  0.97453  0  0  0.08486  0  1.052524  0  0  0.088398  0  1.048476  0  0  0.108151  0.082266  0  1.055395  0
H  H5  1  0.05387403  0.65269178  0.13248415  1  0  0.08425  0  0.973915  0  0  0.085818  0  1.051097  0  0  0.089438  0  1.046947  0  0  0.108213  0.083109  0  1.054151  0
H  H6  1  0.45500677  0.14377084  0.62795766  1  0  0.094986  0  0.980977  0  0  0.098157  0  1.054013  0  0  0.101261  0  1.053193  0  0  0.094736  0.095918  0  1.054775  0
H  H7  1  0.22588445  0.35662726  0.87223208  1  0  0.094616  0  0.982445  0  0  0.097876  0  1.055273  0  0  0.100977  0  1.054471  0  0  0.094624  0.095622  0  1.05604  0
H  H8  1  0.54496533  0.85623151  0.37204588  1  0  0.094949  0  0.980884  0  0  0.098117  0  1.053954  0  0  0.101222  0  1.053138  0  0  0.094725  0.095874  0  1.054721  0
H  H9  1  0.77408335  0.64339944  0.12777069  1  0  0.094576  0  0.982483  0  0  0.097867  0  1.055318  0  0  0.100966  0  1.05452  0  0  0.094633  0.095632  0  1.056074  0
H  H10  1  0.48595534  0.25056395  0.75008184  1  0  0.110314  0  0.971334  0  0  0.120314  0  1.033078  0  0  0.123876  0  1.029189  0  0  0.108727  0.117537  0  1.036085  0
H  H11  1  0.51401866  0.74945925  0.24991768  1  0  0.110291  0  0.971431  0  0  0.120297  0  1.033171  0  0  0.123867  0  1.029274  0  0  0.108766  0.117529  0  1.036191  0
H  H12  1  0.14721638  0.91114076  0.76836320  1  0  0.07196  0  0.95729  0  0  0.078877  0  1.026074  0  0  0.080663  0  1.025651  0  0  0.108856  0.077556  0  1.026446  0
H  H13  1  0.82709171  0.58860472  0.73147245  1  0  0.071926  0  0.9571  0  0  0.078984  0  1.025825  0  0  0.080785  0  1.025375  0  0  0.108678  0.077665  0  1.026187  0
H  H14  1  0.85273468  0.08887723  0.23165465  1  0  0.072032  0  0.957268  0  0  0.07883  0  1.02624  0  0  0.080605  0  1.025834  0  0  0.108844  0.07752  0  1.026603  0
H  H15  1  0.17290693  0.41139202  0.26851571  1  0  0.071996  0  0.957145  0  0  0.078972  0  1.025962  0  0  0.080762  0  1.025536  0  0  0.108678  0.077663  0  1.026296  0
H  H16  1  0.31574999  0.59149522  0.72157256  1  0  0.106766  0  0.959953  0  0  0.114889  0  1.023635  0  0  0.11759  0  1.023884  0  0  0.101964  0.112866  0  1.023705  0
H  H17  1  0.62898024  0.90824005  0.77841151  1  0  0.107015  0  0.959183  0  0  0.114887  0  1.023264  0  0  0.117657  0  1.02341  0  0  0.101934  0.112898  0  1.023286  0
H  H18  1  0.68426904  0.40851973  0.27844373  1  0  0.106879  0  0.959904  0  0  0.115001  0  1.023586  0  0  0.117704  0  1.023833  0  0  0.10202  0.113022  0  1.023604  0
H  H19  1  0.37102657  0.09175985  0.22157869  1  0  0.106998  0  0.959157  0  0  0.114929  0  1.023155  0  0  0.117698  0  1.023302  0  0  0.101961  0.112945  0  1.023184  0
H  H20  1  0.21059707  0.48372738  0.62661905  1  0  0.089365  0  0.956361  0  0  0.103802  0  1.010959  0  0  0.104911  0  1.012084  0  0  0.103155  0.102968  0  1.010237  0
H  H21  1  0.32111923  0.01595814  0.87352195  1  0  0.090031  0  0.955423  0  0  0.104308  0  1.010211  0  0  0.105423  0  1.011329  0  0  0.103414  0.103466  0  1.009461  0
H  H22  1  0.78948920  0.51624288  0.37338541  1  0  0.089312  0  0.956242  0  0  0.10374  0  1.010847  0  0  0.104848  0  1.011973  0  0  0.103148  0.102908  0  1.010119  0
H  H23  1  0.67889858  0.98404594  0.12647398  1  0  0.090105  0  0.955273  0  0  0.104352  0  1.010097  0  0  0.105476  0  1.011208  0  0  0.103446  0.103511  0  1.009347  0
H  H24  1  0.94437699  0.70028121  0.58063231  1  0  0.116246  0  0.949526  0  0  0.123315  0  1.011423  0  0  0.127417  0  1.008912  0  0  0.104579  0.120345  0  1.013403  0
H  H25  1  0.22543523  0.79948413  0.91942287  1  0  0.116614  0  0.947741  0  0  0.123489  0  1.009782  0  0  0.12756  0  1.007298  0  0  0.104755  0.120525  0  1.011766  0
H  H26  1  0.05571690  0.29964139  0.41935423  1  0  0.116168  0  0.949579  0  0  0.123195  0  1.011554  0  0  0.127293  0  1.009041  0  0  0.104538  0.120227  0  1.013534  0
H  H27  1  0.77457988  0.20053145  0.08058645  1  0  0.116687  0  0.947754  0  0  0.123488  0  1.009851  0  0  0.12756  0  1.007366  0  0  0.10476  0.120521  0  1.011832  0
H  H28  1  0.79046631  0.01640616  0.63421337  1  0  0.066478  0  0.991759  0  0  0.070957  0  1.065498  0  0  0.073115  0  1.064037  0  0  0.102738  0.069345  0  1.066628  0
H  H29  1  0.44133349  0.48343351  0.86568498  1  0  0.066531  0  0.993504  0  0  0.071416  0  1.06654  0  0  0.073486  0  1.065143  0  0  0.102741  0.069868  0  1.067609  0
H  H30  1  0.20956892  0.98353142  0.36576660  1  0  0.066404  0  0.992123  0  0  0.070997  0  1.065713  0  0  0.073153  0  1.064257  0  0  0.102694  0.069394  0  1.066829  0
H  H31  1  0.55866928  0.51658023  0.13432697  1  0  0.066517  0  0.993423  0  0  0.071417  0  1.066448  0  0  0.073482  0  1.065058  0  0  0.102756  0.069865  0  1.067522  0
C  C32  1  0.18471500  0.19257904  0.68424746  1  0  0.123134  0  3.697491  0  0  0.089098  0  3.948968  0  0  0.096891  0  3.965725  0  0  0.044807  0.084143  0  3.937616  0
C  C33  1  0.06144549  0.30685487  0.81592091  1  0  0.122737  0  3.695775  0  0  0.088327  0  3.947154  0  0  0.096041  0  3.963883  0  0  0.04479  0.083438  0  3.935804  0
C  C34  1  0.81525292  0.80742689  0.31575963  1  0  0.123264  0  3.697085  0  0  0.089204  0  3.948562  0  0  0.097001  0  3.965319  0  0  0.044889  0.084252  0  3.937199  0
C  C35  1  0.93852316  0.69315713  0.18408479  1  0  0.12293  0  3.695569  0  0  0.088417  0  3.947044  0  0  0.096149  0  3.963785  0  0  0.044843  0.083531  0  3.935695  0
C  C36  1  0.34552919  0.19029713  0.68224798  1  0  -0.124756  0  3.734796  0  0  -0.131707  0  3.982563  0  0  -0.140067  0  4.004231  0  0  -0.087214  -0.126391  0  3.968016  0
C  C37  1  0.21764447  0.30978233  0.81794029  1  0  -0.124729  0  3.735471  0  0  -0.13178  0  3.983327  0  0  -0.140153  0  4.005048  0  0  -0.087637  -0.126432  0  3.968735  0
C  C38  1  0.65444032  0.80971153  0.31775501  1  0  -0.124874  0  3.734644  0  0  -0.13182  0  3.982442  0  0  -0.140183  0  4.004117  0  0  -0.087329  -0.126494  0  3.967887  0
C  C39  1  0.78231690  0.69023938  0.18206314  1  0  -0.124592  0  3.73545  0  0  -0.13169  0  3.983415  0  0  -0.140061  0  4.005136  0  0  -0.087664  -0.126355  0  3.968814  0
C  C40  1  0.36220338  0.25024451  0.75008477  1  0  0.00979  0  3.685614  0  0  -0.012242  0  3.932405  0  0  -0.006796  0  3.948421  0  0  -0.06391  -0.015407  0  3.921466  0
C  C41  1  0.63775928  0.74977348  0.24991923  1  0  0.009753  0  3.685637  0  0  -0.012288  0  3.932511  0  0  -0.00684  0  3.948504  0  0  -0.063911  -0.015472  0  3.921599  0
C  C42  1  0.10573722  0.85886142  0.72729934  1  0  0.113555  0  3.732261  0  0  0.079391  0  3.990043  0  0  0.085906  0  4.008875  0  0  0.036446  0.075225  0  3.977204  0
C  C43  1  0.69219240  0.64089323  0.77259391  1  0  0.113973  0  3.730754  0  0  0.079915  0  3.988002  0  0  0.086406  0  4.006877  0  0  0.036668  0.075758  0  3.975174  0
C  C44  1  0.89425439  0.14113226  0.27271021  1  0  0.113534  0  3.732414  0  0  0.079443  0  3.990153  0  0  0.085962  0  4.008983  0  0  0.036563  0.075273  0  3.977327  0
C  C45  1  0.30780149  0.35910781  0.22740035  1  0  0.113974  0  3.730866  0  0  0.079964  0  3.988126  0  0  0.086456  0  4.006987  0  0  0.036653  0.075811  0  3.975307  0
C  C46  1  0.19786768  0.68104055  0.70175253  1  0  -0.128821  0  3.747383  0  0  -0.14048  0  4.000943  0  0  -0.148197  0  4.024184  0  0  -0.091389  -0.135446  0  3.985348  0
C  C47  1  0.58086806  0.81870847  0.79822907  1  0  -0.128099  0  3.746893  0  0  -0.139814  0  4.000581  0  0  -0.147552  0  4.02379  0  0  -0.091138  -0.134816  0  3.984964  0
C  C48  1  0.80215384  0.31895814  0.29825646  1  0  -0.128958  0  3.747362  0  0  -0.140645  0  4.000963  0  0  -0.148359  0  4.024188  0  0  -0.091465  -0.135651  0  3.985362  0
C  C49  1  0.41913004  0.18130065  0.20176637  1  0  -0.12816  0  3.746821  0  0  -0.139897  0  4.00046  0  0  -0.147635  0  4.023669  0  0  -0.091178  -0.134916  0  3.984863  0
C  C50  1  0.13944263  0.62165216  0.64882747  1  0  -0.002176  0  3.71788  0  0  -0.020232  0  3.962691  0  0  -0.017801  0  3.984223  0  0  -0.069599  -0.021471  0  3.947896  0
C  C51  1  0.41009107  0.87808355  0.85123088  1  0  -0.003507  0  3.717467  0  0  -0.02138  0  3.962158  0  0  -0.018978  0  3.983716  0  0  -0.069781  -0.022579  0  3.947342  0
C  C52  1  0.86062434  0.37831223  0.35117447  1  0  -0.001972  0  3.717657  0  0  -0.019972  0  3.9624  0  0  -0.017538  0  3.983923  0  0  -0.069507  -0.021214  0  3.947622  0
C  C53  1  0.58991483  0.12192399  0.14876815  1  0  -0.003521  0  3.717084  0  0  -0.021364  0  3.961731  0  0  -0.01897  0  3.9833  0  0  -0.069788  -0.022562  0  3.946917  0
C  C54  1  0.99041330  0.74131321  0.62367192  1  0  -0.118802  0  3.721339  0  0  -0.128853  0  3.969867  0  0  -0.136094  0  3.990729  0  0  -0.084801  -0.124248  0  3.955895  0
C  C55  1  0.35558965  0.75844942  0.87635314  1  0  -0.118295  0  3.717656  0  0  -0.128199  0  3.966207  0  0  -0.135426  0  3.987071  0  0  -0.085195  -0.123593  0  3.952215  0
C  C56  1  0.00965888  0.25862374  0.37631970  1  0  -0.118842  0  3.721731  0  0  -0.128891  0  3.970261  0  0  -0.136126  0  3.991133  0  0  -0.084853  -0.124275  0  3.956264  0
C  C57  1  0.64442025  0.24156598  0.12365091  1  0  -0.118415  0  3.717656  0  0  -0.12819  0  3.966133  0  0  -0.135412  0  3.986984  0  0  -0.085175  -0.123577  0  3.952131  0
C  C58  1  0.90570940  0.91668530  0.65251392  1  0  0.120932  0  3.708833  0  0  0.090352  0  3.958624  0  0  0.096652  0  3.977545  0  0  0.037974  0.086325  0  3.945789  0
C  C59  1  0.47515305  0.58312210  0.84742271  1  0  0.120425  0  3.710927  0  0  0.089633  0  3.960464  0  0  0.095999  0  3.979374  0  0  0.03791  0.085565  0  3.947623  0
C  C60  1  0.09432617  0.08326844  0.34747762  1  0  0.120911  0  3.709535  0  0  0.090279  0  3.959267  0  0  0.096573  0  3.978183  0  0  0.038045  0.08625  0  3.946446  0
C  C61  1  0.52484507  0.41688848  0.15258254  1  0  0.120475  0  3.710904  0  0  0.089626  0  3.960452  0  0  0.095991  0  3.979367  0  0  0.037862  0.085564  0  3.947605  0
C  C62  1  0.75821919  0.34480429  0.59564386  1  0  0.657847  0  3.955782  0  0  0.603949  0  4.268049  0  0  0.638172  0  4.2587  0  0  0.194893  0.580702  0  4.273537  0
C  C63  1  0.69811976  0.15541448  0.90417275  1  0  0.6574  0  3.956352  0  0  0.604338  0  4.2673  0  0  0.638553  0  4.257918  0  0  0.195204  0.581084  0  4.27283  0
C  C64  1  0.24177195  0.65519173  0.40435093  1  0  0.657757  0  3.955902  0  0  0.603806  0  4.268248  0  0  0.638028  0  4.258903  0  0  0.194835  0.580575  0  4.273714  0
C  C65  1  0.30187149  0.84459490  0.09582820  1  0  0.65736  0  3.95639  0  0  0.60432  0  4.267308  0  0  0.638534  0  4.257927  0  0  0.19524  0.581086  0  4.272812  0
C  C66  1  0.40550002  0.67981633  0.49983277  1  0  0.052081  0  3.788503  0  0  0.046119  0  4.068533  0  0  0.049166  0  4.087678  0  0  0.004808  0.043882  0  4.055947  0
C  C67  1  0.58555305  0.82017435  0.00018682  1  0  0.051435  0  3.787135  0  0  0.044955  0  4.068332  0  0  0.048016  0  4.087444  0  0  0.004511  0.042688  0  4.055796  0
C  C68  1  0.59449728  0.32019071  0.50015982  1  0  0.052162  0  3.78839  0  0  0.046137  0  4.068461  0  0  0.049186  0  4.087607  0  0  0.004896  0.043863  0  4.055926  0
C  C69  1  0.41445083  0.17982743  0.99981472  1  0  0.051381  0  3.78727  0  0  0.044912  0  4.068418  0  0  0.047973  0  4.08753  0  0  0.00449  0.042653  0  4.055873  0
C  C70  1  0.62731500  0.42425673  0.54476618  1  0  -0.118434  0  3.713587  0  0  -0.116699  0  3.968682  0  0  -0.119193  0  3.984192  0  0  -0.01862  -0.115418  0  3.958681  0
C  C71  1  0.59606971  0.07585721  0.95513319  1  0  -0.116229  0  3.709351  0  0  -0.114737  0  3.964453  0  0  -0.117219  0  3.979936  0  0  -0.017831  -0.113467  0  3.954481  0
C  C72  1  0.37269095  0.57574878  0.45522559  1  0  -0.118397  0  3.713548  0  0  -0.11668  0  3.96867  0  0  -0.11917  0  3.984178  0  0  -0.018637  -0.115422  0  3.958663  0
C  C73  1  0.40393425  0.92414740  0.04486922  1  0  -0.116243  0  3.709274  0  0  -0.114746  0  3.964336  0  0  -0.117229  0  3.979818  0  0  -0.017796  -0.113474  0  3.954357  0
C  C74  1  0.53275570  0.60481462  0.54350501  1  0  0.063431  0  3.786092  0  0  0.057961  0  4.064657  0  0  0.061561  0  4.082872  0  0  0.00734  0.055305  0  4.052726  0
C  C75  1  0.68122427  0.89529099  0.95643327  1  0  0.063378  0  3.785562  0  0  0.05807  0  4.06437  0  0  0.061666  0  4.082581  0  0  0.007366  0.055407  0  4.052463  0
C  C76  1  0.46724823  0.39518741  0.45648816  1  0  0.063171  0  3.786151  0  0  0.057771  0  4.064654  0  0  0.061368  0  4.082871  0  0  0.007248  0.055127  0  4.052731  0
C  C77  1  0.31877896  0.10471435  0.04356715  1  0  0.063356  0  3.785642  0  0  0.058082  0  4.064381  0  0  0.061678  0  4.082591  0  0  0.007343  0.055416  0  4.05247  0
N  N78  1  0.04560169  0.24957051  0.75007912  1  0  -0.338033  0  3.325198  0  0  -0.248621  0  3.595472  0  0  -0.268308  0  3.610323  0  0  -0.33115  -0.235466  0  3.585239  0
N  N79  1  0.95436855  0.75043514  0.24992698  1  0  -0.338194  0  3.325304  0  0  -0.248649  0  3.595443  0  0  -0.26834  0  3.610278  0  0  -0.331178  -0.235495  0  3.585216  0
N  N80  1  0.96243554  0.97503331  0.70299249  1  0  -0.328851  0  3.287279  0  0  -0.248937  0  3.55235  0  0  -0.267349  0  3.56968  0  0  -0.325756  -0.236492  0  3.540414  0
N  N81  1  0.64078510  0.52474289  0.79688564  1  0  -0.329945  0  3.288287  0  0  -0.250202  0  3.553547  0  0  -0.268599  0  3.570837  0  0  -0.325685  -0.237783  0  3.541678  0
N  N82  1  0.03756066  0.02495156  0.29700867  1  0  -0.32886  0  3.287582  0  0  -0.248966  0  3.552655  0  0  -0.267377  0  3.569992  0  0  -0.325849  -0.236529  0  3.540736  0
N  N83  1  0.35921024  0.47526008  0.20311091  1  0  -0.329992  0  3.288319  0  0  -0.250205  0  3.553512  0  0  -0.268601  0  3.570798  0  0  -0.325687  -0.237784  0  3.541641  0
Cl  Cl84  1  0.57026645  0.73567304  0.59828100  1  0  -0.05445  0  1.42654  0  0  -0.037869  0  1.66607  0  0  -0.040424  0  1.662424  0  0  0.024905  -0.03606  0  1.668764  0
Cl  Cl85  1  0.90456037  0.76459529  0.90161322  1  0  -0.054858  0  1.427858  0  0  -0.038302  0  1.667419  0  0  -0.040853  0  1.663778  0  0  0.02474  -0.036488  0  1.670113  0
Cl  Cl86  1  0.42972687  0.26433552  0.40171244  1  0  -0.05433  0  1.426576  0  0  -0.037762  0  1.666079  0  0  -0.040312  0  1.662427  0  0  0.024964  -0.035954  0  1.66877  0
Cl  Cl87  1  0.09543708  0.23541059  0.09838448  1  0  -0.054855  0  1.427792  0  0  -0.038317  0  1.667322  0  0  -0.040868  0  1.663674  0  0  0.02472  -0.036505  0  1.670017  0
Cl  Cl88  1  0.28042520  0.90365960  0.50382414  1  0  -0.030266  0  1.460463  0  0  -0.014345  0  1.714262  0  0  -0.01607  0  1.7084  0  0  0.046675  -0.013183  0  1.718509  0
Cl  Cl89  1  0.68868359  0.59636664  0.99621951  1  0  -0.030265  0  1.460454  0  0  -0.014179  0  1.714497  0  0  -0.015905  0  1.70861  0  0  0.046635  -0.013005  0  1.718767  0
Cl  Cl90  1  0.71956091  0.09635015  0.49617353  1  0  -0.030267  0  1.460383  0  0  -0.014299  0  1.714138  0  0  -0.016021  0  1.70827  0  0  0.04667  -0.013128  0  1.718406  0
Cl  Cl91  1  0.31131718  0.40363787  0.00377792  1  0  -0.030292  0  1.460426  0  0  -0.014203  0  1.714452  0  0  -0.015929  0  1.708558  0  0  0.046611  -0.013031  0  1.718719  0
O  O92  1  0.91737573  0.31484571  0.57124427  1  0  -0.585841  0  1.885179  0  0  -0.546396  0  2.100701  0  0  -0.569584  0  2.092787  0  0  -0.319572  -0.529688  0  2.105374  0
O  O93  1  0.80265104  0.18577109  0.92855479  1  0  -0.586022  0  1.88437  0  0  -0.546803  0  2.099529  0  0  -0.569998  0  2.091576  0  0  -0.31952  -0.530074  0  2.104224  0
O  O94  1  0.08260673  0.68517233  0.42875995  1  0  -0.585767  0  1.885313  0  0  -0.546285  0  2.100858  0  0  -0.56948  0  2.092956  0  0  -0.319501  -0.529579  0  2.105523  0
O  O95  1  0.19732703  0.81426280  0.07145061  1  0  -0.585999  0  1.884426  0  0  -0.546788  0  2.09958  0  0  -0.569977  0  2.091618  0  0  -0.319517  -0.530066  0  2.10427  0
O  O96  1  0.68211335  0.31824158  0.66229073  1  0  -0.645913  0  2.056227  0  0  -0.574317  0  2.327155  0  0  -0.604097  0  2.314422  0  0  -0.32625  -0.553206  0  2.335025  0
O  O97  1  0.66224897  0.18166134  0.83750826  1  0  -0.646373  0  2.057655  0  0  -0.575176  0  2.328228  0  0  -0.604941  0  2.315472  0  0  -0.326489  -0.554076  0  2.336127  0
O  O98  1  0.31788505  0.68173647  0.33769990  1  0  -0.645819  0  2.056177  0  0  -0.574337  0  2.32731  0  0  -0.604119  0  2.314583  0  0  -0.326268  -0.553236  0  2.335186  0
O  O99  1  0.33775706  0.81833111  0.16249226  1  0  -0.646319  0  2.057561  0  0  -0.575147  0  2.328087  0  0  -0.604913  0  2.315332  0  0  -0.326525  -0.55406  0  2.335995  0
