# generated using pymatgen
data_AgH14C17N3O4
_symmetry_space_group_name_H-M   'P 1'
_cell_length_a   7.58921321
_cell_length_b   9.03527239
_cell_length_c   11.76417376
_cell_angle_alpha   72.21102570
_cell_angle_beta   85.48214800
_cell_angle_gamma   89.80256434
_symmetry_Int_Tables_number   1
_chemical_formula_structural   AgH14C17N3O4
_chemical_formula_sum   'Ag2 H28 C34 N6 O8'
_cell_volume   765.54059017
_cell_formula_units_Z   2
loop_
 _symmetry_equiv_pos_site_id
 _symmetry_equiv_pos_as_xyz
  1  'x, y, z'
loop_
 _atom_site_type_symbol
 _atom_site_label
 _atom_site_symmetry_multiplicity
 _atom_site_fract_x
 _atom_site_fract_y
 _atom_site_fract_z
 _atom_site_occupancy
 _atom_site_hle17_bader_spin_density
 _atom_site_hle17_ddec_charge
 _atom_site_hle17_ddec_spin_density
 _atom_site_hle17_ddec_sum_bond_order
 _atom_site_hle17_magmom
 _atom_site_hse06_10hf_bader_spin_density
 _atom_site_hse06_10hf_ddec_charge
 _atom_site_hse06_10hf_ddec_spin_density
 _atom_site_hse06_10hf_ddec_sum_bond_order
 _atom_site_hse06_10hf_magmom
 _atom_site_hse06_bader_spin_density
 _atom_site_hse06_ddec_charge
 _atom_site_hse06_ddec_spin_density
 _atom_site_hse06_ddec_sum_bond_order
 _atom_site_hse06_magmom
 _atom_site_pbe_bader_spin_density
 _atom_site_pbe_cm5_charge
 _atom_site_pbe_ddec_charge
 _atom_site_pbe_ddec_spin_density
 _atom_site_pbe_ddec_sum_bond_order
 _atom_site_pbe_magmom
Ag  Ag0  1  0.39662656  0.77295573  0.28199679  1  0  0.578376  0  1.344644  0  0  0.430129  0  1.78402  0  0  0.463157  0  1.735314  0  0  0.4565  0.407745  0  1.818809  0
Ag  Ag1  1  0.60337453  0.22705081  0.71800571  1  0  0.578363  0  1.344694  0  0  0.430135  0  1.784058  0  0  0.463164  0  1.735348  0  0  0.456504  0.407759  0  1.818848  0
H  H2  1  0.58821131  0.09482241  0.04265238  1  0  0.382508  0  0.899358  0  0  0.356203  0  0.970567  0  0  0.367898  0  0.958249  0  0  0.303509  0.348115  0  0.978911  0
H  H3  1  0.41178951  0.90518287  0.95734277  1  0  0.382418  0  0.899366  0  0  0.356123  0  0.970568  0  0  0.367816  0  0.958255  0  0  0.303484  0.348039  0  0.978906  0
H  H4  1  0.99763215  0.88281956  0.26912901  1  0  0.376957  0  0.910401  0  0  0.348825  0  0.984731  0  0  0.360774  0  0.972258  0  0  0.297037  0.340419  0  0.993451  0
H  H5  1  0.00236850  0.11717640  0.73086585  1  0  0.377075  0  0.910261  0  0  0.348936  0  0.984614  0  0  0.360886  0  0.972134  0  0  0.297087  0.340528  0  0.993336  0
H  H6  1  0.26369641  0.33094513  0.58694304  1  0  0.296404  0  0.937699  0  0  0.276239  0  1.010072  0  0  0.284368  0  1.002479  0  0  0.302602  0.270388  0  1.015755  0
H  H7  1  0.73630856  0.66905563  0.41305974  1  0  0.296438  0  0.937672  0  0  0.276342  0  1.00997  0  0  0.284469  0  1.002376  0  0  0.302643  0.270494  0  1.015656  0
H  H8  1  0.89099803  0.39186481  0.86905391  1  0  0.109103  0  0.974188  0  0  0.117536  0  1.042459  0  0  0.121214  0  1.04123  0  0  0.099104  0.114825  0  1.04361  0
H  H9  1  0.10900806  0.60813821  0.13094145  1  0  0.109136  0  0.974204  0  0  0.117563  0  1.042476  0  0  0.121236  0  1.041231  0  0  0.09912  0.114849  0  1.043629  0
H  H10  1  0.20707919  0.38601659  0.91871723  1  0  0.080081  0  0.95365  0  0  0.093658  0  1.011977  0  0  0.095796  0  1.010496  0  0  0.099563  0.091961  0  1.013171  0
H  H11  1  0.79292041  0.61398408  0.08128337  1  0  0.080082  0  0.953648  0  0  0.093696  0  1.011935  0  0  0.095836  0  1.010455  0  0  0.099574  0.091998  0  1.013129  0
H  H12  1  0.30826947  0.17306548  0.09025842  1  0  0.114589  0  0.973574  0  0  0.124786  0  1.036405  0  0  0.128588  0  1.035076  0  0  0.100788  0.122049  0  1.037553  0
H  H13  1  0.69173428  0.82694341  0.90974334  1  0  0.11457  0  0.973578  0  0  0.12477  0  1.03641  0  0  0.128576  0  1.03507  0  0  0.100777  0.122029  0  1.037558  0
H  H14  1  0.12311717  0.41453709  0.71862882  1  0  0.116324  0  0.977784  0  0  0.125741  0  1.041002  0  0  0.128879  0  1.040282  0  0  0.107272  0.123009  0  1.04283  0
H  H15  1  0.87688346  0.58545654  0.28136660  1  0  0.116351  0  0.977797  0  0  0.12577  0  1.041014  0  0  0.128906  0  1.040298  0  0  0.107263  0.123037  0  1.042842  0
H  H16  1  0.01052758  0.63936100  0.78461836  1  0  0.090492  0  0.950619  0  0  0.104496  0  1.008315  0  0  0.105591  0  1.008843  0  0  0.106502  0.103735  0  1.00762  0
H  H17  1  0.98947185  0.36062454  0.21538503  1  0  0.090377  0  0.95071  0  0  0.104382  0  1.008413  0  0  0.105478  0  1.008933  0  0  0.10647  0.103619  0  1.007715  0
H  H18  1  0.04338387  0.90851331  0.63709251  1  0  0.102374  0  0.986592  0  0  0.110227  0  1.051735  0  0  0.113024  0  1.051777  0  0  0.100734  0.108047  0  1.052342  0
H  H19  1  0.95659455  0.09147435  0.36291513  1  0  0.102399  0  0.986558  0  0  0.110227  0  1.051731  0  0  0.113039  0  1.051728  0  0  0.100708  0.108048  0  1.052323  0
H  H20  1  0.18818457  0.93838075  0.43341597  1  0  0.06538  0  0.97501  0  0  0.072906  0  1.045731  0  0  0.075074  0  1.043681  0  0  0.107828  0.071781  0  1.046558  0
H  H21  1  0.81180599  0.06162104  0.56659090  1  0  0.065409  0  0.975078  0  0  0.072942  0  1.045776  0  0  0.075111  0  1.043727  0  0  0.107881  0.071818  0  1.046602  0
H  H22  1  0.35362241  0.15404111  0.51041120  1  0  0.111181  0  0.961319  0  0  0.120014  0  1.025853  0  0  0.123804  0  1.024121  0  0  0.105238  0.117934  0  1.026386  0
H  H23  1  0.64638382  0.84595617  0.48959149  1  0  0.111181  0  0.96138  0  0  0.120036  0  1.025889  0  0  0.123809  0  1.024171  0  0  0.105239  0.117957  0  1.026419  0
H  H24  1  0.48379816  0.08112556  0.33283868  1  0  0.087355  0  0.953151  0  0  0.096785  0  1.019887  0  0  0.099877  0  1.016292  0  0  0.100974  0.093504  0  1.024139  0
H  H25  1  0.51620397  0.91886931  0.66716144  1  0  0.087317  0  0.953185  0  0  0.096704  0  1.019971  0  0  0.099821  0  1.016347  0  0  0.100932  0.093422  0  1.024228  0
H  H26  1  0.54511101  0.29312358  0.13614029  1  0  0.101048  0  0.988726  0  0  0.110786  0  1.049859  0  0  0.113815  0  1.049554  0  0  0.101932  0.108526  0  1.050344  0
H  H27  1  0.45488459  0.70687587  0.86386001  1  0  0.101086  0  0.988705  0  0  0.110825  0  1.049833  0  0  0.113854  0  1.049527  0  0  0.101942  0.108563  0  1.050323  0
H  H28  1  0.46248614  0.56445887  0.12636761  1  0  0.077553  0  0.956104  0  0  0.087071  0  1.017949  0  0  0.089853  0  1.015078  0  0  0.110896  0.085027  0  1.020141  0
H  H29  1  0.53751090  0.43554179  0.87363570  1  0  0.077596  0  0.956064  0  0  0.087108  0  1.017909  0  0  0.089889  0  1.015039  0  0  0.110906  0.085067  0  1.020099  0
C  C30  1  0.87146323  0.06599420  0.11337741  1  0  -0.368953  0  3.77155  0  0  -0.350681  0  4.011552  0  0  -0.370172  0  4.035311  0  0  -0.059638  -0.338159  0  3.995172  0
C  C31  1  0.12854041  0.93401465  0.88662096  1  0  -0.369078  0  3.771542  0  0  -0.350589  0  4.011387  0  0  -0.370078  0  4.035143  0  0  -0.059589  -0.338082  0  3.995028  0
C  C32  1  0.81770292  0.18578158  0.01332524  1  0  0.362997  0  3.8118  0  0  0.346794  0  4.073499  0  0  0.363875  0  4.087194  0  0  0.087011  0.335961  0  4.063466  0
C  C33  1  0.18229404  0.81422253  0.98667385  1  0  0.362982  0  3.811895  0  0  0.346758  0  4.073517  0  0  0.363842  0  4.08721  0  0  0.086986  0.33593  0  4.06349  0
C  C34  1  0.93762968  0.30158525  0.94453447  1  0  -0.243719  0  3.758256  0  0  -0.269875  0  4.024292  0  0  -0.280078  0  4.043166  0  0  -0.128922  -0.263107  0  4.009701  0
C  C35  1  0.06237384  0.69842008  0.05546220  1  0  -0.243801  0  3.758453  0  0  -0.269972  0  4.024521  0  0  -0.280159  0  4.043408  0  0  -0.128964  -0.263205  0  4.009928  0
C  C36  1  0.11289890  0.29640806  0.97299281  1  0  0.002842  0  3.807908  0  0  -0.013931  0  4.067507  0  0  -0.006676  0  4.084078  0  0  -0.087722  -0.018551  0  4.054634  0
C  C37  1  0.88710470  0.70359383  0.02700808  1  0  0.002869  0  3.80794  0  0  -0.013929  0  4.067543  0  0  -0.006679  0  4.084119  0  0  -0.087703  -0.018547  0  4.054666  0
C  C38  1  0.17165924  0.17816429  0.06832131  1  0  -0.233381  0  3.739877  0  0  -0.259772  0  4.003412  0  0  -0.269743  0  4.022014  0  0  -0.127527  -0.252549  0  3.990403  0
C  C39  1  0.82834559  0.82183294  0.93167893  1  0  -0.233386  0  3.739798  0  0  -0.259761  0  4.003365  0  0  -0.269732  0  4.021969  0  0  -0.127511  -0.252532  0  3.990351  0
C  C40  1  0.05165701  0.06349947  0.13835109  1  0  0.36768  0  3.80817  0  0  0.35243  0  4.066779  0  0  0.369265  0  4.081197  0  0  0.087604  0.340977  0  4.056339  0
C  C41  1  0.94834386  0.93650119  0.86164773  1  0  0.367823  0  3.807922  0  0  0.352465  0  4.066582  0  0  0.369301  0  4.080996  0  0  0.087627  0.341015  0  4.056142  0
C  C42  1  0.74463364  0.94808882  0.19058448  1  0  0.668024  0  3.897568  0  0  0.611644  0  4.189679  0  0  0.648027  0  4.182336  0  0  0.200599  0.586899  0  4.194232  0
C  C43  1  0.25536460  0.05191993  0.80941086  1  0  0.668143  0  3.89732  0  0  0.611611  0  4.189549  0  0  0.647994  0  4.182204  0  0  0.200625  0.586863  0  4.194106  0
C  C44  1  0.21600026  0.56016537  0.54144700  1  0  0.425808  0  3.769176  0  0  0.399395  0  4.02372  0  0  0.417556  0  4.039284  0  0  0.227382  0.387759  0  4.012233  0
C  C45  1  0.78399930  0.43983413  0.45855304  1  0  0.425842  0  3.769272  0  0  0.399449  0  4.023832  0  0  0.41761  0  4.039393  0  0  0.227445  0.387817  0  4.012342  0
C  C46  1  0.13465473  0.53334974  0.65873460  1  0  -0.216713  0  3.68161  0  0  -0.231427  0  3.928186  0  0  -0.241804  0  3.948532  0  0  -0.094694  -0.225776  0  3.915857  0
C  C47  1  0.86534340  0.46664739  0.34126354  1  0  -0.216846  0  3.681737  0  0  -0.231564  0  3.928312  0  0  -0.241943  0  3.948664  0  0  -0.094748  -0.225913  0  3.915981  0
C  C48  1  0.07231774  0.65736503  0.69439206  1  0  0.013136  0  3.75539  0  0  -0.005285  0  4.001167  0  0  6.3e-05  0  4.021116  0  0  -0.072506  -0.007981  0  3.987571  0
C  C49  1  0.92767782  0.34262166  0.30561386  1  0  0.013261  0  3.755601  0  0  -0.005151  0  4.00134  0  0  0.000196  0  4.021299  0  0  -0.072494  -0.007847  0  3.987739  0
C  C50  1  0.09010165  0.80748644  0.61290610  1  0  -0.153976  0  3.767787  0  0  -0.166639  0  4.0184  0  0  -0.176171  0  4.042614  0  0  -0.105549  -0.161358  0  4.00279  0
C  C51  1  0.90989400  0.19250724  0.38709899  1  0  -0.154044  0  3.767785  0  0  -0.166688  0  4.018405  0  0  -0.176215  0  4.042629  0  0  -0.105512  -0.161401  0  4.002792  0
C  C52  1  0.17069309  0.82418884  0.49997886  1  0  0.121008  0  3.758972  0  0  0.09469  0  4.004461  0  0  0.102088  0  4.024234  0  0  0.029752  0.09022  0  3.990047  0
C  C53  1  0.82930534  0.17580723  0.50002887  1  0  0.121101  0  3.758838  0  0  0.094807  0  4.00433  0  0  0.102203  0  4.024104  0  0  0.029787  0.090338  0  3.989918  0
C  C54  1  0.34583863  0.39892582  0.41118460  1  0  0.42365  0  3.785059  0  0  0.393549  0  4.046729  0  0  0.411803  0  4.062091  0  0  0.225631  0.381606  0  4.035881  0
C  C55  1  0.65416364  0.60107141  0.58881835  1  0  0.423593  0  3.785075  0  0  0.393501  0  4.046758  0  0  0.41175  0  4.062117  0  0  0.225612  0.381566  0  4.035903  0
C  C56  1  0.38263388  0.24123399  0.42346678  1  0  -0.226006  0  3.713775  0  0  -0.240038  0  3.963907  0  0  -0.250565  0  3.984628  0  0  -0.096485  -0.233047  0  3.949013  0
C  C57  1  0.61736825  0.75876088  0.57653335  1  0  -0.226037  0  3.713777  0  0  -0.240088  0  3.963882  0  0  -0.250598  0  3.984626  0  0  -0.096486  -0.233094  0  3.948983  0
C  C58  1  0.45476543  0.20185114  0.32541833  1  0  0.013343  0  3.755077  0  0  -0.003789  0  4.000526  0  0  0.001678  0  4.019738  0  0  -0.074116  -0.007529  0  3.98864  0
C  C59  1  0.54523674  0.79814837  0.67458067  1  0  0.013471  0  3.755009  0  0  -0.003625  0  4.000424  0  0  0.001824  0  4.019618  0  0  -0.074074  -0.007367  0  3.988539  0
C  C60  1  0.48777090  0.31863123  0.21552923  1  0  -0.152624  0  3.778301  0  0  -0.165734  0  4.027828  0  0  -0.17545  0  4.052645  0  0  -0.1043  -0.159275  0  4.011319  0
C  C61  1  0.51222739  0.68137058  0.78447118  1  0  -0.152754  0  3.778205  0  0  -0.16584  0  4.027661  0  0  -0.175559  0  4.052488  0  0  -0.104322  -0.159381  0  4.011156  0
C  C62  1  0.44423419  0.46927917  0.21011261  1  0  0.114882  0  3.762102  0  0  0.088779  0  4.011731  0  0  0.095698  0  4.031359  0  0  0.030603  0.084067  0  3.998481  0
C  C63  1  0.55576536  0.53071916  0.78988770  1  0  0.114944  0  3.761807  0  0  0.088847  0  4.011442  0  0  0.095767  0  4.031065  0  0  0.030658  0.084139  0  3.998189  0
N  N64  1  0.27727716  0.42966803  0.51401633  1  0  -0.456628  0  3.329676  0  0  -0.401351  0  3.571746  0  0  -0.422866  0  3.579452  0  0  -0.395847  -0.386779  0  3.56589  0
N  N65  1  0.72272635  0.57033266  0.48598231  1  0  -0.456642  0  3.32961  0  0  -0.40143  0  3.571637  0  0  -0.422941  0  3.579341  0  0  -0.395881  -0.386864  0  3.565777  0
N  N66  1  0.23342738  0.70458134  0.46314406  1  0  -0.408333  0  3.228545  0  0  -0.335478  0  3.508037  0  0  -0.356005  0  3.520605  0  0  -0.349208  -0.32051  0  3.49826  0
N  N67  1  0.76656820  0.29542273  0.53685342  1  0  -0.408338  0  3.228638  0  0  -0.335558  0  3.508204  0  0  -0.356087  0  3.520776  0  0  -0.349274  -0.320592  0  3.49843  0
N  N68  1  0.37568133  0.51088911  0.30538120  1  0  -0.413088  0  3.232661  0  0  -0.344953  0  3.522493  0  0  -0.364674  0  3.534034  0  0  -0.350728  -0.331581  0  3.514622  0
N  N69  1  0.62432614  0.48910932  0.69461858  1  0  -0.413108  0  3.232693  0  0  -0.345011  0  3.522597  0  0  -0.364726  0  3.534128  0  0  -0.35076  -0.331651  0  3.514743  0
O  O70  1  0.79709662  0.84537739  0.28274651  1  0  -0.641674  0  2.012144  0  0  -0.580952  0  2.245226  0  0  -0.60459  0  2.232653  0  0  -0.318454  -0.564522  0  2.254127  0
O  O71  1  0.20290017  0.15462666  0.71724750  1  0  -0.641771  0  2.01208  0  0  -0.580975  0  2.245191  0  0  -0.60462  0  2.232634  0  0  -0.318458  -0.564534  0  2.254085  0
O  O72  1  0.58255053  0.95421440  0.16370888  1  0  -0.619669  0  2.121104  0  0  -0.537025  0  2.385666  0  0  -0.566655  0  2.372036  0  0  -0.322753  -0.51668  0  2.395433  0
O  O73  1  0.41744898  0.04578855  0.83628777  1  0  -0.619694  0  2.120962  0  0  -0.537005  0  2.385562  0  0  -0.566634  0  2.371934  0  0  -0.3228  -0.516654  0  2.395323  0
O  O74  1  0.64881658  0.19006362  0.98270103  1  0  -0.527055  0  2.128211  0  0  -0.474016  0  2.355745  0  0  -0.493612  0  2.343283  0  0  -0.348456  -0.459889  0  2.363665  0
O  O75  1  0.35118570  0.80994405  0.01729687  1  0  -0.52692  0  2.128052  0  0  -0.473953  0  2.355674  0  0  -0.493553  0  2.343216  0  0  -0.348445  -0.459802  0  2.363525  0
O  O76  1  0.10858914  0.94985826  0.23193433  1  0  -0.54128  0  2.180436  0  0  -0.481727  0  2.421299  0  0  -0.502713  0  2.408684  0  0  -0.352171  -0.467277  0  2.430337  0
O  O77  1  0.89141293  0.05013891  0.76806270  1  0  -0.541402  0  2.180263  0  0  -0.481865  0  2.421202  0  0  -0.502847  0  2.408582  0  0  -0.352232  -0.467414  0  2.430239  0
