# generated using pymatgen
data_Cd2H26C24N4O11
_symmetry_space_group_name_H-M   'P 1'
_cell_length_a   14.31870587
_cell_length_b   14.68480702
_cell_length_c   22.49584711
_cell_angle_alpha   90.00008084
_cell_angle_beta   99.42257172
_cell_angle_gamma   90.00009099
_symmetry_Int_Tables_number   1
_chemical_formula_structural   Cd2H26C24N4O11
_chemical_formula_sum   'Cd8 H104 C96 N16 O44'
_cell_volume   4666.32369295
_cell_formula_units_Z   4
loop_
 _symmetry_equiv_pos_site_id
 _symmetry_equiv_pos_as_xyz
  1  'x, y, z'
loop_
 _atom_site_type_symbol
 _atom_site_label
 _atom_site_symmetry_multiplicity
 _atom_site_fract_x
 _atom_site_fract_y
 _atom_site_fract_z
 _atom_site_occupancy
 _atom_site_pbe_bader_charge
 _atom_site_pbe_bader_spin_density
 _atom_site_pbe_cm5_charge
 _atom_site_pbe_ddec_charge
 _atom_site_pbe_ddec_spin_density
 _atom_site_pbe_ddec_sum_bond_order
 _atom_site_pbe_magmom
Cd  Cd0  1  0.81760112  0.62927756  0.63789723  1  1.380954  0  0.802711  1.095366  0  2.138373  0
Cd  Cd1  1  0.18239889  0.12927891  0.86210224  1  1.380938  0  0.802718  1.095347  0  2.138382  0
Cd  Cd2  1  0.18239852  0.37072247  0.36210251  1  1.380942  0  0.80271  1.095295  0  2.138375  0
Cd  Cd3  1  0.81760147  0.87072248  0.13789801  1  1.380953  0  0.802711  1.095445  0  2.138262  0
Cd  Cd4  1  0.74107740  0.74749369  0.75839187  1  1.29286  0  0.754522  0.969479  0  2.099799  0
Cd  Cd5  1  0.25892426  0.24749353  0.74160831  1  1.29293  0  0.754506  0.969443  0  2.099769  0
Cd  Cd6  1  0.25892503  0.25250566  0.24160547  1  1.292997  0  0.754525  0.969473  0  2.099789  0
Cd  Cd7  1  0.74107402  0.75250581  0.25839396  1  1.293007  0  0.754508  0.969448  0  2.099792  0
H  H8  1  0.91863808  0.58378057  0.90782025  1  0.141455  0  0.109605  0.108018  0  1.058593  0
H  H9  1  0.08135973  0.08378117  0.59217941  1  0.141478  0  0.109627  0.108045  0  1.058565  0
H  H10  1  0.08135733  0.41621741  0.09217997  1  0.141503  0  0.109627  0.108063  0  1.058616  0
H  H11  1  0.91863991  0.91621885  0.40782033  1  0.141502  0  0.109616  0.108038  0  1.058624  0
H  H12  1  0.02358571  0.47502853  0.75386917  1  0.138552  0  0.107786  0.11397  0  1.025578  0
H  H13  1  0.97641354  0.97502834  0.74613010  1  0.138572  0  0.107786  0.113914  0  1.02559  0
H  H14  1  0.97641039  0.52497150  0.24613022  1  0.138573  0  0.107819  0.113967  0  1.025643  0
H  H15  1  0.02358754  0.02497304  0.25387067  1  0.138593  0  0.107812  0.11395  0  1.025644  0
H  H16  1  0.11839808  0.36183289  0.93007233  1  0.134536  0  0.109816  0.119048  0  1.024518  0
H  H17  1  0.88160024  0.86183218  0.56992630  1  0.134668  0  0.109788  0.119059  0  1.02447  0
H  H18  1  0.88159661  0.63816850  0.06992693  1  0.13446  0  0.109801  0.119092  0  1.024416  0
H  H19  1  0.11840362  0.13816921  0.43007207  1  0.134449  0  0.109785  0.119045  0  1.02448  0
H  H20  1  0.60594834  0.57093337  0.58847537  1  0.101777  0  0.10688  0.105589  0  1.054477  0
H  H21  1  0.39405510  0.07093243  0.91152437  1  0.101839  0  0.106879  0.105582  0  1.054567  0
H  H22  1  0.39405275  0.42906598  0.41152628  1  0.101775  0  0.106845  0.105546  0  1.054521  0
H  H23  1  0.60594735  0.92906691  0.08847386  1  0.101828  0  0.106863  0.105558  0  1.054523  0
H  H24  1  0.50856958  0.47896222  0.74991896  1  0.127966  0  0.112891  0.124275  0  0.995049  0
H  H25  1  0.49143252  0.97896061  0.75008104  1  0.127954  0  0.112899  0.124293  0  0.995088  0
H  H26  1  0.49143153  0.52103168  0.25008359  1  0.128038  0  0.112891  0.124222  0  0.995094  0
H  H27  1  0.50856426  0.02103193  0.24991664  1  0.128051  0  0.112879  0.124256  0  0.995065  0
H  H28  1  0.37876341  0.37647710  0.57682069  1  0.118887  0  0.110184  0.119714  0  1.019637  0
H  H29  1  0.62123920  0.87647879  0.92317926  1  0.118864  0  0.110185  0.119714  0  1.019649  0
H  H30  1  0.62123767  0.62352088  0.42318007  1  0.118872  0  0.110186  0.119728  0  1.019609  0
H  H31  1  0.37876113  0.12351988  0.07681965  1  0.118869  0  0.110162  0.119709  0  1.01963  0
H  H32  1  0.98678959  0.38310688  0.58729208  1  0.045174  0  0.109269  0.165011  0  0.969987  0
H  H33  1  0.01321163  0.88310692  0.91270863  1  0.045157  0  0.109285  0.165018  0  0.969951  0
H  H34  1  0.01321077  0.61689314  0.41270817  1  0.045164  0  0.109262  0.165001  0  0.97003  0
H  H35  1  0.98679015  0.11689447  0.08729176  1  0.045127  0  0.109281  0.165039  0  0.969962  0
H  H36  1  0.03105134  0.40742115  0.66381691  1  0.111617  0  0.106164  0.168077  0  1.011158  0
H  H37  1  0.96894922  0.90742115  0.83618420  1  0.111752  0  0.106156  0.168079  0  1.0111  0
H  H38  1  0.96894761  0.59258024  0.33618365  1  0.111704  0  0.10618  0.168113  0  1.011222  0
H  H39  1  0.03105468  0.09258092  0.16381639  1  0.111667  0  0.106182  0.168095  0  1.011215  0
H  H40  1  0.98558431  0.49739442  0.61363059  1  0.118439  0  0.104584  0.172567  0  0.998008  0
H  H41  1  0.01441572  0.99739372  0.88637056  1  0.118425  0  0.104597  0.172582  0  0.998035  0
H  H42  1  0.01441464  0.50260697  0.38636953  1  0.118464  0  0.104602  0.172573  0  0.998016  0
H  H43  1  0.98558605  0.00260767  0.11362983  1  0.11847  0  0.104619  0.172617  0  0.997993  0
H  H44  1  0.91051249  0.21047266  0.62581148  1  0.058327  0  0.10189  0.11324  0  0.984383  0
H  H45  1  0.08948699  0.71047409  0.87418890  1  0.058321  0  0.101891  0.113233  0  0.984405  0
H  H46  1  0.08948714  0.78952941  0.37418736  1  0.05832  0  0.101899  0.113244  0  0.984388  0
H  H47  1  0.91051410  0.28952934  0.12581276  1  0.058342  0  0.101896  0.113251  0  0.984396  0
H  H48  1  0.90183252  0.21066682  0.70367054  1  0.061763  0  0.107415  0.119084  0  0.98568  0
H  H49  1  0.09816766  0.71066673  0.79632991  1  0.061788  0  0.107411  0.11905  0  0.985724  0
H  H50  1  0.09816639  0.78933389  0.29632779  1  0.061722  0  0.10743  0.119048  0  0.985742  0
H  H51  1  0.90183485  0.28933534  0.20367188  1  0.061721  0  0.107441  0.11907  0  0.985799  0
H  H52  1  0.99246080  0.27489923  0.67828934  1  0.085434  0  0.110222  0.13187  0  1.023074  0
H  H53  1  0.00753880  0.77489974  0.82171111  1  0.085437  0  0.11024  0.131905  0  1.022988  0
H  H54  1  0.00753813  0.72510147  0.32170988  1  0.085426  0  0.11026  0.131962  0  1.023083  0
H  H55  1  0.99246441  0.22510233  0.17829030  1  0.085328  0  0.110249  0.131953  0  1.023095  0
H  H56  1  0.75827870  0.29393373  0.71657612  1  0.028775  0  0.108987  0.119289  0  0.974824  0
H  H57  1  0.24172093  0.79393452  0.78342391  1  0.028783  0  0.108985  0.119275  0  0.974846  0
H  H58  1  0.24172094  0.70606630  0.28342317  1  0.028758  0  0.108982  0.119287  0  0.974822  0
H  H59  1  0.75828086  0.20606618  0.21657737  1  0.02874  0  0.109007  0.119312  0  0.974883  0
H  H60  1  0.72807922  0.25469375  0.64082360  1  0.063575  0  0.109636  0.12091  0  0.970477  0
H  H61  1  0.27192033  0.75469475  0.85917639  1  0.063595  0  0.109617  0.120892  0  0.970429  0
H  H62  1  0.27191971  0.74530696  0.35917562  1  0.063583  0  0.109649  0.120951  0  0.970473  0
H  H63  1  0.72808217  0.24530663  0.14082541  1  0.063411  0  0.109646  0.120942  0  0.97042  0
H  H64  1  0.71399732  0.37265785  0.65780030  1  0.113535  0  0.112586  0.136777  0  1.013734  0
H  H65  1  0.28600317  0.87265748  0.84219989  1  0.113525  0  0.112596  0.136787  0  1.013741  0
H  H66  1  0.28600233  0.62734353  0.34219988  1  0.11353  0  0.112551  0.13673  0  1.013728  0
H  H67  1  0.71400002  0.12734323  0.15780064  1  0.113543  0  0.112584  0.136743  0  1.013697  0
H  H68  1  0.61078483  0.81494876  0.51905417  1  0.039902  0  0.1006  0.150576  0  1.004509  0
H  H69  1  0.38921553  0.31495273  0.98094506  1  0.039901  0  0.100586  0.150584  0  1.004521  0
H  H70  1  0.38921622  0.18504922  0.48094525  1  0.039861  0  0.100605  0.150606  0  1.004509  0
H  H71  1  0.61078411  0.68504934  0.01905424  1  0.039941  0  0.100596  0.150585  0  1.004518  0
H  H72  1  0.65548647  0.75312306  0.58608848  1  0.060714  0  0.1061  0.17807  0  0.991201  0
H  H73  1  0.34451377  0.25312750  0.91391068  1  0.060677  0  0.10611  0.178051  0  0.991205  0
H  H74  1  0.34451459  0.24687424  0.41391139  1  0.060705  0  0.106094  0.178045  0  0.991143  0
H  H75  1  0.65548445  0.74687525  0.08608848  1  0.060711  0  0.106096  0.17805  0  0.991157  0
H  H76  1  0.59338662  0.69510312  0.52228418  1  0.08156  0  0.101649  0.149171  0  1.028201  0
H  H77  1  0.40661351  0.19510711  0.97771491  1  0.081649  0  0.101652  0.149157  0  1.028143  0
H  H78  1  0.40661373  0.30489691  0.47771562  1  0.081577  0  0.101635  0.149139  0  1.028248  0
H  H79  1  0.59338541  0.80489632  0.02228386  1  0.081567  0  0.101655  0.149168  0  1.028197  0
H  H80  1  0.90938006  0.76054374  0.47857447  1  0.030653  0  0.094849  0.099846  0  1.010057  0
H  H81  1  0.09062042  0.26054421  0.02142510  1  0.030646  0  0.094843  0.099847  0  1.010039  0
H  H82  1  0.09061960  0.23945424  0.52142571  1  0.030686  0  0.094851  0.099856  0  1.010044  0
H  H83  1  0.90937993  0.73945582  0.97857426  1  0.030666  0  0.094824  0.099806  0  1.010027  0
H  H84  1  0.84842415  0.77105447  0.40252967  1  0.100649  0  0.10756  0.131265  0  1.027158  0
H  H85  1  0.15157635  0.27105588  0.09747036  1  0.100611  0  0.107576  0.131274  0  1.027153  0
H  H86  1  0.15157834  0.22894692  0.59747124  1  0.100628  0  0.107582  0.131276  0  1.027141  0
H  H87  1  0.84842188  0.72894687  0.90252924  1  0.100639  0  0.107579  0.131258  0  1.027136  0
H  H88  1  0.84509539  0.66615834  0.44213352  1  0.044032  0  0.107735  0.129511  0  0.985491  0
H  H89  1  0.15490702  0.16615967  0.05786616  1  0.043798  0  0.107722  0.129482  0  0.98546  0
H  H90  1  0.15490424  0.33384100  0.55786533  1  0.043765  0  0.107763  0.129526  0  0.985512  0
H  H91  1  0.84509547  0.83384240  0.94213474  1  0.043938  0  0.107766  0.12955  0  0.985528  0
H  H92  1  0.65061217  0.81215734  0.39748228  1  0.096832  0  0.109248  0.137149  0  0.989305  0
H  H93  1  0.34938630  0.31216043  0.10251848  1  0.096869  0  0.109238  0.137138  0  0.989283  0
H  H94  1  0.34938816  0.18784201  0.60251619  1  0.09684  0  0.109229  0.137114  0  0.989297  0
H  H95  1  0.65061128  0.68784164  0.89748461  1  0.09685  0  0.109231  0.137129  0  0.989331  0
H  H96  1  0.75134796  0.88337321  0.40956556  1  0.08256  0  0.112565  0.135144  0  0.988724  0
H  H97  1  0.24865062  0.38337680  0.09043350  1  0.082354  0  0.112568  0.135114  0  0.988743  0
H  H98  1  0.24865237  0.11662613  0.59043291  1  0.082403  0  0.11258  0.135154  0  0.988685  0
H  H99  1  0.75134832  0.61662800  0.90956617  1  0.082407  0  0.112574  0.135163  0  0.988681  0
H  H100  1  0.67061393  0.88739369  0.46153674  1  0.040576  0  0.105875  0.112847  0  1.005252  0
H  H101  1  0.32938750  0.38739592  0.03846349  1  0.040567  0  0.105861  0.112798  0  1.005217  0
H  H102  1  0.32938569  0.11260634  0.53846121  1  0.040551  0  0.105851  0.112805  0  1.005205  0
H  H103  1  0.67061573  0.61260546  0.96153927  1  0.040543  0  0.105848  0.112815  0  1.005192  0
H  H104  1  0.99562618  0.65275711  0.67969884  1  0.627035  0  0.300049  0.392597  0  0.929035  0
H  H105  1  0.00437459  0.15275673  0.82030117  1  0.627031  0  0.300027  0.392569  0  0.929082  0
H  H106  1  0.00437348  0.34724291  0.32030223  1  0.627056  0  0.300023  0.391271  0  0.930764  0
H  H107  1  0.99562645  0.84724261  0.17969781  1  0.627056  0  0.300025  0.391315  0  0.930675  0
H  H108  1  0.99217349  0.72595788  0.62852677  1  0.591854  0  0.314048  0.393681  0  0.902936  0
H  H109  1  0.00782813  0.22595830  0.87147294  1  0.59186  0  0.314052  0.3937  0  0.902906  0
H  H110  1  0.00782760  0.27404146  0.37147488  1  0.591834  0  0.314043  0.393643  0  0.903021  0
H  H111  1  0.99217220  0.77404173  0.12852508  1  0.591838  0  0.314037  0.394003  0  0.903369  0
C  C112  1  0.01883200  0.47338211  0.92589158  1  0.29086  0  0.081263  0.155608  0  4.068096  0
C  C113  1  0.98116726  0.97338088  0.57410813  1  0.291058  0  0.0812  0.155512  0  4.068215  0
C  C114  1  0.98116413  0.52661723  0.07410915  1  0.290809  0  0.081265  0.155559  0  4.067975  0
C  C115  1  0.01883519  0.02661983  0.42589010  1  0.290796  0  0.081203  0.155557  0  4.068093  0
C  C116  1  0.96314664  0.53589912  0.88845468  1  0.000253  0  -0.069933  -0.142406  0  3.899181  0
C  C117  1  0.03685179  0.03589902  0.61154544  1  0.000218  0  -0.069921  -0.142344  0  3.899179  0
C  C118  1  0.03684808  0.46409818  0.11154635  1  0.000214  0  -0.069961  -0.142439  0  3.899275  0
C  C119  1  0.96315067  0.96410101  0.38845413  1  0.000293  0  -0.069963  -0.142462  0  3.89927  0
C  C120  1  0.96485070  0.53632194  0.82668858  1  -0.031263  0  -0.016369  -0.026555  0  3.976801  0
C  C121  1  0.03514844  0.03632129  0.67331117  1  -0.031081  0  -0.016362  -0.026645  0  3.976909  0
C  C122  1  0.03514542  0.46367740  0.17331126  1  -0.030923  0  -0.01631  -0.026517  0  3.976801  0
C  C123  1  0.96485263  0.96367737  0.32668915  1  -0.031031  0  -0.016315  -0.026475  0  3.976767  0
C  C124  1  0.02185532  0.47406568  0.80201383  1  -0.076063  0  -0.070524  -0.089163  0  3.903439  0
C  C125  1  0.97814322  0.97406471  0.69798537  1  -0.076289  0  -0.070509  -0.089027  0  3.903297  0
C  C126  1  0.97814148  0.52593503  0.19798474  1  -0.07651  0  -0.070562  -0.08924  0  3.903402  0
C  C127  1  0.02185715  0.02593531  0.30201533  1  -0.076624  0  -0.070563  -0.089234  0  3.903515  0
C  C128  1  0.07617543  0.41042788  0.83882672  1  -0.040953  0  -0.021491  -0.034229  0  3.99477  0
C  C129  1  0.92382158  0.91042607  0.66117272  1  -0.040827  0  -0.02149  -0.034239  0  3.99476  0
C  C130  1  0.92382139  0.58957282  0.16117318  1  -0.040964  0  -0.021507  -0.034121  0  3.994643  0
C  C131  1  0.07617803  0.08957260  0.33882479  1  -0.040876  0  -0.021462  -0.034106  0  3.994724  0
C  C132  1  0.07476996  0.41018756  0.90093931  1  -0.034552  0  -0.072984  -0.151211  0  3.900658  0
C  C133  1  0.92522775  0.91018766  0.59905975  1  -0.034912  0  -0.072923  -0.151187  0  3.90071  0
C  C134  1  0.92522616  0.58981382  0.09906098  1  -0.034443  0  -0.072925  -0.15117  0  3.900525  0
C  C135  1  0.07477470  0.08981441  0.40093848  1  -0.034408  0  -0.072924  -0.151224  0  3.9008  0
C  C136  1  0.90429948  0.60299008  0.78677201  1  1.577803  0  0.213431  0.598306  0  4.199451  0
C  C137  1  0.09569979  0.10299029  0.71322825  1  1.577821  0  0.213408  0.598279  0  4.199532  0
C  C138  1  0.09569947  0.39700927  0.21322855  1  1.577874  0  0.213306  0.598096  0  4.199688  0
C  C139  1  0.90429986  0.89700906  0.28677148  1  1.577925  0  0.213359  0.598219  0  4.199628  0
C  C140  1  0.13621660  0.34296021  0.81204626  1  1.579002  0  0.19842  0.571732  0  4.238033  0
C  C141  1  0.86378173  0.84295972  0.68795502  1  1.57888  0  0.198388  0.571702  0  4.238018  0
C  C142  1  0.86377952  0.65704050  0.18795402  1  1.578861  0  0.198323  0.571554  0  4.238209  0
C  C143  1  0.13621931  0.15704030  0.31204351  1  1.578917  0  0.198393  0.571743  0  4.237963  0
C  C144  1  0.49205045  0.47348765  0.57583531  1  0.361281  0  0.081547  0.153812  0  4.078528  0
C  C145  1  0.50795093  0.97348781  0.92416506  1  0.361278  0  0.081565  0.153873  0  4.078612  0
C  C146  1  0.50795065  0.52650829  0.42416679  1  0.361263  0  0.081547  0.153795  0  4.078629  0
C  C147  1  0.49204940  0.02650950  0.07583386  1  0.361287  0  0.0816  0.153906  0  4.078582  0
C  C148  1  0.55933866  0.52922018  0.61073354  1  0.000915  0  -0.071408  -0.14107  0  3.902924  0
C  C149  1  0.44066259  0.02921790  0.88926640  1  0.001077  0  -0.071446  -0.141125  0  3.903155  0
C  C150  1  0.44065962  0.47078053  0.38926873  1  0.001295  0  -0.071376  -0.141049  0  3.903032  0
C  C151  1  0.55933844  0.97077940  0.11073169  1  0.000999  0  -0.07145  -0.141129  0  3.903081  0
C  C152  1  0.56464763  0.53177391  0.67313528  1  0.020867  0  -0.01674  -0.028796  0  3.988985  0
C  C153  1  0.43535433  0.03177285  0.82686473  1  0.020705  0  -0.016717  -0.028761  0  3.989053  0
C  C154  1  0.43535348  0.46822203  0.32686727  1  0.020457  0  -0.016726  -0.028741  0  3.988964  0
C  C155  1  0.56464317  0.96822241  0.17313346  1  0.020705  0  -0.016617  -0.028606  0  3.988866  0
C  C156  1  0.50439633  0.47681845  0.70117199  1  -0.107334  0  -0.06195  -0.086402  0  3.88103  0
C  C157  1  0.49560504  0.97681695  0.79882750  1  -0.107272  0  -0.061962  -0.086451  0  3.880976  0
C  C158  1  0.49560334  0.52317681  0.29882953  1  -0.107745  0  -0.061886  -0.086202  0  3.880927  0
C  C159  1  0.50439456  0.02317899  0.20117002  1  -0.107387  0  -0.061937  -0.08638  0  3.880887  0
C  C160  1  0.43818016  0.42040564  0.66647592  1  0.023376  0  -0.013778  -0.011444  0  3.978029  0
C  C161  1  0.56182113  0.92040499  0.83352483  1  0.02338  0  -0.013776  -0.011431  0  3.97806  0
C  C162  1  0.56182093  0.57959030  0.33352618  1  0.023779  0  -0.01383  -0.011693  0  3.978358  0
C  C163  1  0.43817920  0.07959367  0.16647364  1  0.02349  0  -0.013789  -0.011485  0  3.978107  0
C  C164  1  0.43199868  0.41889312  0.60380386  1  -0.039129  0  -0.067875  -0.143574  0  3.89153  0
C  C165  1  0.56800261  0.91889330  0.89619689  1  -0.03916  0  -0.067855  -0.143522  0  3.891668  0
C  C166  1  0.56800453  0.58110214  0.39619755  1  -0.039108  0  -0.067852  -0.143472  0  3.891639  0
C  C167  1  0.43199702  0.08110536  0.10380240  1  -0.039134  0  -0.067865  -0.14358  0  3.891588  0
C  C168  1  0.62928782  0.59795124  0.70986601  1  1.550129  0  0.203765  0.585581  0  4.17812  0
C  C169  1  0.37071429  0.09795000  0.79013497  1  1.550605  0  0.203784  0.585538  0  4.178159  0
C  C170  1  0.37071329  0.40204538  0.29013654  1  1.550567  0  0.203696  0.585477  0  4.178281  0
C  C171  1  0.62928534  0.90204662  0.20986343  1  1.550573  0  0.20368  0.58543  0  4.178283  0
C  C172  1  0.37273623  0.36189549  0.69533942  1  1.535345  0  0.186239  0.552158  0  4.243677  0
C  C173  1  0.62726565  0.86189624  0.80466044  1  1.535373  0  0.186253  0.552119  0  4.243718  0
C  C174  1  0.62726202  0.63810250  0.30466151  1  1.536211  0  0.186286  0.552266  0  4.243349  0
C  C175  1  0.37273680  0.13810378  0.19533779  1  1.536146  0  0.18623  0.55215  0  4.243665  0
C  C176  1  0.97619354  0.42621065  0.62564925  1  -0.133807  0  -0.234023  -0.515788  0  3.880277  0
C  C177  1  0.02380706  0.92621130  0.87435189  1  -0.133922  0  -0.234069  -0.515861  0  3.880192  0
C  C178  1  0.02380610  0.57379074  0.37435049  1  -0.133926  0  -0.234089  -0.515933  0  3.880443  0
C  C179  1  0.97619616  0.07379145  0.12564998  1  -0.133515  0  -0.234121  -0.515968  0  3.8804  0
C  C180  1  0.87755044  0.41295675  0.63932530  1  1.345214  0  0.246499  0.52641  0  4.036983  0
C  C181  1  0.12245012  0.91295889  0.86067493  1  1.345209  0  0.246626  0.526591  0  4.03678  0
C  C182  1  0.12244777  0.58704395  0.36067340  1  1.345278  0  0.246522  0.526455  0  4.037027  0
C  C183  1  0.87755379  0.08704386  0.13932656  1  1.344864  0  0.246548  0.52651  0  4.03702  0
C  C184  1  0.91868169  0.25308138  0.66666637  1  0.272595  0  -0.131941  -0.273225  0  3.920903  0
C  C185  1  0.08131929  0.75308271  0.83333464  1  0.272615  0  -0.131966  -0.273247  0  3.920843  0
C  C186  1  0.08131724  0.74692001  0.33333285  1  0.272595  0  -0.132037  -0.273439  0  3.921019  0
C  C187  1  0.91868464  0.24692072  0.16666773  1  0.27273  0  -0.132046  -0.273495  0  3.921045  0
C  C188  1  0.75776594  0.31215864  0.66911864  1  0.268944  0  -0.128901  -0.265421  0  3.906891  0
C  C189  1  0.24223373  0.81215953  0.83088141  1  0.268941  0  -0.128868  -0.265387  0  3.906845  0
C  C190  1  0.24223300  0.68784207  0.33088103  1  0.268984  0  -0.128906  -0.265512  0  3.906814  0
C  C191  1  0.75776948  0.18784185  0.16912001  1  0.269188  0  -0.128958  -0.265549  0  3.9068  0
C  C192  1  0.64332460  0.75106645  0.53668514  1  -0.046384  0  -0.238717  -0.511721  0  3.893532  0
C  C193  1  0.35667564  0.25107102  0.96331402  1  -0.046408  0  -0.238716  -0.511669  0  3.893518  0
C  C194  1  0.35667646  0.24893221  0.46331473  1  -0.046314  0  -0.238727  -0.511726  0  3.893499  0
C  C195  1  0.64332258  0.74893241  0.03668513  1  -0.046419  0  -0.238734  -0.511729  0  3.893518  0
C  C196  1  0.73449990  0.72871551  0.51522254  1  1.363001  0  0.242032  0.516711  0  4.03692  0
C  C197  1  0.26550031  0.22871794  0.98477748  1  1.363164  0  0.241961  0.516599  0  4.037179  0
C  C198  1  0.26550045  0.27128384  0.48477726  1  1.362932  0  0.242065  0.51678  0  4.036966  0
C  C199  1  0.73449793  0.77128481  0.01522256  1  1.362901  0  0.24203  0.51679  0  4.03698  0
C  C200  1  0.84621313  0.74043376  0.44655586  1  0.289096  0  -0.139902  -0.271785  0  3.905553  0
C  C201  1  0.15378731  0.24043575  0.05344369  1  0.289401  0  -0.139879  -0.271728  0  3.905508  0
C  C202  1  0.15378723  0.25956491  0.55344394  1  0.289381  0  -0.139923  -0.271801  0  3.905566  0
C  C203  1  0.84621234  0.75956768  0.94655605  1  0.289189  0  -0.139886  -0.2717  0  3.905489  0
C  C204  1  0.70410741  0.84241522  0.43244736  1  0.263858  0  -0.128805  -0.266444  0  3.882842  0
C  C205  1  0.29589251  0.34241883  0.06755179  1  0.263989  0  -0.128823  -0.26636  0  3.882669  0
C  C206  1  0.29589222  0.15758412  0.56755104  1  0.263826  0  -0.128779  -0.266356  0  3.882716  0
C  C207  1  0.70410787  0.65758392  0.93244935  1  0.263666  0  -0.128796  -0.266415  0  3.882792  0
N  N208  1  0.02203846  0.46838518  0.98906397  1  -0.441226  0  -0.147724  -0.127744  0  3.268786  0
N  N209  1  0.97795937  0.96838789  0.51093560  1  -0.4873  0  -0.147637  -0.127629  0  3.268789  0
N  N210  1  0.97795696  0.53161280  0.01093668  1  -0.487348  0  -0.147664  -0.127613  0  3.268691  0
N  N211  1  0.02204167  0.03161417  0.48906294  1  -0.441282  0  -0.147702  -0.127694  0  3.268634  0
N  N212  1  0.47975886  0.46852939  0.51231011  1  -0.493814  0  -0.143697  -0.123285  0  3.280974  0
N  N213  1  0.52024323  0.96853106  0.98769076  1  -0.493818  0  -0.143739  -0.123389  0  3.281131  0
N  N214  1  0.52024365  0.53146655  0.48769213  1  -0.532128  0  -0.143603  -0.123255  0  3.281021  0
N  N215  1  0.47975641  0.03146692  0.01230853  1  -0.532156  0  -0.143625  -0.123257  0  3.281084  0
N  N216  1  0.85409497  0.33051236  0.65900934  1  -1.193896  0  -0.277071  -0.026946  0  3.643751  0
N  N217  1  0.14590474  0.83051381  0.84099117  1  -1.193892  0  -0.277157  -0.026992  0  3.643627  0
N  N218  1  0.14590326  0.66948834  0.34099026  1  -1.193895  0  -0.276994  -0.026684  0  3.643461  0
N  N219  1  0.85409918  0.16948825  0.15901031  1  -1.193971  0  -0.277006  -0.026663  0  3.643371  0
N  N220  1  0.76024544  0.77175111  0.46781017  1  -1.189958  0  -0.269448  -0.014068  0  3.622749  0
N  N221  1  0.23975434  0.27175388  0.03218935  1  -1.189985  0  -0.269442  -0.014104  0  3.622749  0
N  N222  1  0.23975490  0.22824891  0.53218875  1  -1.189759  0  -0.269482  -0.014138  0  3.622817  0
N  N223  1  0.76024532  0.72824955  0.96781128  1  -1.189564  0  -0.269489  -0.014192  0  3.62276  0
O  O224  1  0.91638563  0.60772894  0.73176694  1  -1.191036  0  -0.339543  -0.628662  0  2.322588  0
O  O225  1  0.08361506  0.10772857  0.76823302  1  -1.191045  0  -0.339532  -0.628606  0  2.322607  0
O  O226  1  0.08361473  0.39227041  0.26823331  1  -1.191062  0  -0.339465  -0.628251  0  2.322218  0
O  O227  1  0.91638530  0.89227146  0.23176679  1  -1.191056  0  -0.33948  -0.628273  0  2.322131  0
O  O228  1  0.84639062  0.64933455  0.81115986  1  -1.159784  0  -0.310306  -0.536319  0  2.303324  0
O  O229  1  0.15360944  0.14933412  0.68883963  1  -1.159763  0  -0.310301  -0.536316  0  2.303337  0
O  O230  1  0.15360974  0.35066819  0.18884039  1  -1.159696  0  -0.310265  -0.536233  0  2.303345  0
O  O231  1  0.84638948  0.85066659  0.31115915  1  -1.159727  0  -0.310283  -0.536312  0  2.303382  0
O  O232  1  0.13552424  0.34515766  0.75545573  1  -1.156986  0  -0.321118  -0.545521  0  2.215218  0
O  O233  1  0.86447763  0.84515525  0.74454590  1  -1.156806  0  -0.321129  -0.54554  0  2.215097  0
O  O234  1  0.86447331  0.65484373  0.24454514  1  -1.156835  0  -0.321106  -0.545502  0  2.215248  0
O  O235  1  0.13552621  0.15484614  0.25545157  1  -1.156986  0  -0.321156  -0.545621  0  2.215157  0
O  O236  1  0.18532561  0.28768071  0.84817267  1  -1.193762  0  -0.340727  -0.613528  0  2.331731  0
O  O237  1  0.81467259  0.78768006  0.65182722  1  -1.193812  0  -0.340734  -0.613543  0  2.331744  0
O  O238  1  0.81467121  0.71232000  0.15182724  1  -1.193836  0  -0.340694  -0.613474  0  2.331842  0
O  O239  1  0.18532774  0.21231928  0.34817125  1  -1.193738  0  -0.34069  -0.613563  0  2.331851  0
O  O240  1  0.68640807  0.64533287  0.68172764  1  -1.172782  0  -0.355364  -0.629697  0  2.403449  0
O  O241  1  0.31359341  0.14533161  0.81827288  1  -1.172733  0  -0.35536  -0.62963  0  2.403356  0
O  O242  1  0.31359089  0.35466511  0.31827292  1  -1.172906  0  -0.355322  -0.629634  0  2.403485  0
O  O243  1  0.68640765  0.85466637  0.18172699  1  -1.172857  0  -0.355293  -0.629604  0  2.403471  0
O  O244  1  0.62456645  0.61163959  0.76402858  1  -1.143318  0  -0.310498  -0.514128  0  2.088227  0
O  O245  1  0.37543425  0.11163824  0.73597138  1  -1.143865  0  -0.310524  -0.514136  0  2.08823  0
O  O246  1  0.37543323  0.38835907  0.23597338  1  -1.14378  0  -0.310512  -0.514151  0  2.088249  0
O  O247  1  0.62456538  0.88835974  0.26402702  1  -1.143786  0  -0.310525  -0.514142  0  2.088243  0
O  O248  1  0.38337193  0.35642732  0.75246277  1  -1.119624  0  -0.342542  -0.553797  0  2.106259  0
O  O249  1  0.61663205  0.85643202  0.74753685  1  -1.119656  0  -0.34256  -0.553802  0  2.106279  0
O  O250  1  0.61662632  0.64357135  0.24753817  1  -1.120269  0  -0.342542  -0.553783  0  2.106117  0
O  O251  1  0.38337111  0.14357073  0.25246189  1  -1.120245  0  -0.342521  -0.553749  0  2.106134  0
O  O252  1  0.30814014  0.31842257  0.66037610  1  -1.163278  0  -0.33309  -0.558579  0  2.207886  0
O  O253  1  0.69185882  0.81841942  0.83962345  1  -1.163284  0  -0.333107  -0.558573  0  2.207909  0
O  O254  1  0.69185740  0.68157677  0.33962477  1  -1.163377  0  -0.333139  -0.558653  0  2.207757  0
O  O255  1  0.30814080  0.18157652  0.16037495  1  -1.163443  0  -0.333096  -0.558613  0  2.207979  0
O  O256  1  0.81610655  0.47555064  0.63131008  1  -1.149095  0  -0.319178  -0.544423  0  2.279376  0
O  O257  1  0.18389413  0.97555153  0.86869022  1  -1.149133  0  -0.319219  -0.544502  0  2.279324  0
O  O258  1  0.18389167  0.52445006  0.36868908  1  -1.149118  0  -0.319179  -0.54447  0  2.279462  0
O  O259  1  0.81611049  0.02445054  0.13131133  1  -1.149071  0  -0.31919  -0.544512  0  2.279486  0
O  O260  1  0.78755271  0.66514920  0.54016652  1  -1.157378  0  -0.329774  -0.556323  0  2.268369  0
O  O261  1  0.21244878  0.16515217  0.95983313  1  -1.157534  0  -0.329698  -0.556252  0  2.268514  0
O  O262  1  0.21244833  0.33485015  0.45983247  1  -1.157364  0  -0.329772  -0.556338  0  2.26844  0
O  O263  1  0.78754874  0.83485330  0.04016685  1  -1.15731  0  -0.329731  -0.556346  0  2.268408  0
O  O264  1  0.98862954  0.66068839  0.63567066  1  -1.184975  0  -0.573273  -0.740254  0  1.977502  0
O  O265  1  0.01137054  0.16068879  0.86432884  1  -1.184975  0  -0.573258  -0.740259  0  1.977511  0
O  O266  1  0.01137154  0.33931096  0.36433010  1  -1.184977  0  -0.573245  -0.738907  0  1.980293  0
O  O267  1  0.98862838  0.83931123  0.13566993  1  -1.184977  0  -0.57324  -0.739594  0  1.980312  0
