# generated using pymatgen
data_DyH7C8SO9
_symmetry_space_group_name_H-M   'P 1'
_cell_length_a   5.82786048
_cell_length_b   9.28758462
_cell_length_c   10.51222810
_cell_angle_alpha   100.23507641
_cell_angle_beta   92.03560448
_cell_angle_gamma   109.99662733
_symmetry_Int_Tables_number   1
_chemical_formula_structural   DyH7C8SO9
_chemical_formula_sum   'Dy2 H14 C16 S2 O18'
_cell_volume   523.32142337
_cell_formula_units_Z   2
loop_
 _symmetry_equiv_pos_site_id
 _symmetry_equiv_pos_as_xyz
  1  'x, y, z'
loop_
 _atom_site_type_symbol
 _atom_site_label
 _atom_site_symmetry_multiplicity
 _atom_site_fract_x
 _atom_site_fract_y
 _atom_site_fract_z
 _atom_site_occupancy
 _atom_site_pbe_bader_spin_density
 _atom_site_pbe_cm5_charge
 _atom_site_pbe_ddec_charge
 _atom_site_pbe_ddec_spin_density
 _atom_site_pbe_ddec_sum_bond_order
 _atom_site_pbe_magmom
Dy  Dy0  1  0.16420740  0.19309733  0.89255754  1  0  1.530163  2.132522  0  2.047312  0
Dy  Dy1  1  0.83579857  0.80690448  0.10744241  1  0  1.53017  2.132539  0  2.047196  0
H  H2  1  0.94859469  0.33627045  0.11224330  1  0  0.309874  0.41325  0  0.906477  0
H  H3  1  0.05140765  0.66372784  0.88775698  1  0  0.309866  0.413225  0  0.906506  0
H  H4  1  0.78015084  0.15562853  0.07059090  1  0  0.308286  0.411418  0  0.920782  0
H  H5  1  0.21984812  0.84436970  0.92940736  1  0  0.308277  0.411392  0  0.920818  0
H  H6  1  0.29046425  0.52471444  0.03255343  1  0  0.312936  0.401703  0  0.932585  0
H  H7  1  0.70953748  0.47528621  0.96745097  1  0  0.312943  0.401716  0  0.932549  0
H  H8  1  0.35185414  0.54071436  0.89332292  1  0  0.315001  0.417047  0  0.903576  0
H  H9  1  0.64814292  0.45928390  0.10668005  1  0  0.314979  0.41704  0  0.903582  0
H  H10  1  0.83406517  0.13261992  0.51432861  1  0  0.121644  0.141974  0  0.988837  0
H  H11  1  0.16592719  0.86737243  0.48566955  1  0  0.1216  0.141899  0  0.988899  0
H  H12  1  0.35591186  0.39635043  0.60012671  1  0  0.115554  0.115064  0  0.991143  0
H  H13  1  0.64408051  0.60364546  0.39987576  1  0  0.115599  0.115127  0  0.991092  0
H  H14  1  0.19893030  0.33025456  0.36718763  1  0  0.105686  0.117367  0  1.023005  0
H  H15  1  0.80106714  0.66975065  0.63281348  1  0  0.105674  0.117408  0  1.022946  0
C  C16  1  0.42923215  0.19593169  0.30842035  1  0  0.013105  -0.009453  0  3.860179  0
C  C17  1  0.57077047  0.80407358  0.69158093  1  0  0.013145  -0.009309  0  3.859914  0
C  C18  1  0.60374932  0.13672876  0.35140581  1  0  -0.006479  -0.043923  0  3.925247  0
C  C19  1  0.39624232  0.86327169  0.64859063  1  0  -0.006477  -0.043952  0  3.925224  0
C  C20  1  0.69805506  0.17860167  0.48246073  1  0  -0.065799  -0.083786  0  3.916908  0
C  C21  1  0.30193353  0.82139644  0.51753718  1  0  -0.065796  -0.083643  0  3.916929  0
C  C22  1  0.61480874  0.27580080  0.56979525  1  0  -0.012931  -0.095651  0  3.980442  0
C  C23  1  0.38518152  0.72419735  0.43020462  1  0  -0.012963  -0.095764  0  3.980463  0
C  C24  1  0.42864255  0.32613900  0.53019559  1  0  -0.062212  -0.049566  0  3.949911  0
C  C25  1  0.57134995  0.67386038  0.46980739  1  0  -0.06222  -0.049532  0  3.949931  0
C  C26  1  0.33849537  0.28713553  0.39945229  1  0  -0.076313  -0.096912  0  3.925993  0
C  C27  1  0.66150079  0.71286735  0.60054939  1  0  -0.076356  -0.097119  0  3.926071  0
C  C28  1  0.32799039  0.16336965  0.16822237  1  0  0.242716  0.66391  0  4.13426  0
C  C29  1  0.67200014  0.83662272  0.83177859  1  0  0.242599  0.663694  0  4.13423  0
C  C30  1  0.68969758  0.02565208  0.26380197  1  0  0.19411  0.566597  0  4.217551  0
C  C31  1  0.31029875  0.97435075  0.73619496  1  0  0.194134  0.566598  0  4.217618  0
S  S32  1  0.76142942  0.34459457  0.73057633  1  0  0.557112  1.257727  0  6.044241  0
S  S33  1  0.23857845  0.65541074  0.26942323  1  0  0.557129  1.257683  0  6.044161  0
O  O34  1  0.15352364  0.03719534  0.12054785  1  0  -0.401027  -0.697872  0  2.437518  0
O  O35  1  0.84649231  0.96281241  0.87945422  1  0  -0.401024  -0.69785  0  2.437136  0
O  O36  1  0.40971991  0.27011748  0.10259605  1  0  -0.359998  -0.641691  0  2.26574  0
O  O37  1  0.59029552  0.72988906  0.89740297  1  0  -0.35988  -0.641527  0  2.265995  0
O  O38  1  0.64031138  0.00122754  0.13956206  1  0  -0.36077  -0.622664  0  2.279202  0
O  O39  1  0.35968540  0.99877299  0.86043551  1  0  -0.36076  -0.622616  0  2.279224  0
O  O40  1  0.80793698  0.95287896  0.31295533  1  0  -0.376349  -0.616352  0  2.243217  0
O  O41  1  0.19206709  0.04712859  0.68704062  1  0  -0.37633  -0.616353  0  2.24325  0
O  O42  1  0.89103091  0.23696228  0.74751277  1  0  -0.396678  -0.682836  0  2.34407  0
O  O43  1  0.10897194  0.76303014  0.25248193  1  0  -0.396583  -0.682742  0  2.344278  0
O  O44  1  0.92489148  0.50629619  0.73869379  1  0  -0.322408  -0.585051  0  2.17232  0
O  O45  1  0.07510789  0.49369621  0.26130175  1  0  -0.322496  -0.58511  0  2.172088  0
O  O46  1  0.56597516  0.33688156  0.81939739  1  0  -0.372106  -0.704742  0  2.346518  0
O  O47  1  0.43403469  0.66311799  0.18060427  1  0  -0.372102  -0.704701  0  2.346341  0
O  O48  1  0.89792422  0.24517436  0.03958798  1  0  -0.655564  -0.850224  0  2.128495  0
O  O49  1  0.10208051  0.75482511  0.96041160  1  0  -0.655547  -0.850162  0  2.128498  0
O  O50  1  0.24957039  0.46501833  0.94207312  1  0  -0.657567  -0.857901  0  2.166559  0
O  O51  1  0.75043068  0.53498116  0.05793205  1  0  -0.657566  -0.857893  0  2.166495  0
