# generated using pymatgen
data_Ag3H7C13(NO3)2
_symmetry_space_group_name_H-M   'P 1'
_cell_length_a   10.11136612
_cell_length_b   10.11137751
_cell_length_c   15.40137145
_cell_angle_alpha   92.26021885
_cell_angle_beta   92.26025590
_cell_angle_gamma   109.08702738
_symmetry_Int_Tables_number   1
_chemical_formula_structural   Ag3H7C13(NO3)2
_chemical_formula_sum   'Ag12 H28 C52 N8 O24'
_cell_volume   1484.62197290
_cell_formula_units_Z   4
loop_
 _symmetry_equiv_pos_site_id
 _symmetry_equiv_pos_as_xyz
  1  'x, y, z'
loop_
 _atom_site_type_symbol
 _atom_site_label
 _atom_site_symmetry_multiplicity
 _atom_site_fract_x
 _atom_site_fract_y
 _atom_site_fract_z
 _atom_site_occupancy
 _atom_site_hle17_bader_spin_density
 _atom_site_hle17_ddec_charge
 _atom_site_hle17_ddec_spin_density
 _atom_site_hle17_ddec_sum_bond_order
 _atom_site_hle17_magmom
 _atom_site_hse06_10hf_bader_spin_density
 _atom_site_hse06_10hf_ddec_charge
 _atom_site_hse06_10hf_ddec_spin_density
 _atom_site_hse06_10hf_ddec_sum_bond_order
 _atom_site_hse06_10hf_magmom
 _atom_site_hse06_bader_spin_density
 _atom_site_hse06_ddec_charge
 _atom_site_hse06_ddec_spin_density
 _atom_site_hse06_ddec_sum_bond_order
 _atom_site_hse06_magmom
 _atom_site_pbe_bader_spin_density
 _atom_site_pbe_cm5_charge
 _atom_site_pbe_ddec_charge
 _atom_site_pbe_ddec_spin_density
 _atom_site_pbe_ddec_sum_bond_order
 _atom_site_pbe_magmom
Ag  Ag0  1  0.05567395  0.54780998  0.92466986  1  0  0.474901  0  1.672425  0  0  0.351613  0  2.187834  0  0  0.388287  0  2.114549  0  0  0.39758  0.326909  0  2.238597  0
Ag  Ag1  1  0.45218988  0.94432668  0.57532885  1  0  0.474976  0  1.672389  0  0  0.351714  0  2.187757  0  0  0.388386  0  2.114472  0  0  0.397631  0.327011  0  2.238519  0
Ag  Ag2  1  0.94432894  0.45219060  0.07532864  1  0  0.474978  0  1.672393  0  0  0.351735  0  2.187748  0  0  0.388401  0  2.114468  0  0  0.397624  0.32703  0  2.238511  0
Ag  Ag3  1  0.54781004  0.05567389  0.42467024  1  0  0.474939  0  1.672385  0  0  0.351671  0  2.18777  0  0  0.388343  0  2.114486  0  0  0.397607  0.326967  0  2.238534  0
Ag  Ag4  1  0.91139568  0.24839282  0.85548905  1  0  0.500815  0  1.583114  0  0  0.380048  0  2.068501  0  0  0.414014  0  2.001424  0  0  0.405721  0.356786  0  2.11484  0
Ag  Ag5  1  0.75160568  0.08860499  0.64451052  1  0  0.500783  0  1.583202  0  0  0.380022  0  2.068575  0  0  0.413988  0  2.001498  0  0  0.405714  0.356761  0  2.114916  0
Ag  Ag6  1  0.08860456  0.75160567  0.14451000  1  0  0.500778  0  1.583209  0  0  0.380008  0  2.068589  0  0  0.413976  0  2.00151  0  0  0.405713  0.356747  0  2.11493  0
Ag  Ag7  1  0.24839259  0.91139350  0.35548914  1  0  0.500795  0  1.583168  0  0  0.380036  0  2.068524  0  0  0.413998  0  2.001452  0  0  0.405717  0.356774  0  2.114864  0
Ag  Ag8  1  0.80874857  0.44116935  0.78244632  1  0  0.552094  0  1.475862  0  0  0.450195  0  1.927151  0  0  0.486063  0  1.859465  0  0  0.401522  0.425553  0  1.973538  0
Ag  Ag9  1  0.55882976  0.19124896  0.71755315  1  0  0.552119  0  1.475836  0  0  0.450215  0  1.927114  0  0  0.486083  0  1.859427  0  0  0.401524  0.425573  0  1.9735  0
Ag  Ag10  1  0.19125037  0.55883123  0.21755340  1  0  0.552126  0  1.475817  0  0  0.450221  0  1.927094  0  0  0.486089  0  1.859407  0  0  0.401521  0.425578  0  1.97348  0
Ag  Ag11  1  0.44117049  0.80874954  0.28244656  1  0  0.552104  0  1.475848  0  0  0.450198  0  1.927128  0  0  0.48607  0  1.859441  0  0  0.401516  0.425558  0  1.973515  0
H  H12  1  0.42391181  0.39328413  0.92882506  1  0  0.112956  0  0.943065  0  0  0.120644  0  1.007882  0  0  0.124745  0  1.003903  0  0  0.107813  0.117777  0  1.010454  0
H  H13  1  0.60671568  0.57609105  0.57117576  1  0  0.112963  0  0.943127  0  0  0.120655  0  1.007934  0  0  0.124756  0  1.003955  0  0  0.107829  0.117789  0  1.010501  0
H  H14  1  0.57608881  0.60671544  0.07117597  1  0  0.112953  0  0.94309  0  0  0.120663  0  1.007879  0  0  0.124765  0  1.003899  0  0  0.107836  0.117797  0  1.010447  0
H  H15  1  0.39328462  0.42391061  0.42882531  1  0  0.112971  0  0.94311  0  0  0.12066  0  1.007923  0  0  0.124762  0  1.003944  0  0  0.107818  0.117794  0  1.010493  0
H  H16  1  0.58854570  0.10933509  0.06149264  1  0  0.107191  0  0.948289  0  0  0.114831  0  1.016463  0  0  0.118412  0  1.013259  0  0  0.105421  0.112318  0  1.018673  0
H  H17  1  0.89066468  0.41145715  0.43850687  1  0  0.107237  0  0.948242  0  0  0.114878  0  1.016404  0  0  0.11846  0  1.0132  0  0  0.105441  0.112366  0  1.018614  0
H  H18  1  0.41145754  0.89066655  0.93850654  1  0  0.10722  0  0.948245  0  0  0.114833  0  1.016434  0  0  0.118414  0  1.013231  0  0  0.105421  0.11232  0  1.018644  0
H  H19  1  0.10933459  0.58854446  0.56149223  1  0  0.107194  0  0.94828  0  0  0.114837  0  1.016453  0  0  0.118417  0  1.01325  0  0  0.105416  0.112323  0  1.018663  0
H  H20  1  0.22397551  0.18992348  0.15201148  1  0  0.110241  0  0.946246  0  0  0.118992  0  1.009806  0  0  0.123248  0  1.0054  0  0  0.104137  0.115878  0  1.0132  0
H  H21  1  0.81007538  0.77602640  0.34798855  1  0  0.110242  0  0.946194  0  0  0.118988  0  1.009761  0  0  0.123243  0  1.005357  0  0  0.104114  0.115874  0  1.013155  0
H  H22  1  0.77602810  0.81007612  0.84799026  1  0  0.110222  0  0.946249  0  0  0.118952  0  1.009827  0  0  0.123206  0  1.005424  0  0  0.104113  0.115831  0  1.013234  0
H  H23  1  0.18992257  0.22397417  0.65201115  1  0  0.110238  0  0.946221  0  0  0.118986  0  1.009782  0  0  0.123245  0  1.005377  0  0  0.104128  0.115871  0  1.013177  0
H  H24  1  0.32250213  0.56042504  0.81700275  1  0  0.106254  0  0.907414  0  0  0.118337  0  0.959585  0  0  0.120913  0  0.958561  0  0  0.131064  0.116286  0  0.96073  0
H  H25  1  0.43957377  0.67749704  0.68299856  1  0  0.106249  0  0.907418  0  0  0.118326  0  0.959587  0  0  0.120902  0  0.958563  0  0  0.131034  0.116276  0  0.960733  0
H  H26  1  0.67749683  0.43957244  0.18299886  1  0  0.106239  0  0.907337  0  0  0.118334  0  0.959515  0  0  0.12091  0  0.958491  0  0  0.131043  0.116284  0  0.960662  0
H  H27  1  0.56042583  0.32250250  0.31700115  1  0  0.106298  0  0.907429  0  0  0.118392  0  0.959566  0  0  0.120969  0  0.95854  0  0  0.13105  0.116339  0  0.960712  0
H  H28  1  0.06328799  0.80429138  0.81267689  1  0  0.089448  0  0.944593  0  0  0.097026  0  1.008901  0  0  0.099652  0  1.007421  0  0  0.120101  0.094838  0  1.010559  0
H  H29  1  0.19571025  0.93671286  0.68732376  1  0  0.089482  0  0.944531  0  0  0.097045  0  1.008869  0  0  0.099673  0  1.007385  0  0  0.120124  0.094855  0  1.010528  0
H  H30  1  0.93671231  0.19571028  0.18732417  1  0  0.089465  0  0.944572  0  0  0.097026  0  1.008907  0  0  0.099654  0  1.007422  0  0  0.1201  0.094837  0  1.010565  0
H  H31  1  0.80428804  0.06328563  0.31267656  1  0  0.089441  0  0.944515  0  0  0.097031  0  1.008841  0  0  0.09966  0  1.007358  0  0  0.120097  0.094842  0  1.010501  0
H  H32  1  0.81434173  0.09846984  0.02556235  1  0  0.103519  0  0.952442  0  0  0.109498  0  1.018416  0  0  0.112572  0  1.016384  0  0  0.122714  0.10719  0  1.02011  0
H  H33  1  0.90152818  0.18565954  0.47443649  1  0  0.10361  0  0.952281  0  0  0.109502  0  1.018343  0  0  0.112575  0  1.016312  0  0  0.122712  0.107198  0  1.02003  0
H  H34  1  0.18566051  0.90152867  0.97443740  1  0  0.103669  0  0.952317  0  0  0.109528  0  1.018395  0  0  0.112601  0  1.016363  0  0  0.122732  0.107223  0  1.020083  0
H  H35  1  0.09847078  0.81434105  0.52556388  1  0  0.103622  0  0.952289  0  0  0.109536  0  1.018329  0  0  0.11261  0  1.016296  0  0  0.122732  0.107228  0  1.020021  0
H  H36  1  0.13300121  0.07165806  0.87198974  1  0  0.093608  0  0.91032  0  0  0.10774  0  0.960282  0  0  0.109933  0  0.959625  0  0  0.128017  0.106148  0  0.960828  0
H  H37  1  0.92834097  0.86700174  0.62801041  1  0  0.093585  0  0.910338  0  0  0.107701  0  0.960323  0  0  0.109894  0  0.959668  0  0  0.128011  0.10611  0  0.960866  0
H  H38  1  0.86700100  0.92834042  0.12800870  1  0  0.093615  0  0.910324  0  0  0.107721  0  0.960315  0  0  0.109912  0  0.959661  0  0  0.128026  0.10613  0  0.960858  0
H  H39  1  0.07165698  0.13299883  0.37198929  1  0  0.093641  0  0.910312  0  0  0.107765  0  0.960285  0  0  0.109957  0  0.959629  0  0  0.128041  0.106174  0  0.960829  0
C  C40  1  0.20084524  0.36649420  0.02734500  1  0  0.646861  0  3.909008  0  0  0.588883  0  4.199532  0  0  0.625413  0  4.196834  0  0  0.199666  0.564152  0  4.200499  0
C  C41  1  0.63350393  0.79915536  0.47265495  1  0  0.646803  0  3.909001  0  0  0.588838  0  4.199503  0  0  0.625368  0  4.196805  0  0  0.199642  0.564104  0  4.20047  0
C  C42  1  0.79915603  0.63350433  0.97265603  1  0  0.646822  0  3.90899  0  0  0.588845  0  4.199511  0  0  0.625375  0  4.196814  0  0  0.199661  0.564112  0  4.200477  0
C  C43  1  0.36649402  0.20084522  0.52734475  1  0  0.64689  0  3.90904  0  0  0.588888  0  4.199593  0  0  0.625417  0  4.196895  0  0  0.199649  0.564157  0  4.200563  0
C  C44  1  0.63948113  0.29093889  0.93002220  1  0  0.654397  0  3.889368  0  0  0.59837  0  4.175055  0  0  0.635038  0  4.171812  0  0  0.20354  0.573472  0  4.176806  0
C  C45  1  0.70906172  0.36052207  0.56997935  1  0  0.654424  0  3.889277  0  0  0.598342  0  4.175041  0  0  0.635007  0  4.171799  0  0  0.203531  0.573444  0  4.176794  0
C  C46  1  0.36052113  0.70906275  0.06997760  1  0  0.65442  0  3.889208  0  0  0.598375  0  4.174919  0  0  0.635039  0  4.171678  0  0  0.203558  0.573469  0  4.176686  0
C  C47  1  0.29093892  0.63948064  0.43002175  1  0  0.654483  0  3.889241  0  0  0.598442  0  4.174937  0  0  0.635115  0  4.171684  0  0  0.203575  0.573531  0  4.176713  0
C  C48  1  0.39155688  0.03698146  0.18448970  1  0  0.630713  0  3.917259  0  0  0.577146  0  4.205068  0  0  0.612851  0  4.203143  0  0  0.196751  0.552888  0  4.205792  0
C  C49  1  0.96301456  0.60844137  0.31550961  1  0  0.630645  0  3.91729  0  0  0.577159  0  4.205012  0  0  0.612866  0  4.203089  0  0  0.196801  0.552903  0  4.205734  0
C  C50  1  0.60844335  0.96301390  0.81550994  1  0  0.630608  0  3.917411  0  0  0.577123  0  4.205133  0  0  0.61283  0  4.203208  0  0  0.196773  0.552866  0  4.205854  0
C  C51  1  0.03698038  0.39155915  0.68448808  1  0  0.630672  0  3.917054  0  0  0.577143  0  4.204814  0  0  0.612847  0  4.202887  0  0  0.196841  0.552887  0  4.205538  0
C  C52  1  0.31183679  0.29917489  0.03923483  1  0  -0.077352  0  3.764672  0  0  -0.047781  0  4.000426  0  0  -0.059852  0  4.025363  0  0  -0.020976  -0.040019  0  3.983365  0
C  C53  1  0.70082425  0.68816540  0.46076455  1  0  -0.077418  0  3.764748  0  0  -0.04785  0  4.000484  0  0  -0.059922  0  4.025422  0  0  -0.020959  -0.040086  0  3.983422  0
C  C54  1  0.68816583  0.70082470  0.96076689  1  0  -0.077418  0  3.764764  0  0  -0.047856  0  4.000525  0  0  -0.059929  0  4.025461  0  0  -0.021029  -0.040093  0  3.98346  0
C  C55  1  0.29917403  0.31183621  0.53923453  1  0  -0.077447  0  3.764707  0  0  -0.047861  0  4.000456  0  0  -0.059931  0  4.025393  0  0  -0.020973  -0.0401  0  3.983397  0
C  C56  1  0.41890245  0.32274459  0.98104171  1  0  -0.041153  0  3.660508  0  0  -0.080111  0  3.907046  0  0  -0.074663  0  3.923935  0  0  -0.067745  -0.082275  0  3.894301  0
C  C57  1  0.67725533  0.58110154  0.51895979  1  0  -0.041189  0  3.660631  0  0  -0.080141  0  3.907158  0  0  -0.074692  0  3.924046  0  0  -0.067764  -0.082305  0  3.894411  0
C  C58  1  0.58109985  0.67725710  0.01896004  1  0  -0.041134  0  3.660559  0  0  -0.080099  0  3.907095  0  0  -0.074653  0  3.923983  0  0  -0.067744  -0.082264  0  3.89435  0
C  C59  1  0.32274296  0.41890008  0.48103994  1  0  -0.041199  0  3.66055  0  0  -0.080163  0  3.907088  0  0  -0.074715  0  3.923977  0  0  -0.067788  -0.082328  0  3.894344  0
C  C60  1  0.52059198  0.25717816  0.98982565  1  0  -0.06464  0  3.725283  0  0  -0.035415  0  3.961021  0  0  -0.047128  0  3.984701  0  0  -0.016001  -0.028194  0  3.945039  0
C  C61  1  0.74282160  0.47941125  0.51017457  1  0  -0.064479  0  3.725171  0  0  -0.035245  0  3.960909  0  0  -0.046955  0  3.984591  0  0  -0.015969  -0.028027  0  3.944929  0
C  C62  1  0.47940994  0.74282244  0.01017413  1  0  -0.064568  0  3.72523  0  0  -0.035352  0  3.960972  0  0  -0.047061  0  3.98465  0  0  -0.015996  -0.028131  0  3.944994  0
C  C63  1  0.25717802  0.52059143  0.48982520  1  0  -0.064587  0  3.725195  0  0  -0.035348  0  3.960931  0  0  -0.047066  0  3.984613  0  0  -0.015981  -0.028126  0  3.944956  0
C  C64  1  0.51144299  0.16280273  0.05534299  1  0  -0.046632  0  3.668497  0  0  -0.087809  0  3.920948  0  0  -0.082054  0  3.938423  0  0  -0.071328  -0.090843  0  3.909036  0
C  C65  1  0.83719745  0.48855944  0.44465843  1  0  -0.046791  0  3.668414  0  0  -0.087932  0  3.920887  0  0  -0.082182  0  3.938363  0  0  -0.071346  -0.090968  0  3.908976  0
C  C66  1  0.48856127  0.83719895  0.94465750  1  0  -0.046698  0  3.66839  0  0  -0.087809  0  3.920854  0  0  -0.082059  0  3.938328  0  0  -0.071298  -0.090843  0  3.908942  0
C  C67  1  0.16280184  0.51144219  0.55534131  1  0  -0.046695  0  3.668444  0  0  -0.087875  0  3.920918  0  0  -0.082119  0  3.938391  0  0  -0.071339  -0.090908  0  3.909007  0
C  C68  1  0.40401006  0.13762134  0.11355258  1  0  -0.080147  0  3.757435  0  0  -0.050673  0  3.993282  0  0  -0.063135  0  4.018805  0  0  -0.02128  -0.042866  0  3.976915  0
C  C69  1  0.86237774  0.59599054  0.38644812  1  0  -0.079987  0  3.757376  0  0  -0.050612  0  3.9933  0  0  -0.063071  0  4.018821  0  0  -0.021255  -0.042804  0  3.976933  0
C  C70  1  0.59599354  0.86237825  0.88644851  1  0  -0.07999  0  3.757407  0  0  -0.050615  0  3.993311  0  0  -0.063075  0  4.01883  0  0  -0.021208  -0.042807  0  3.976942  0
C  C71  1  0.13761821  0.40401000  0.61355088  1  0  -0.080137  0  3.757407  0  0  -0.050694  0  3.993287  0  0  -0.063152  0  4.018805  0  0  -0.021307  -0.042887  0  3.976921  0
C  C72  1  0.30630948  0.20838905  0.10614294  1  0  -0.055578  0  3.688533  0  0  -0.093624  0  3.932813  0  0  -0.088677  0  3.950885  0  0  -0.076856  -0.097395  0  3.921458  0
C  C73  1  0.79160906  0.69368978  0.39385703  1  0  -0.055613  0  3.688538  0  0  -0.093626  0  3.932833  0  0  -0.08868  0  3.950906  0  0  -0.076863  -0.097397  0  3.921478  0
C  C74  1  0.69369412  0.79161055  0.89385880  1  0  -0.05561  0  3.688558  0  0  -0.093601  0  3.932846  0  0  -0.088654  0  3.950917  0  0  -0.076871  -0.097369  0  3.921498  0
C  C75  1  0.20838790  0.30631079  0.60614265  1  0  -0.055521  0  3.688507  0  0  -0.093556  0  3.932785  0  0  -0.088614  0  3.950858  0  0  -0.076821  -0.097326  0  3.921432  0
C  C76  1  0.29261075  0.64263281  0.78628371  1  0  0.089412  0  3.650439  0  0  0.059829  0  3.904313  0  0  0.062139  0  3.922782  0  0  0.064253  0.057834  0  3.89264  0
C  C77  1  0.35736736  0.70738900  0.71371697  1  0  0.089391  0  3.650415  0  0  0.059842  0  3.904266  0  0  0.062152  0  3.922735  0  0  0.064279  0.057847  0  3.892595  0
C  C78  1  0.70738919  0.35736466  0.21371726  1  0  0.089515  0  3.650373  0  0  0.059896  0  3.904284  0  0  0.062205  0  3.922755  0  0  0.064319  0.0579  0  3.892613  0
C  C79  1  0.64263225  0.29261055  0.28628340  1  0  0.089305  0  3.650438  0  0  0.059766  0  3.904276  0  0  0.062075  0  3.922744  0  0  0.064267  0.057775  0  3.892601  0
C  C80  1  0.15079615  0.77999265  0.78482269  1  0  0.074679  0  3.682811  0  0  0.0473  0  3.932375  0  0  0.049608  0  3.950654  0  0  0.054655  0.045616  0  3.920641  0
C  C81  1  0.22000949  0.84920483  0.71517800  1  0  0.074649  0  3.682815  0  0  0.047255  0  3.932404  0  0  0.049562  0  3.950682  0  0  0.054576  0.04557  0  3.920671  0
C  C82  1  0.84920346  0.22000690  0.21517767  1  0  0.074589  0  3.682831  0  0  0.04723  0  3.932422  0  0  0.049538  0  3.9507  0  0  0.054589  0.045545  0  3.92069  0
C  C83  1  0.77998980  0.15079680  0.28482175  1  0  0.074715  0  3.682869  0  0  0.047271  0  3.932495  0  0  0.049577  0  3.950774  0  0  0.05461  0.045585  0  3.920762  0
C  C84  1  0.89746596  0.05397557  0.01483525  1  0  0.083963  0  3.655924  0  0  0.055123  0  3.910692  0  0  0.056847  0  3.930368  0  0  0.056587  0.053938  0  3.897688  0
C  C85  1  0.94602185  0.10253539  0.48516425  1  0  0.083871  0  3.655876  0  0  0.055097  0  3.910646  0  0  0.056825  0  3.930318  0  0  0.056568  0.053914  0  3.897642  0
C  C86  1  0.10253692  0.94602189  0.98516384  1  0  0.083764  0  3.655887  0  0  0.055036  0  3.910638  0  0  0.056763  0  3.930311  0  0  0.056554  0.053854  0  3.897633  0
C  C87  1  0.05397612  0.89746520  0.51483609  1  0  0.083859  0  3.65593  0  0  0.05506  0  3.910707  0  0  0.056786  0  3.930382  0  0  0.056546  0.053877  0  3.897704  0
C  C88  1  0.07264312  0.03851919  0.92907577  1  0  0.072202  0  3.674546  0  0  0.044733  0  3.926441  0  0  0.046386  0  3.946035  0  0  0.058585  0.043639  0  3.913144  0
C  C89  1  0.96147947  0.92735807  0.57092434  1  0  0.072272  0  3.674625  0  0  0.044818  0  3.926534  0  0  0.046461  0  3.946146  0  0  0.058604  0.043723  0  3.913236  0
C  C90  1  0.92735877  0.96147828  0.07092395  1  0  0.072224  0  3.674518  0  0  0.044782  0  3.926445  0  0  0.046431  0  3.946048  0  0  0.058599  0.043688  0  3.913148  0
C  C91  1  0.03851848  0.07264250  0.42907536  1  0  0.072193  0  3.674545  0  0  0.04472  0  3.926462  0  0  0.046375  0  3.946051  0  0  0.05857  0.043624  0  3.913167  0
N  N92  1  0.18873433  0.67829585  0.82078441  1  0  -0.226298  0  3.253547  0  0  -0.157889  0  3.531745  0  0  -0.171194  0  3.546704  0  0  -0.317594  -0.149188  0  3.521948  0
N  N93  1  0.32170363  0.81126651  0.67921560  1  0  -0.226309  0  3.253544  0  0  -0.157893  0  3.531719  0  0  -0.1712  0  3.546682  0  0  -0.317597  -0.149193  0  3.521922  0
N  N94  1  0.81126628  0.32170371  0.17921597  1  0  -0.22631  0  3.253512  0  0  -0.157894  0  3.531718  0  0  -0.171199  0  3.546679  0  0  -0.317593  -0.149196  0  3.521928  0
N  N95  1  0.67829563  0.18873198  0.32078409  1  0  -0.226283  0  3.253567  0  0  -0.15787  0  3.531783  0  0  -0.171174  0  3.546743  0  0  -0.317582  -0.149168  0  3.521985  0
N  N96  1  0.97014823  0.09232072  0.94372066  1  0  -0.22577  0  3.222432  0  0  -0.157422  0  3.498068  0  0  -0.170943  0  3.513865  0  0  -0.310118  -0.148289  0  3.487643  0
N  N97  1  0.90767658  0.02985242  0.55627894  1  0  -0.225798  0  3.222512  0  0  -0.157422  0  3.49809  0  0  -0.170941  0  3.513884  0  0  -0.310101  -0.14829  0  3.487665  0
N  N98  1  0.02985301  0.90767779  0.05627906  1  0  -0.225712  0  3.222424  0  0  -0.157356  0  3.497991  0  0  -0.170875  0  3.513786  0  0  -0.310102  -0.148224  0  3.487566  0
N  N99  1  0.09232038  0.97014815  0.44372074  1  0  -0.225788  0  3.222484  0  0  -0.157409  0  3.498071  0  0  -0.170929  0  3.513867  0  0  -0.310088  -0.148277  0  3.487648  0
O  O100  1  0.73856707  0.24310311  0.94724780  1  0  -0.621119  0  2.117516  0  0  -0.549068  0  2.397281  0  0  -0.580977  0  2.38565  0  0  -0.320105  -0.526862  0  2.405064  0
O  O101  1  0.75689697  0.26143503  0.55275310  1  0  -0.621138  0  2.117459  0  0  -0.549056  0  2.397259  0  0  -0.580964  0  2.385626  0  0  -0.320085  -0.526851  0  2.405043  0
O  O102  1  0.26143388  0.75689749  0.05275260  1  0  -0.621149  0  2.117514  0  0  -0.549062  0  2.397268  0  0  -0.58097  0  2.385636  0  0  -0.320097  -0.526855  0  2.405055  0
O  O103  1  0.24310167  0.73856765  0.44724731  1  0  -0.621143  0  2.1175  0  0  -0.549069  0  2.397252  0  0  -0.580979  0  2.385619  0  0  -0.320095  -0.526858  0  2.405042  0
O  O104  1  0.20143969  0.43047676  0.95786937  1  0  -0.596625  0  2.079139  0  0  -0.522467  0  2.348278  0  0  -0.555323  0  2.338113  0  0  -0.319331  -0.500003  0  2.354922  0
O  O105  1  0.56951968  0.79856184  0.54212869  1  0  -0.596579  0  2.079176  0  0  -0.522436  0  2.348328  0  0  -0.555291  0  2.338163  0  0  -0.319355  -0.499972  0  2.354974  0
O  O106  1  0.79856089  0.56951966  0.04213094  1  0  -0.596632  0  2.07912  0  0  -0.522479  0  2.348264  0  0  -0.555336  0  2.338101  0  0  -0.319367  -0.500014  0  2.35491  0
O  O107  1  0.43047761  0.20143976  0.45787036  1  0  -0.596621  0  2.079137  0  0  -0.522462  0  2.348299  0  0  -0.555317  0  2.338134  0  0  -0.319328  -0.499997  0  2.354944  0
O  O108  1  0.11274796  0.35104751  0.08663391  1  0  -0.635143  0  2.121802  0  0  -0.557318  0  2.400936  0  0  -0.591343  0  2.390023  0  0  -0.332731  -0.533494  0  2.407512  0
O  O109  1  0.64894972  0.88725154  0.41336533  1  0  -0.63513  0  2.121727  0  0  -0.557309  0  2.400856  0  0  -0.591335  0  2.389942  0  0  -0.332721  -0.533494  0  2.407453  0
O  O110  1  0.88725163  0.64894891  0.91336639  1  0  -0.63508  0  2.121758  0  0  -0.557252  0  2.400885  0  0  -0.591277  0  2.389972  0  0  -0.332687  -0.533436  0  2.40748  0
O  O111  1  0.35104856  0.11275007  0.58663375  1  0  -0.635135  0  2.121837  0  0  -0.557304  0  2.400983  0  0  -0.59133  0  2.390069  0  0  -0.332721  -0.533481  0  2.407559  0
O  O112  1  0.63187263  0.36748283  0.86691416  1  0  -0.61505  0  2.103407  0  0  -0.53295  0  2.363362  0  0  -0.567339  0  2.352903  0  0  -0.32767  -0.509153  0  2.370046  0
O  O113  1  0.63251643  0.36812793  0.63308600  1  0  -0.615082  0  2.103427  0  0  -0.532973  0  2.363432  0  0  -0.567363  0  2.352977  0  0  -0.327681  -0.509175  0  2.37011  0
O  O114  1  0.36812795  0.63251670  0.13308492  1  0  -0.615075  0  2.103264  0  0  -0.532977  0  2.36325  0  0  -0.567368  0  2.352793  0  0  -0.327699  -0.509176  0  2.369932  0
O  O115  1  0.36748386  0.63187371  0.36691442  1  0  -0.615076  0  2.103343  0  0  -0.532984  0  2.363334  0  0  -0.567375  0  2.352872  0  0  -0.327691  -0.509181  0  2.370022  0
O  O116  1  0.48199798  0.97400803  0.18982101  1  0  -0.596135  0  2.087276  0  0  -0.523318  0  2.347291  0  0  -0.557288  0  2.340988  0  0  -0.324049  -0.500155  0  2.351355  0
O  O117  1  0.02599336  0.51800600  0.31017900  1  0  -0.596156  0  2.087406  0  0  -0.523347  0  2.347363  0  0  -0.557318  0  2.341062  0  0  -0.324073  -0.500185  0  2.351428  0
O  O118  1  0.51800691  0.02599259  0.81017883  1  0  -0.596114  0  2.08742  0  0  -0.523307  0  2.347373  0  0  -0.557278  0  2.341073  0  0  -0.324049  -0.500148  0  2.351446  0
O  O119  1  0.97400727  0.48199982  0.68982086  1  0  -0.596079  0  2.087128  0  0  -0.523287  0  2.347148  0  0  -0.557255  0  2.340842  0  0  -0.32409  -0.500126  0  2.351216  0
O  O120  1  0.29017279  0.02389209  0.23396869  1  0  -0.621663  0  2.105289  0  0  -0.544536  0  2.37692  0  0  -0.576281  0  2.363437  0  0  -0.332341  -0.522557  0  2.385179  0
O  O121  1  0.97610235  0.70982461  0.26602926  1  0  -0.621635  0  2.105228  0  0  -0.544549  0  2.376865  0  0  -0.576281  0  2.363346  0  0  -0.332394  -0.522562  0  2.385105  0
O  O122  1  0.70982609  0.97610220  0.76603025  1  0  -0.621652  0  2.105281  0  0  -0.544564  0  2.376911  0  0  -0.576299  0  2.363399  0  0  -0.332416  -0.522582  0  2.385164  0
O  O123  1  0.02389222  0.29017482  0.73396710  1  0  -0.621656  0  2.105201  0  0  -0.544538  0  2.376817  0  0  -0.576283  0  2.363334  0  0  -0.332378  -0.522555  0  2.385068  0
