# generated using pymatgen
data_AlH6C10NO5F
_symmetry_space_group_name_H-M   'P 1'
_cell_length_a   6.68186191
_cell_length_b   11.14141672
_cell_length_c   11.07320827
_cell_angle_alpha   82.28151816
_cell_angle_beta   73.65744134
_cell_angle_gamma   72.50247939
_symmetry_Int_Tables_number   1
_chemical_formula_structural   AlH6C10NO5F
_chemical_formula_sum   'Al2 H12 C20 N2 O10 F2'
_cell_volume   753.32786399
_cell_formula_units_Z   2
loop_
 _symmetry_equiv_pos_site_id
 _symmetry_equiv_pos_as_xyz
  1  'x, y, z'
loop_
 _atom_site_type_symbol
 _atom_site_label
 _atom_site_symmetry_multiplicity
 _atom_site_fract_x
 _atom_site_fract_y
 _atom_site_fract_z
 _atom_site_occupancy
 _atom_site_pbe_bader_charge
 _atom_site_pbe_bader_spin_density
 _atom_site_pbe_cm5_charge
 _atom_site_pbe_ddec_charge
 _atom_site_pbe_ddec_spin_density
 _atom_site_pbe_ddec_sum_bond_order
 _atom_site_pbe_magmom
Al  Al0  1  0.49444576  0.49759771  0.50605658  1  2.503917  0  0.396779  1.634988  0  2.588401  0
Al  Al1  1  0.99291004  0.49958408  0.50663513  1  2.50202  0  0.394759  1.630185  0  2.597581  0
H  H2  1  0.27954631  0.35119029  0.58488756  1  0.612753  0  0.352234  0.426875  0  0.858883  0
H  H3  1  0.69911426  0.64913941  0.44231029  1  0.6006  0  0.342972  0.411467  0  0.890945  0
H  H4  1  0.75653246  0.43100340  0.13688701  1  0.103961  0  0.105717  0.121034  0  1.019316  0
H  H5  1  0.23192943  0.56654337  0.87430451  1  0.076753  0  0.10606  0.118416  0  1.017296  0
H  H6  1  0.26285608  0.23938037  0.33388748  1  0.137327  0  0.120203  0.154557  0  1.009528  0
H  H7  1  0.47824616  0.77106075  0.32508257  1  0.10549  0  0.119521  0.148524  0  1.007767  0
H  H8  1  0.74567219  0.87886473  0.58723858  1  0.092973  0  0.114052  0.120244  0  0.984428  0
H  H9  1  0.63189462  0.11411544  0.58413210  1  0.108544  0  0.11244  0.116088  0  0.989604  0
H  H10  1  0.00050986  0.45028077  0.80319198  1  0.500563  0  0.29954  0.308601  0  0.991148  0
H  H11  1  0.03961742  0.41570190  0.95399438  1  0.443956  0  0.298501  0.297481  0  0.976398  0
H  H12  1  0.99097937  0.55844509  0.21259914  1  0.476136  0  0.301084  0.311781  0  0.988366  0
H  H13  1  0.94497281  0.61568415  0.06686450  1  0.427913  0  0.30699  0.302473  0  0.941729  0
C  C14  1  0.86604422  0.27175232  0.49247280  1  1.579511  0  0.275894  0.658561  0  4.068987  0
C  C15  1  0.63015590  0.50616773  0.73441692  1  1.517391  0  0.260464  0.64969  0  4.08117  0
C  C16  1  0.13043764  0.72704191  0.49629151  1  1.563207  0  0.274815  0.655533  0  4.075195  0
C  C17  1  0.35837035  0.49123001  0.27707203  1  1.527334  0  0.257884  0.64083  0  4.091518  0
C  C18  1  0.56717291  0.50357657  0.87352439  1  -0.04486  0  -0.029108  -0.143629  0  3.96937  0
C  C19  1  0.42072138  0.49191893  0.13805537  1  -0.073942  0  -0.030422  -0.147055  0  3.977275  0
C  C20  1  0.72354535  0.46349189  0.94644451  1  0.432303  0  0.093745  0.276857  0  4.090469  0
C  C21  1  0.26415067  0.52998711  0.06513773  1  0.455479  0  0.090069  0.269114  0  4.095977  0
C  C22  1  0.64239079  0.45971943  0.07791883  1  0.039086  0  -0.101342  -0.204754  0  3.963256  0
C  C23  1  0.34513266  0.53619862  0.93391509  1  0.014548  0  -0.105807  -0.217781  0  3.984647  0
C  C24  1  0.94200684  0.13298607  0.47676740  1  -0.044437  0  -0.002609  -0.077406  0  3.918883  0
C  C25  1  0.15706111  0.07036642  0.40800831  1  0.00809  0  0.003821  0.07591  0  3.947345  0
C  C26  1  0.79587536  0.06408208  0.53517956  1  0.073383  0  -0.078965  -0.089357  0  4.002548  0
C  C27  1  0.30625274  0.13716907  0.33613154  1  0.048168  0  -0.095406  -0.239841  0  3.963144  0
C  C28  1  0.50701851  0.07334185  0.26774356  1  0.49965  0  0.095043  0.189414  0  4.116232  0
C  C29  1  0.06973810  0.86717957  0.47824702  1  -0.034568  0  -0.00504  -0.078715  0  3.924275  0
C  C30  1  0.85926321  0.93221636  0.53656278  1  -0.037473  0  -0.079079  -0.091321  0  3.999252  0
C  C31  1  0.22109889  0.93451080  0.40757639  1  -0.044376  0  0.003474  0.078244  0  3.950948  0
C  C32  1  0.42872638  0.87259781  0.33254497  1  0.082975  0  -0.099438  -0.25095  0  3.991934  0
C  C33  1  0.56760686  0.94076036  0.26522201  1  0.453173  0  0.091674  0.186259  0  4.121697  0
N  N34  1  0.94393523  0.42419199  0.89498846  1  -1.267397  0  -0.604316  -0.62708  0  3.340648  0
N  N35  1  0.04295593  0.55599762  0.11714276  1  -1.231704  0  -0.598479  -0.62769  0  3.362568  0
O  O36  1  0.66424082  0.32505105  0.50606051  1  -1.253806  0  -0.230774  -0.590612  0  2.339861  0
O  O37  1  0.82908987  0.50022419  0.67810462  1  -1.271706  0  -0.24111  -0.607619  0  2.382296  0
O  O38  1  0.98106527  0.67344090  0.51017696  1  -1.266877  0  -0.234357  -0.594158  0  2.344514  0
O  O39  1  0.50401000  0.48627399  0.33292340  1  -1.266707  0  -0.244558  -0.599026  0  2.357657  0
O  O40  1  0.32519863  0.67020693  0.49936924  1  -1.260322  0  -0.230558  -0.589346  0  2.372135  0
O  O41  1  0.15899646  0.49858069  0.33412291  1  -1.276803  0  -0.241681  -0.607138  0  2.387267  0
O  O42  1  0.00559074  0.32727262  0.49537229  1  -1.25849  0  -0.229631  -0.591394  0  2.374343  0
O  O43  1  0.48477588  0.51163666  0.67799800  1  -1.273137  0  -0.243629  -0.602428  0  2.347784  0
O  O44  1  0.24503865  0.44119082  0.56387478  1  -1.420614  0  -0.447316  -0.980633  0  2.179042  0
O  O45  1  0.74141485  0.55757004  0.44838165  1  -1.412134  0  -0.450392  -0.976802  0  2.179566  0
F  F46  1  0.64986756  0.13637217  0.19920677  1  -0.624231  0  -0.093874  -0.119321  0  1.342079  0
F  F47  1  0.76533022  0.88180597  0.19296943  1  -0.623624  0  -0.099844  -0.129071  0  1.33665  0
