# generated using pymatgen
data_Zn2H45C55N7O12
_symmetry_space_group_name_H-M   'P 1'
_cell_length_a   14.65094704
_cell_length_b   16.04730635
_cell_length_c   23.71961361
_cell_angle_alpha   90.41119737
_cell_angle_beta   90.00050630
_cell_angle_gamma   89.45912375
_symmetry_Int_Tables_number   1
_chemical_formula_structural   Zn2H45C55N7O12
_chemical_formula_sum   'Zn2 H45 C55 N7 O12'
_cell_volume   5576.28440201
_cell_formula_units_Z   1
loop_
 _symmetry_equiv_pos_site_id
 _symmetry_equiv_pos_as_xyz
  1  'x, y, z'
loop_
 _atom_site_type_symbol
 _atom_site_label
 _atom_site_symmetry_multiplicity
 _atom_site_fract_x
 _atom_site_fract_y
 _atom_site_fract_z
 _atom_site_occupancy
 _atom_site_pbe_bader_charge
 _atom_site_pbe_bader_spin_density
 _atom_site_pbe_cm5_charge
 _atom_site_pbe_ddec_charge
 _atom_site_pbe_ddec_spin_density
 _atom_site_pbe_ddec_sum_bond_order
 _atom_site_pbe_magmom
Zn  Zn0  1  0.40772377  0.50288391  0.49870486  1  1.322336  0  0.677488  0.886838  0  2.446204  0
Zn  Zn1  1  0.59756595  0.49996930  0.50184812  1  1.310873  0  0.676286  0.888405  0  2.425922  0
H  H2  1  0.42746399  0.70082927  0.05547646  1  0.105085  0  0.116139  0.125018  0  0.990673  0
H  H3  1  0.39935553  0.92229885  0.44058793  1  0.041868  0  0.092866  0.091944  0  0.98075  0
H  H4  1  0.63534140  0.08154043  0.54246490  1  0.011469  0  0.092904  0.090937  0  1.006965  0
H  H5  1  0.37897141  0.06548890  0.45279469  1  0.044656  0  0.091467  0.089308  0  1.022756  0
H  H6  1  0.36389486  0.94252566  0.54169274  1  0.02075  0  0.096028  0.107291  0  0.991714  0
H  H7  1  0.44615465  0.92259944  0.59463435  1  0.033964  0  0.096901  0.108007  0  0.990177  0
H  H8  1  0.07702026  0.63503649  0.48541439  1  0.053954  0  0.107355  0.109394  0  0.961517  0
H  H9  1  0.91767016  0.63205608  0.48864651  1  0.061788  0  0.107864  0.110021  0  0.961603  0
H  H10  1  0.92251515  0.41386789  0.43038737  1  0.058822  0  0.107563  0.109517  0  0.961894  0
H  H11  1  0.08187503  0.41598652  0.42836186  1  0.082636  0  0.107263  0.109069  0  0.962451  0
H  H12  1  0.91860189  0.52033950  0.41199788  1  0.039994  0  0.106922  0.108595  0  0.962931  0
H  H13  1  0.65987815  0.51048022  0.32001444  1  0.113993  0  0.104247  0.106828  0  1.000315  0
H  H14  1  0.07805012  0.52208389  0.40908633  1  0.063697  0  0.106191  0.107311  0  0.964698  0
H  H15  1  0.92802128  0.44940578  0.58702229  1  0.038882  0  0.106512  0.107938  0  0.963769  0
H  H16  1  0.08733830  0.45406004  0.58465049  1  0.067938  0  0.106642  0.107821  0  0.963745  0
H  H17  1  0.92904411  0.37212619  0.53360755  1  0.056685  0  0.107105  0.10911  0  0.962246  0
H  H18  1  0.08854322  0.37570105  0.53197287  1  0.058987  0  0.107666  0.10962  0  0.961996  0
H  H19  1  0.92227180  0.60343609  0.56035675  1  0.062885  0  0.106879  0.108518  0  0.962355  0
H  H20  1  0.08165683  0.60699762  0.55723256  1  0.062694  0  0.106815  0.108316  0  0.962731  0
H  H21  1  0.54332512  0.29504583  0.94701529  1  0.077598  0  0.114962  0.120771  0  0.982216  0
H  H22  1  0.55892374  0.29892102  0.05345096  1  0.119117  0  0.114319  0.120963  0  0.98501  0
H  H23  1  0.63575280  0.50556198  0.78975908  1  0.068209  0  0.10755  0.11411  0  0.981344  0
H  H24  1  0.36761995  0.50303819  0.32202756  1  0.090462  0  0.105466  0.109172  0  0.999847  0
H  H25  1  0.64289420  0.50550866  0.68389557  1  0.071976  0  0.104359  0.107401  0  1.000521  0
H  H26  1  0.35191883  0.48344593  0.67573141  1  0.086463  0  0.103618  0.106736  0  1.002043  0
H  H27  1  0.34395368  0.48254605  0.78165513  1  0.049773  0  0.104192  0.108927  0  0.989715  0
H  H28  1  0.65851644  0.51109051  0.21401731  1  0.069133  0  0.107583  0.114032  0  0.982747  0
H  H29  1  0.34036876  0.07286237  0.61564087  1  0.406979  0  0.291873  0.234229  0  0.964871  0
H  H30  1  0.22774434  0.12622397  0.56012779  1  0.009097  0  0.097362  0.102273  0  0.984426  0
H  H31  1  0.26845758  0.04300020  0.51662897  1  0.001401  0  0.074608  0.059999  0  1.028198  0
H  H32  1  0.30478517  0.14787207  0.50488629  1  0.038756  0  0.095447  0.102617  0  1.005697  0
H  H33  1  0.55230970  0.01668269  0.61738456  1  0.393585  0  0.285818  0.22799  0  0.991487  0
H  H34  1  0.58480106  0.16887594  0.60430332  1  0.001644  0  0.079467  0.074286  0  1.029879  0
H  H35  1  0.36518298  0.50287274  0.21612073  1  0.082039  0  0.106407  0.111949  0  0.984849  0
H  H36  1  0.56100898  0.13901502  0.67523624  1  0.031949  0  0.095309  0.103697  0  0.983273  0
H  H37  1  0.47432379  0.18578572  0.63310361  1  0.037568  0  0.100326  0.113117  0  1.00107  0
H  H38  1  0.37724123  0.75907127  0.97829207  1  0.437945  0  0.324045  0.257688  0  0.928121  0
H  H39  1  0.30044941  0.65842765  0.89031831  1  0.07853  0  0.104949  0.11101  0  0.979876  0
H  H40  1  0.37536755  0.73303538  0.86150870  1  0.093292  0  0.111075  0.135988  0  0.99488  0
H  H41  1  0.28131397  0.76639589  0.90528040  1  0.037921  0  0.108168  0.110535  0  0.979754  0
H  H42  1  0.48397751  0.07890617  0.41857357  1  0.040331  0  0.094252  0.094097  0  0.980213  0
H  H43  1  0.62635316  0.06703528  0.46908109  1  0.01976  0  0.093699  0.094367  0  0.977316  0
H  H44  1  0.51311653  0.93498580  0.41764460  1  0.04054  0  0.093564  0.093106  0  0.974462  0
H  H45  1  0.64319955  0.92425460  0.48719142  1  0.03085  0  0.093584  0.09497  0  0.977474  0
H  H46  1  0.62024165  0.93686034  0.55960874  1  0.000937  0  0.09013  0.085401  0  0.988598  0
C  C47  1  0.49987130  0.66390708  0.50476990  1  1.696731  0  0.215555  0.679165  0  4.233381  0
C  C48  1  0.49841620  0.41810405  0.87927208  1  1.325873  0  0.23519  0.435932  0  4.123904  0
C  C49  1  0.57385725  0.50059656  0.76451484  1  0.054644  0  -0.084203  -0.151532  0  3.976969  0
C  C50  1  0.50199406  0.49652427  0.61060331  1  1.556295  0  0.215319  0.595824  0  4.16921  0
C  C51  1  0.57787981  0.50065347  0.70587760  1  0.00641  0  -0.079097  -0.074854  0  3.969431  0
C  C52  1  0.49778533  0.49489293  0.67387605  1  0.016055  0  -0.012895  -0.026314  0  3.945523  0
C  C53  1  0.41347777  0.48834033  0.70126936  1  0.018587  0  -0.080356  -0.075331  0  3.974506  0
C  C54  1  0.40917089  0.48799657  0.75990204  1  -0.068284  0  -0.088681  -0.160161  0  3.991617  0
C  C55  1  0.48938987  0.49446340  0.79118554  1  0.308676  0  0.090389  0.203228  0  4.020095  0
C  C56  1  0.59502348  0.50948873  0.23791833  1  -0.032358  0  -0.085262  -0.15369  0  3.981255  0
C  C57  1  0.59586704  0.50917636  0.29665915  1  -0.028333  0  -0.079357  -0.075156  0  3.970405  0
C  C58  1  0.44393997  0.64478452  0.03092744  1  -0.040129  0  -0.071112  -0.173742  0  3.917569  0
C  C59  1  0.51386760  0.50684979  0.32693789  1  0.053481  0  -0.012597  -0.027326  0  3.947666  0
C  C60  1  0.43071499  0.50484330  0.29781145  1  -0.052712  0  -0.079562  -0.072497  0  3.970811  0
C  C61  1  0.42948610  0.50464106  0.23919568  1  -0.011438  0  -0.086544  -0.156961  0  3.988618  0
C  C62  1  0.49361237  0.33926329  0.49800293  1  1.709459  0  0.215681  0.678359  0  4.234889  0
C  C63  1  0.51167627  0.50698735  0.20962524  1  0.364123  0  0.089369  0.199389  0  4.019417  0
C  C64  1  0.46409993  0.95292377  0.45077088  1  -0.061384  0  -0.154246  -0.185499  0  3.85943  0
C  C65  1  0.59642417  0.95468288  0.51733088  1  -0.015418  0  -0.156543  -0.195904  0  3.871797  0
C  C66  1  0.59543125  0.05018274  0.50960482  1  0.004076  0  -0.157609  -0.187977  0  3.87871  0
C  C67  1  0.45129366  0.04831993  0.45450688  1  -0.03131  0  -0.157042  -0.183598  0  3.856393  0
C  C68  1  0.49378755  0.24946265  0.50060057  1  0.203966  0  -0.060565  -0.220098  0  3.9741  0
C  C69  1  0.43038761  0.64424023  0.97122545  1  0.494318  0  0.125064  0.235219  0  4.044168  0
C  C70  1  0.49923303  0.92015752  0.50808678  1  0.21542  0  -0.001698  0.188144  0  3.896411  0
C  C71  1  0.49573152  0.08414431  0.50925425  1  0.071232  0  0.003707  0.081522  0  3.816277  0
C  C72  1  0.44691956  0.05029340  0.56466889  1  0.68439  0  0.17466  0.311871  0  3.778085  0
C  C73  1  0.43463138  0.95502476  0.55455080  1  -0.028529  0  -0.155809  -0.305433  0  3.815516  0
C  C74  1  0.49400923  0.17420473  0.50613114  1  -0.514435  0  -0.024942  -0.019602  0  4.058872  0
C  C75  1  0.49989952  0.82975521  0.50794936  1  -0.619198  0  -0.034643  -0.051676  0  4.04576  0
C  C76  1  0.51409391  0.50596583  0.39025737  1  1.513077  0  0.214733  0.595195  0  4.172888  0
C  C77  1  0.50047321  0.75400156  0.50693401  1  0.203398  0  -0.066184  -0.218823  0  4.004252  0
C  C78  1  0.94771511  0.58705228  0.51813041  1  -0.079557  0  -0.143167  -0.185947  0  3.839673  0
C  C79  1  0.05320276  0.58919838  0.51609744  1  0.008072  0  -0.143248  -0.185925  0  3.840256  0
C  C80  1  0.45826873  0.57228889  0.94022006  1  0.011927  0  -0.030624  -0.202389  0  3.961915  0
C  C81  1  0.94813492  0.47573783  0.44195146  1  -0.046094  0  -0.143223  -0.185789  0  3.839218  0
C  C82  1  0.05368040  0.47724339  0.44028508  1  -0.039952  0  -0.142915  -0.185649  0  3.841646  0
C  C83  1  0.91488919  0.49840675  0.50221175  1  0.163194  0  0.013673  0.107262  0  3.914891  0
C  C84  1  0.09052940  0.50184750  0.49926449  1  0.184781  0  0.01404  0.109223  0  3.912438  0
C  C85  1  0.05954494  0.43693940  0.54321323  1  -0.049261  0  -0.143079  -0.184972  0  3.838991  0
C  C86  1  0.95398388  0.43444972  0.54468786  1  -0.009038  0  -0.14322  -0.186587  0  3.842331  0
C  C87  1  0.18933653  0.50398129  0.49763006  1  0.852232  0  0.242912  0.284813  0  3.868598  0
C  C88  1  0.81604995  0.49696773  0.50365302  1  0.831976  0  0.24307  0.286553  0  3.867826  0
C  C89  1  0.52933557  0.42935616  0.12138554  1  1.336512  0  0.243012  0.439285  0  4.094681  0
C  C90  1  0.48253192  0.58025747  0.12186210  1  1.352301  0  0.243578  0.442732  0  4.094276  0
C  C91  1  0.48447374  0.49900776  0.97017446  1  -0.065623  0  0.002269  0.050492  0  4.00931  0
C  C92  1  0.47373284  0.57567363  0.05952306  1  -0.046845  0  -0.009441  -0.047771  0  4.032942  0
C  C93  1  0.49246609  0.50002563  0.03003506  1  0.013298  0  -0.006603  0.014251  0  4.02077  0
C  C94  1  0.51997654  0.42777615  0.05916712  1  -0.010875  0  -0.009098  -0.062275  0  4.00493  0
C  C95  1  0.28818388  0.10231310  0.53761752  1  0.296134  0  -0.149182  -0.208255  0  4.046154  0
C  C96  1  0.53254042  0.14242734  0.63246956  1  0.304487  0  -0.15377  -0.211269  0  4.011263  0
C  C97  1  0.33399919  0.71830875  0.89860791  1  0.283795  0  -0.130729  -0.221157  0  3.961255  0
C  C98  1  0.50443410  0.42321664  0.94139784  1  0.009631  0  -0.011239  -0.070001  0  3.982951  0
C  C99  1  0.52991796  0.35198190  0.97111849  1  0.003601  0  -0.068563  -0.072086  0  3.955252  0
C  C100  1  0.53829951  0.35391865  0.02978352  1  0.019404  0  -0.075409  -0.089479  0  3.965949  0
C  C101  1  0.47297758  0.57311496  0.87897937  1  1.324521  0  0.231952  0.440246  0  4.126515  0
N  N102  1  0.50897920  0.50597415  0.14875443  1  -1.193242  0  -0.230915  -0.225968  0  3.583698  0
N  N103  1  0.48424067  0.49457825  0.85200275  1  -1.23953  0  -0.23578  -0.23279  0  3.594398  0
N  N104  1  0.26826832  0.50602735  0.49631467  1  -1.190454  0  -0.278857  -0.28683  0  3.127071  0
N  N105  1  0.73704947  0.49636967  0.50455316  1  -1.142289  0  -0.278158  -0.287246  0  3.124949  0
N  N106  1  0.36223889  0.09537487  0.57797553  1  -1.068304  0  -0.479837  -0.376608  0  3.447874  0
N  N107  1  0.50085614  0.05957736  0.61625856  1  -1.079742  0  -0.490847  -0.406808  0  3.459181  0
N  N108  1  0.38850768  0.71304066  0.94959547  1  -1.185426  0  -0.413526  -0.235276  0  3.586635  0
O  O109  1  0.42165332  0.62988078  0.50444316  1  -1.147966  0  -0.322121  -0.553145  0  2.251439  0
O  O110  1  0.46727785  0.64443911  0.14901730  1  -1.105111  0  -0.284298  -0.441636  0  2.058114  0
O  O111  1  0.47956183  0.63727039  0.85091313  1  -1.116798  0  -0.281498  -0.446957  0  2.126991  0
O  O112  1  0.50779035  0.35271296  0.85232248  1  -1.113268  0  -0.292837  -0.453108  0  2.057997  0
O  O113  1  0.57738420  0.62722169  0.50319620  1  -1.147253  0  -0.320973  -0.556092  0  2.25518  0
O  O114  1  0.42603303  0.49525466  0.58446823  1  -1.172406  0  -0.320064  -0.55769  0  2.321012  0
O  O115  1  0.58081224  0.49936128  0.58810854  1  -1.159815  0  -0.32099  -0.554747  0  2.307142  0
O  O116  1  0.41591156  0.37522730  0.49430127  1  -1.142383  0  -0.323059  -0.55354  0  2.24675  0
O  O117  1  0.57133909  0.37438097  0.50015045  1  -1.150852  0  -0.321574  -0.559724  0  2.258909  0
O  O118  1  0.43628619  0.50853346  0.41422347  1  -1.168147  0  -0.318848  -0.557099  0  2.330506  0
O  O119  1  0.59122635  0.50258336  0.41491356  1  -1.159984  0  -0.321401  -0.55439  0  2.298977  0
O  O120  1  0.55286465  0.36814148  0.14877751  1  -1.092142  0  -0.27737  -0.432562  0  2.061196  0
