# generated using pymatgen
data_CdH16(C8N9)2
_symmetry_space_group_name_H-M   'P 1'
_cell_length_a   8.63041081
_cell_length_b   8.77048294
_cell_length_c   15.00451217
_cell_angle_alpha   92.27372480
_cell_angle_beta   90.00011082
_cell_angle_gamma   89.99996890
_symmetry_Int_Tables_number   1
_chemical_formula_structural   CdH16(C8N9)2
_chemical_formula_sum   'Cd2 H32 C32 N36'
_cell_volume   1134.84043077
_cell_formula_units_Z   2
loop_
 _symmetry_equiv_pos_site_id
 _symmetry_equiv_pos_as_xyz
  1  'x, y, z'
loop_
 _atom_site_type_symbol
 _atom_site_label
 _atom_site_symmetry_multiplicity
 _atom_site_fract_x
 _atom_site_fract_y
 _atom_site_fract_z
 _atom_site_occupancy
 _atom_site_hle17_bader_spin_density
 _atom_site_hle17_ddec_charge
 _atom_site_hle17_ddec_spin_density
 _atom_site_hle17_ddec_sum_bond_order
 _atom_site_hle17_magmom
 _atom_site_hse06_10hf_bader_spin_density
 _atom_site_hse06_10hf_ddec_charge
 _atom_site_hse06_10hf_ddec_spin_density
 _atom_site_hse06_10hf_ddec_sum_bond_order
 _atom_site_hse06_10hf_magmom
 _atom_site_hse06_bader_spin_density
 _atom_site_hse06_ddec_charge
 _atom_site_hse06_ddec_spin_density
 _atom_site_hse06_ddec_sum_bond_order
 _atom_site_hse06_magmom
 _atom_site_pbe_bader_spin_density
 _atom_site_pbe_cm5_charge
 _atom_site_pbe_ddec_charge
 _atom_site_pbe_ddec_spin_density
 _atom_site_pbe_ddec_sum_bond_order
 _atom_site_pbe_magmom
Cd  Cd0  1  0.00000116  0.00000228  0.99999872  1  0  1.067264  0  1.895338  0  0  0.868872  0  2.364509  0  0  0.916667  0  2.322671  0  0  0.810331  0.835299  0  2.392939  0
Cd  Cd1  1  0.49999892  0.49999622  0.50000183  1  0  1.067232  0  1.895368  0  0  0.868829  0  2.364541  0  0  0.916623  0  2.322704  0  0  0.810348  0.835265  0  2.392972  0
H  H2  1  0.06484430  0.39032519  0.95346170  1  0  0.084861  0  0.952043  0  0  0.093456  0  1.015638  0  0  0.094626  0  1.014659  0  0  0.130702  0.092537  0  1.016384  0
H  H3  1  0.56484422  0.10967391  0.54653857  1  0  0.084923  0  0.951987  0  0  0.093513  0  1.015588  0  0  0.094684  0  1.014608  0  0  0.130725  0.092599  0  1.016332  0
H  H4  1  0.93515586  0.60967637  0.04653882  1  0  0.08492  0  0.951992  0  0  0.093516  0  1.015584  0  0  0.094685  0  1.014606  0  0  0.130736  0.092599  0  1.016334  0
H  H5  1  0.43515593  0.89032309  0.45346185  1  0  0.084899  0  0.952019  0  0  0.093498  0  1.01561  0  0  0.094667  0  1.014632  0  0  0.130726  0.092585  0  1.016361  0
H  H6  1  0.26571064  0.14531439  0.15967816  1  0  0.114116  0  0.970782  0  0  0.119734  0  1.043023  0  0  0.123088  0  1.038532  0  0  0.135178  0.117308  0  1.046076  0
H  H7  1  0.76571026  0.35468627  0.34032206  1  0  0.114144  0  0.970788  0  0  0.119766  0  1.04302  0  0  0.123119  0  1.038534  0  0  0.135178  0.117339  0  1.046075  0
H  H8  1  0.73429067  0.85468718  0.84032303  1  0  0.11413  0  0.970779  0  0  0.119753  0  1.043024  0  0  0.123113  0  1.038517  0  0  0.135175  0.117329  0  1.046072  0
H  H9  1  0.23428874  0.64531300  0.65967774  1  0  0.11415  0  0.970793  0  0  0.119778  0  1.043021  0  0  0.123133  0  1.038531  0  0  0.135166  0.117351  0  1.046073  0
H  H10  1  0.61307781  0.06645656  0.93319218  1  0  0.090114  0  0.939264  0  0  0.098866  0  1.002424  0  0  0.100065  0  1.001624  0  0  0.131237  0.09791  0  1.003104  0
H  H11  1  0.11307772  0.43354251  0.56680681  1  0  0.090063  0  0.939343  0  0  0.09882  0  1.002495  0  0  0.100018  0  1.001697  0  0  0.131218  0.097867  0  1.003171  0
H  H12  1  0.38692118  0.93354500  0.06680701  1  0  0.090053  0  0.939368  0  0  0.09881  0  1.002523  0  0  0.100008  0  1.001725  0  0  0.131216  0.097856  0  1.003199  0
H  H13  1  0.88692127  0.56645448  0.43319161  1  0  0.090074  0  0.939287  0  0  0.098825  0  1.002459  0  0  0.100025  0  1.001659  0  0  0.131216  0.097868  0  1.003139  0
H  H14  1  0.83272068  0.28954166  0.15300088  1  0  0.107785  0  0.970916  0  0  0.114016  0  1.04258  0  0  0.116968  0  1.038823  0  0  0.132672  0.111861  0  1.045115  0
H  H15  1  0.33272049  0.21045783  0.34699939  1  0  0.107795  0  0.970943  0  0  0.114022  0  1.042612  0  0  0.116976  0  1.038848  0  0  0.13267  0.11187  0  1.045139  0
H  H16  1  0.16728064  0.71046219  0.84699970  1  0  0.107759  0  0.971021  0  0  0.114013  0  1.042641  0  0  0.116964  0  1.038887  0  0  0.132686  0.111867  0  1.045162  0
H  H17  1  0.66728082  0.78953689  0.65300098  1  0  0.107745  0  0.971037  0  0  0.113994  0  1.042665  0  0  0.116944  0  1.038913  0  0  0.132681  0.111845  0  1.04519  0
H  H18  1  0.42339844  0.35341193  0.23066851  1  0  0.093566  0  0.930457  0  0  0.108641  0  0.995643  0  0  0.109064  0  0.995556  0  0  0.118816  0.108267  0  0.995748  0
H  H19  1  0.92339794  0.14658751  0.26933186  1  0  0.093555  0  0.930457  0  0  0.108631  0  0.99565  0  0  0.109053  0  0.99556  0  0  0.118807  0.108254  0  0.995756  0
H  H20  1  0.57660403  0.64658849  0.76933332  1  0  0.093558  0  0.930492  0  0  0.108615  0  0.995663  0  0  0.109041  0  0.995568  0  0  0.118786  0.108238  0  0.99577  0
H  H21  1  0.07660337  0.85341062  0.73066658  1  0  0.093599  0  0.930419  0  0  0.108658  0  0.995607  0  0  0.109084  0  0.995509  0  0  0.118801  0.10828  0  0.995709  0
H  H22  1  0.36623074  0.54454542  0.21077046  1  0  0.099797  0  0.934326  0  0  0.110538  0  1.001032  0  0  0.111145  0  1.001369  0  0  0.118506  0.11006  0  1.000775  0
H  H23  1  0.86623014  0.95545521  0.28922816  1  0  0.09981  0  0.934301  0  0  0.110549  0  1.001021  0  0  0.111135  0  1.001385  0  0  0.118504  0.110069  0  1.000765  0
H  H24  1  0.63376941  0.45545614  0.78922939  1  0  0.099829  0  0.93432  0  0  0.110554  0  1.001015  0  0  0.111142  0  1.001374  0  0  0.118505  0.110073  0  1.000763  0
H  H25  1  0.13377118  0.04454406  0.71076965  1  0  0.099822  0  0.934329  0  0  0.110571  0  1.001013  0  0  0.111148  0  1.001386  0  0  0.118503  0.110089  0  1.000758  0
H  H26  1  0.54121060  0.55028695  0.07888751  1  0  0.098062  0  0.959684  0  0  0.099804  0  1.042136  0  0  0.102325  0  1.039861  0  0  0.114667  0.09803  0  1.043643  0
H  H27  1  0.04121054  0.94971155  0.42111204  1  0  0.098072  0  0.959657  0  0  0.09983  0  1.042124  0  0  0.10235  0  1.039851  0  0  0.114678  0.098047  0  1.043622  0
H  H28  1  0.45878955  0.44971347  0.92111365  1  0  0.098086  0  0.959642  0  0  0.09983  0  1.042087  0  0  0.102351  0  1.039814  0  0  0.114667  0.098048  0  1.043591  0
H  H29  1  0.95878846  0.05028658  0.57888508  1  0  0.098032  0  0.959643  0  0  0.09982  0  1.04206  0  0  0.102326  0  1.039803  0  0  0.114654  0.098056  0  1.043552  0
H  H30  1  0.64504593  0.50518106  0.17700771  1  0  0.095626  0  0.925534  0  0  0.112482  0  0.985385  0  0  0.112162  0  0.98698  0  0  0.120809  0.11265  0  0.98429  0
H  H31  1  0.14504319  0.99481854  0.32299265  1  0  0.095611  0  0.925578  0  0  0.112477  0  0.985444  0  0  0.112157  0  0.98704  0  0  0.120801  0.112634  0  0.98434  0
H  H32  1  0.35495538  0.49482051  0.82299348  1  0  0.095638  0  0.925528  0  0  0.11249  0  0.985381  0  0  0.112172  0  0.986975  0  0  0.120812  0.11265  0  0.984284  0
H  H33  1  0.85495465  0.00517960  0.67700713  1  0  0.095627  0  0.925553  0  0  0.112487  0  0.985419  0  0  0.112169  0  0.987011  0  0  0.120813  0.11265  0  0.984322  0
C  C34  1  0.13351384  0.36103221  0.01078778  1  0  0.194911  0  3.729436  0  0  0.143822  0  4.020315  0  0  0.15525  0  4.033919  0  0  0.143302  0.136464  0  4.01072  0
C  C35  1  0.63351524  0.13896737  0.48921293  1  0  0.194833  0  3.729291  0  0  0.14375  0  4.020177  0  0  0.155175  0  4.033788  0  0  0.143277  0.136384  0  4.01059  0
C  C36  1  0.86648631  0.63896936  0.98921407  1  0  0.194801  0  3.729301  0  0  0.143705  0  4.020208  0  0  0.155133  0  4.033812  0  0  0.143206  0.136336  0  4.010629  0
C  C37  1  0.36648607  0.86103076  0.51078551  1  0  0.194809  0  3.729287  0  0  0.143708  0  4.020199  0  0  0.155138  0  4.0338  0  0  0.143228  0.136329  0  4.010629  0
C  C38  1  0.23058938  0.23328647  0.11476913  1  0  0.173465  0  3.643522  0  0  0.091603  0  3.91086  0  0  0.105988  0  3.921638  0  0  0.160442  0.082655  0  3.903043  0
C  C39  1  0.73058920  0.26671307  0.38523103  1  0  0.173276  0  3.643579  0  0  0.091406  0  3.910908  0  0  0.105783  0  3.921697  0  0  0.160363  0.082467  0  3.903086  0
C  C40  1  0.76941077  0.76671395  0.88523137  1  0  0.173476  0  3.643524  0  0  0.091551  0  3.910848  0  0  0.105939  0  3.921629  0  0  0.160438  0.082604  0  3.903023  0
C  C41  1  0.26941095  0.73328507  0.61476809  1  0  0.173415  0  3.643461  0  0  0.091462  0  3.910787  0  0  0.10585  0  3.921565  0  0  0.160474  0.082523  0  3.902957  0
C  C42  1  0.63800949  0.14414466  0.98946439  1  0  0.202639  0  3.723272  0  0  0.15082  0  4.014499  0  0  0.162066  0  4.027883  0  0  0.142935  0.14356  0  4.005095  0
C  C43  1  0.13800925  0.35585326  0.51053593  1  0  0.202636  0  3.723445  0  0  0.150797  0  4.014677  0  0  0.162043  0  4.028062  0  0  0.142903  0.143542  0  4.005264  0
C  C44  1  0.36198950  0.85585690  0.01053613  1  0  0.202736  0  3.723385  0  0  0.150908  0  4.014591  0  0  0.162154  0  4.027976  0  0  0.142964  0.143641  0  4.005189  0
C  C45  1  0.86198858  0.64414259  0.48946380  1  0  0.202674  0  3.7233  0  0  0.150845  0  4.014527  0  0  0.162089  0  4.027911  0  0  0.142939  0.143585  0  4.005122  0
C  C46  1  0.75192607  0.25259572  0.10071889  1  0  0.170468  0  3.63738  0  0  0.093366  0  3.901343  0  0  0.107422  0  3.912948  0  0  0.156944  0.084694  0  3.892924  0
C  C47  1  0.25192720  0.24740609  0.39928134  1  0  0.170403  0  3.637408  0  0  0.093292  0  3.901362  0  0  0.107351  0  3.912967  0  0  0.156911  0.084629  0  3.892939  0
C  C48  1  0.24807409  0.74740698  0.89928233  1  0  0.170489  0  3.63739  0  0  0.093429  0  3.901373  0  0  0.107485  0  3.912978  0  0  0.156972  0.084757  0  3.89295  0
C  C49  1  0.74807411  0.75259319  0.60071846  1  0  0.170523  0  3.637367  0  0  0.093418  0  3.901334  0  0  0.107473  0  3.91294  0  0  0.156942  0.08475  0  3.892913  0
C  C50  1  0.40609209  0.43680448  0.17919961  1  0  -0.030661  0  3.614607  0  0  -0.110385  0  3.873272  0  0  -0.10713  0  3.884193  0  0  -0.043456  -0.112169  0  3.86558  0
C  C51  1  0.90609296  0.06319497  0.32080007  1  0  -0.030739  0  3.614556  0  0  -0.11047  0  3.873261  0  0  -0.107205  0  3.884198  0  0  -0.043488  -0.112253  0  3.865546  0
C  C52  1  0.59390922  0.56319594  0.82080155  1  0  -0.030696  0  3.614684  0  0  -0.110389  0  3.873215  0  0  -0.107119  0  3.884144  0  0  -0.043462  -0.112178  0  3.86552  0
C  C53  1  0.09390951  0.93680430  0.67919773  1  0  -0.030657  0  3.614569  0  0  -0.110414  0  3.87319  0  0  -0.107131  0  3.884119  0  0  -0.043423  -0.112195  0  3.865485  0
C  C54  1  0.55720647  0.46381532  0.12909409  1  0  -0.038528  0  3.610549  0  0  -0.113364  0  3.867781  0  0  -0.110616  0  3.878558  0  0  -0.045208  -0.11476  0  3.860162  0
C  C55  1  0.05720762  0.03618544  0.37090656  1  0  -0.038449  0  3.610455  0  0  -0.113344  0  3.867758  0  0  -0.110597  0  3.878535  0  0  -0.045181  -0.114725  0  3.860142  0
C  C56  1  0.44279252  0.53618739  0.87090779  1  0  -0.03858  0  3.610377  0  0  -0.113383  0  3.867585  0  0  -0.110634  0  3.878355  0  0  -0.04519  -0.114775  0  3.860002  0
C  C57  1  0.94279253  0.96381384  0.62909257  1  0  -0.038522  0  3.61038  0  0  -0.11341  0  3.867639  0  0  -0.110651  0  3.878412  0  0  -0.045223  -0.114827  0  3.860049  0
C  C58  1  0.06828885  0.79423482  0.18474912  1  0  0.503365  0  4.00475  0  0  0.464515  0  4.289579  0  0  0.491583  0  4.29954  0  0  0.301744  0.44603  0  4.282593  0
C  C59  1  0.56828846  0.70576254  0.31525309  1  0  0.503368  0  4.004698  0  0  0.464516  0  4.289528  0  0  0.491584  0  4.299488  0  0  0.301769  0.446039  0  4.282545  0
C  C60  1  0.93171015  0.20577244  0.81524886  1  0  0.503325  0  4.004838  0  0  0.464421  0  4.289673  0  0  0.491487  0  4.299641  0  0  0.301702  0.445941  0  4.282683  0
C  C61  1  0.43170821  0.29422421  0.68475310  1  0  0.503262  0  4.004569  0  0  0.464365  0  4.289413  0  0  0.491433  0  4.299383  0  0  0.301675  0.445887  0  4.282422  0
C  C62  1  0.01393354  0.56234061  0.24393083  1  0  0.475045  0  4.01235  0  0  0.446277  0  4.300177  0  0  0.470405  0  4.311575  0  0  0.281709  0.429905  0  4.292061  0
C  C63  1  0.51393283  0.93766018  0.25607007  1  0  0.475035  0  4.012395  0  0  0.446272  0  4.300217  0  0  0.470397  0  4.31162  0  0  0.281725  0.429901  0  4.292096  0
C  C64  1  0.98606198  0.43765752  0.75606895  1  0  0.475021  0  4.012353  0  0  0.446223  0  4.300174  0  0  0.470351  0  4.311577  0  0  0.281753  0.429848  0  4.292056  0
C  C65  1  0.48606037  0.06234823  0.74393127  1  0  0.474925  0  4.012379  0  0  0.446134  0  4.300198  0  0  0.470264  0  4.311603  0  0  0.281732  0.429755  0  4.292081  0
N  N66  1  0.28449177  0.37691205  0.12063519  1  0  0.043199  0  3.576334  0  0  0.167731  0  3.760056  0  0  0.157329  0  3.783596  0  0  -0.134272  0.173342  0  3.746178  0
N  N67  1  0.78449165  0.12308746  0.37936570  1  0  0.043251  0  3.5764  0  0  0.167794  0  3.760115  0  0  0.157428  0  3.783588  0  0  -0.134254  0.173407  0  3.746232  0
N  N68  1  0.71551070  0.62309065  0.87936603  1  0  0.043043  0  3.576526  0  0  0.167708  0  3.76006  0  0  0.157302  0  3.783605  0  0  -0.134311  0.173325  0  3.746178  0
N  N69  1  0.21550850  0.87690954  0.62063339  1  0  0.042931  0  3.576562  0  0  0.167669  0  3.760061  0  0  0.15725  0  3.783628  0  0  -0.134354  0.173287  0  3.746169  0
N  N70  1  0.22375525  0.46089911  0.05471705  1  0  -0.267674  0  2.855911  0  0  -0.275149  0  3.133841  0  0  -0.283031  0  3.148193  0  0  -0.222751  -0.269545  0  3.124119  0
N  N71  1  0.72375423  0.03910043  0.44528176  1  0  -0.267623  0  2.856014  0  0  -0.275102  0  3.13395  0  0  -0.282991  0  3.148304  0  0  -0.222728  -0.269498  0  3.124229  0
N  N72  1  0.77624375  0.53910360  0.94528349  1  0  -0.267554  0  2.855971  0  0  -0.275066  0  3.133858  0  0  -0.282946  0  3.148209  0  0  -0.222685  -0.269467  0  3.124142  0
N  N73  1  0.27624360  0.96089656  0.55471599  1  0  -0.267511  0  2.855938  0  0  -0.275054  0  3.133843  0  0  -0.28293  0  3.148194  0  0  -0.222682  -0.26945  0  3.124128  0
N  N74  1  0.13366804  0.21963405  0.04554082  1  0  -0.412277  0  3.218009  0  0  -0.336809  0  3.508598  0  0  -0.359205  0  3.523269  0  0  -0.350645  -0.321579  0  3.497966  0
N  N75  1  0.63366809  0.28036667  0.45445992  1  0  -0.412193  0  3.217876  0  0  -0.336726  0  3.50846  0  0  -0.359124  0  3.52314  0  0  -0.350619  -0.321497  0  3.497831  0
N  N76  1  0.86633211  0.78036980  0.95446042  1  0  -0.412242  0  3.217861  0  0  -0.336773  0  3.508464  0  0  -0.35917  0  3.523137  0  0  -0.350617  -0.321542  0  3.497831  0
N  N77  1  0.36633206  0.71963032  0.54553917  1  0  -0.412121  0  3.217788  0  0  -0.336642  0  3.508386  0  0  -0.359038  0  3.523058  0  0  -0.350599  -0.321411  0  3.497755  0
N  N78  1  0.61835416  0.32584613  0.08493318  1  0  0.043847  0  3.565318  0  0  0.163883  0  3.754104  0  0  0.152787  0  3.779476  0  0  -0.134101  0.169681  0  3.739533  0
N  N79  1  0.11835307  0.17415460  0.41506754  1  0  0.043849  0  3.565164  0  0  0.163915  0  3.753951  0  0  0.152816  0  3.779327  0  0  -0.134069  0.169697  0  3.73938  0
N  N80  1  0.38164599  0.67415772  0.91506805  1  0  0.044036  0  3.564884  0  0  0.163916  0  3.753838  0  0  0.152819  0  3.779209  0  0  -0.134081  0.169698  0  3.739276  0
N  N81  1  0.88164593  0.82584353  0.58493224  1  0  0.043885  0  3.565001  0  0  0.163916  0  3.753815  0  0  0.152821  0  3.779181  0  0  -0.13407  0.169702  0  3.739254  0
N  N82  1  0.54395204  0.25817176  0.01358402  1  0  -0.269905  0  2.876717  0  0  -0.270085  0  3.150022  0  0  -0.277885  0  3.163512  0  0  -0.220117  -0.264502  0  3.140887  0
N  N83  1  0.04395115  0.24182786  0.48641593  1  0  -0.269839  0  2.876746  0  0  -0.270023  0  3.150048  0  0  -0.277823  0  3.163538  0  0  -0.220086  -0.264442  0  3.140922  0
N  N84  1  0.45604811  0.74183094  0.98641720  1  0  -0.270033  0  2.876599  0  0  -0.270162  0  3.149936  0  0  -0.277963  0  3.163425  0  0  -0.220154  -0.264574  0  3.140806  0
N  N85  1  0.95604784  0.75816914  0.51358315  1  0  -0.269943  0  2.876614  0  0  -0.270118  0  3.149925  0  0  -0.277916  0  3.163412  0  0  -0.220139  -0.264531  0  3.140787  0
N  N86  1  0.76768075  0.13594343  0.04125015  1  0  -0.415373  0  3.175986  0  0  -0.346136  0  3.465968  0  0  -0.367517  0  3.480049  0  0  -0.347285  -0.331549  0  3.455681  0
N  N87  1  0.26768086  0.36405495  0.45875069  1  0  -0.415328  0  3.176089  0  0  -0.346062  0  3.466046  0  0  -0.367443  0  3.480129  0  0  -0.347251  -0.331482  0  3.455764  0
N  N88  1  0.23231940  0.86405927  0.95874973  1  0  -0.41539  0  3.176028  0  0  -0.346153  0  3.466003  0  0  -0.367534  0  3.480084  0  0  -0.347304  -0.331565  0  3.455716  0
N  N89  1  0.73231929  0.63594091  0.54124971  1  0  -0.415369  0  3.176023  0  0  -0.34613  0  3.466006  0  0  -0.367511  0  3.480089  0  0  -0.347282  -0.331549  0  3.455727  0
N  N90  1  0.09755988  0.68467313  0.23720291  1  0  -0.462986  0  3.275485  0  0  -0.409604  0  3.528777  0  0  -0.433044  0  3.532311  0  0  -0.315927  -0.393277  0  3.525693  0
N  N91  1  0.59755926  0.81532763  0.26279808  1  0  -0.462989  0  3.275374  0  0  -0.409609  0  3.528672  0  0  -0.433052  0  3.532206  0  0  -0.315974  -0.393287  0  3.525588  0
N  N92  1  0.90243796  0.31532957  0.76279630  1  0  -0.462933  0  3.275954  0  0  -0.409458  0  3.529179  0  0  -0.432895  0  3.532711  0  0  -0.315943  -0.393136  0  3.526098  0
N  N93  1  0.40243974  0.18466937  0.73720367  1  0  -0.462833  0  3.276211  0  0  -0.409366  0  3.529436  0  0  -0.432804  0  3.532968  0  0  -0.315929  -0.393046  0  3.526356  0
N  N94  1  0.05162094  0.90355988  0.14203587  1  0  -0.624703  0  2.777276  0  0  -0.572081  0  3.054411  0  0  -0.59468  0  3.058364  0  0  -0.39735  -0.55662  0  3.051662  0
N  N95  1  0.55162192  0.59644204  0.35796377  1  0  -0.624697  0  2.777353  0  0  -0.572067  0  3.054475  0  0  -0.594665  0  3.058427  0  0  -0.397352  -0.556612  0  3.051734  0
N  N96  1  0.94837921  0.09644282  0.85796401  1  0  -0.624705  0  2.777091  0  0  -0.572079  0  3.054245  0  0  -0.594682  0  3.058202  0  0  -0.397331  -0.556617  0  3.051494  0
N  N97  1  0.44837939  0.40356180  0.64203480  1  0  -0.62466  0  2.776701  0  0  -0.572031  0  3.053852  0  0  -0.594634  0  3.057812  0  0  -0.3973  -0.55657  0  3.051104  0
N  N98  1  0.94722289  0.44665976  0.25449313  1  0  -0.602399  0  2.633311  0  0  -0.580386  0  2.875494  0  0  -0.597503  0  2.882823  0  0  -0.383718  -0.568599  0  2.870379  0
N  N99  1  0.44722476  0.05333967  0.24550727  1  0  -0.602399  0  2.63331  0  0  -0.580388  0  2.87549  0  0  -0.597504  0  2.88282  0  0  -0.38372  -0.568599  0  2.870368  0
N  N100  1  0.05277959  0.55334636  0.74550683  1  0  -0.602393  0  2.63314  0  0  -0.580407  0  2.875361  0  0  -0.597525  0  2.882694  0  0  -0.383715  -0.568619  0  2.870241  0
N  N101  1  0.55278002  0.94665276  0.75449305  1  0  -0.60235  0  2.632981  0  0  -0.58037  0  2.875203  0  0  -0.597489  0  2.882537  0  0  -0.383691  -0.568575  0  2.870079  0
