# generated using pymatgen
data_SnH14(C5O)2
_symmetry_space_group_name_H-M   'P 1'
_cell_length_a   6.18815253
_cell_length_b   10.08951449
_cell_length_c   17.64900000
_cell_angle_alpha   90.00000000
_cell_angle_beta   98.79806348
_cell_angle_gamma   90.00000000
_symmetry_Int_Tables_number   1
_chemical_formula_structural   SnH14(C5O)2
_chemical_formula_sum   'Sn4 H56 C40 O8'
_cell_volume   1088.95761452
_cell_formula_units_Z   4
loop_
 _symmetry_equiv_pos_site_id
 _symmetry_equiv_pos_as_xyz
  1  'x, y, z'
loop_
 _atom_site_type_symbol
 _atom_site_label
 _atom_site_symmetry_multiplicity
 _atom_site_fract_x
 _atom_site_fract_y
 _atom_site_fract_z
 _atom_site_occupancy
 _atom_site_hle17_bader_spin_density
 _atom_site_hle17_ddec_charge
 _atom_site_hle17_ddec_spin_density
 _atom_site_hle17_ddec_sum_bond_order
 _atom_site_hle17_magmom
 _atom_site_hse06_10hf_bader_spin_density
 _atom_site_hse06_10hf_ddec_charge
 _atom_site_hse06_10hf_ddec_spin_density
 _atom_site_hse06_10hf_ddec_sum_bond_order
 _atom_site_hse06_10hf_magmom
 _atom_site_hse06_bader_spin_density
 _atom_site_hse06_ddec_charge
 _atom_site_hse06_ddec_spin_density
 _atom_site_hse06_ddec_sum_bond_order
 _atom_site_hse06_magmom
 _atom_site_pbe_bader_charge
 _atom_site_pbe_bader_spin_density
 _atom_site_pbe_cm5_charge
 _atom_site_pbe_ddec_charge
 _atom_site_pbe_ddec_spin_density
 _atom_site_pbe_ddec_sum_bond_order
 _atom_site_pbe_magmom
Sn  Sn0  1  0.56780327  0.67401658  0.22832239  1  0  1.390669  0  2.847854  0  0  1.265285  0  3.330324  0  0  1.304047  0  3.313471  0  1.694252  0  0.530074  1.238875  0  3.341109  0
Sn  Sn1  1  0.43231284  0.17404703  0.27167664  1  0  1.390728  0  2.84808  0  0  1.265306  0  3.330574  0  0  1.30407  0  3.313725  0  1.694267  0  0.530156  1.238946  0  3.341279  0
Sn  Sn2  1  0.43217385  0.32593541  0.77165276  1  0  1.3908  0  2.847423  0  0  1.265333  0  3.329982  0  0  1.304094  0  3.313135  0  1.694332  0  0.530217  1.238967  0  3.340696  0
Sn  Sn3  1  0.56766591  0.82597334  0.72832919  1  0  1.390835  0  2.848225  0  0  1.265485  0  3.330552  0  0  1.304248  0  3.313699  0  1.693886  0  0.530242  1.239112  0  3.341285  0
H  H4  1  0.56156322  0.89128570  0.13819399  1  0  0.14047  0  1.026132  0  0  0.158229  0  1.087332  0  0  0.159871  0  1.08982  0  0.040857  0  0.079682  0.156975  0  1.085734  0
H  H5  1  0.43848911  0.39133697  0.36181919  1  0  0.140608  0  1.025952  0  0  0.158367  0  1.087137  0  0  0.160011  0  1.089619  0  0.042277  0  0.079777  0.157104  0  1.085552  0
H  H6  1  0.43841553  0.10871088  0.86178918  1  0  0.140393  0  1.02626  0  0  0.158151  0  1.087459  0  0  0.159787  0  1.089955  0  0.040853  0  0.0797  0.156905  0  1.085853  0
H  H7  1  0.56149127  0.60868142  0.63817313  1  0  0.140502  0  1.026046  0  0  0.158296  0  1.087191  0  0  0.159942  0  1.089671  0  0.041236  0  0.079733  0.157031  0  1.085608  0
H  H8  1  0.77806304  0.78320617  0.12166192  1  0  0.151057  0  1.011387  0  0  0.168463  0  1.071277  0  0  0.171005  0  1.071643  0  0.035294  0  0.084626  0.166586  0  1.071063  0
H  H9  1  0.22202690  0.28319202  0.37834024  1  0  0.150936  0  1.011602  0  0  0.168365  0  1.071454  0  0  0.170908  0  1.071819  0  0.034841  0  0.084566  0.166485  0  1.071246  0
H  H10  1  0.22194514  0.21681123  0.87832906  1  0  0.151096  0  1.011337  0  0  0.168451  0  1.071292  0  0  0.170991  0  1.071663  0  0.035452  0  0.084623  0.166573  0  1.071081  0
H  H11  1  0.77796656  0.71680159  0.62166298  1  0  0.150912  0  1.011541  0  0  0.168354  0  1.071405  0  0  0.170895  0  1.071777  0  0.034736  0  0.084615  0.16648  0  1.071184  0
H  H12  1  0.81055674  0.89016374  0.20425555  1  0  0.154206  0  1.002455  0  0  0.174549  0  1.056093  0  0  0.176935  0  1.057074  0  0.024824  0  0.086349  0.172711  0  1.055626  0
H  H13  1  0.18948742  0.39014960  0.29574472  1  0  0.154253  0  1.002329  0  0  0.1746  0  1.055952  0  0  0.176988  0  1.05693  0  0.025528  0  0.086321  0.17276  0  1.055491  0
H  H14  1  0.18940730  0.10984077  0.79573419  1  0  0.154033  0  1.002561  0  0  0.174372  0  1.056228  0  0  0.176757  0  1.05721  0  0.024553  0  0.086279  0.172536  0  1.055763  0
H  H15  1  0.81046680  0.60983410  0.70424223  1  0  0.154204  0  1.002466  0  0  0.174554  0  1.056103  0  0  0.176944  0  1.057081  0  0.025693  0  0.086321  0.172715  0  1.055639  0
H  H16  1  0.68021075  0.52692030  0.35771119  1  0  0.13893  0  1.029582  0  0  0.157119  0  1.090129  0  0  0.159272  0  1.091063  0  0.033203  0  0.080512  0.155461  0  1.089738  0
H  H17  1  0.31988737  0.02693291  0.14230331  1  0  0.138999  0  1.029568  0  0  0.157266  0  1.089978  0  0  0.159427  0  1.090905  0  0.033002  0  0.080583  0.155605  0  1.089593  0
H  H18  1  0.31975491  0.47312386  0.64228771  1  0  0.139023  0  1.029507  0  0  0.157163  0  1.090163  0  0  0.159324  0  1.091092  0  0.033749  0  0.080512  0.155494  0  1.089779  0
H  H19  1  0.68009956  0.97308845  0.85769106  1  0  0.138937  0  1.029597  0  0  0.157165  0  1.090083  0  0  0.159326  0  1.09101  0  0.032988  0  0.080566  0.155508  0  1.089688  0
H  H20  1  0.88417489  0.65073498  0.35279423  1  0  0.152412  0  1.018491  0  0  0.168385  0  1.078861  0  0  0.169854  0  1.082311  0  0.067057  0  0.082509  0.16733  0  1.076552  0
H  H21  1  0.11593795  0.15075552  0.14722956  1  0  0.152372  0  1.018934  0  0  0.168318  0  1.079295  0  0  0.169792  0  1.082739  0  0.067943  0  0.082419  0.167262  0  1.076989  0
H  H22  1  0.11576298  0.34932900  0.64720941  1  0  0.152193  0  1.019076  0  0  0.168353  0  1.079176  0  0  0.169826  0  1.082621  0  0.066655  0  0.08248  0.167297  0  1.076871  0
H  H23  1  0.88406205  0.84925593  0.85278025  1  0  0.152397  0  1.018943  0  0  0.168364  0  1.079259  0  0  0.16984  0  1.0827  0  0.068189  0  0.082431  0.167308  0  1.076951  0
H  H24  1  0.87659231  0.50400542  0.29500530  1  0  0.153774  0  1.000725  0  0  0.173331  0  1.054807  0  0  0.175975  0  1.055458  0  0.037224  0  0.08641  0.171297  0  1.054709  0
H  H25  1  0.12352380  0.00402695  0.20502886  1  0  0.154015  0  1.000467  0  0  0.173542  0  1.054551  0  0  0.176192  0  1.055191  0  0.037911  0  0.086499  0.171506  0  1.054456  0
H  H26  1  0.12341914  0.49604072  0.70501758  1  0  0.153852  0  1.000698  0  0  0.173437  0  1.054774  0  0  0.176081  0  1.055429  0  0.036848  0  0.086471  0.171401  0  1.054679  0
H  H27  1  0.87646640  0.99596666  0.79496511  1  0  0.153945  0  1.000569  0  0  0.173475  0  1.054649  0  0  0.176126  0  1.055287  0  0.037909  0  0.086469  0.17144  0  1.054554  0
H  H28  1  0.17695664  0.55301075  0.18811027  1  0  0.160756  0  0.998599  0  0  0.176373  0  1.058743  0  0  0.179704  0  1.058113  0  0.059249  0  0.087001  0.173946  0  1.059385  0
H  H29  1  0.82314966  0.05305409  0.31189333  1  0  0.160784  0  0.998699  0  0  0.176399  0  1.058826  0  0  0.179735  0  1.058185  0  0.05281  0  0.087022  0.173972  0  1.059465  0
H  H30  1  0.82301066  0.44698186  0.81187794  1  0  0.160904  0  0.998416  0  0  0.176551  0  1.058512  0  0  0.179881  0  1.057883  0  0.059643  0  0.087108  0.174124  0  1.059151  0
H  H31  1  0.17686997  0.94696331  0.68812092  1  0  0.160742  0  0.998608  0  0  0.176357  0  1.058746  0  0  0.179693  0  1.058104  0  0.052705  0  0.087026  0.173929  0  1.059388  0
H  H32  1  0.14154078  0.72906283  0.17883151  1  0  0.152477  0  1.004885  0  0  0.171543  0  1.061643  0  0  0.173456  0  1.063821  0  0.041204  0  0.084992  0.170039  0  1.060465  0
H  H33  1  0.85860149  0.22904868  0.32117062  1  0  0.152441  0  1.00498  0  0  0.171543  0  1.061687  0  0  0.173455  0  1.063866  0  0.060659  0  0.085005  0.17004  0  1.060512  0
H  H34  1  0.85845105  0.27093573  0.82116709  1  0  0.152446  0  1.004836  0  0  0.17154  0  1.061574  0  0  0.173454  0  1.063752  0  0.041399  0  0.084978  0.170035  0  1.0604  0
H  H35  1  0.14138544  0.77096673  0.67883111  1  0  0.152433  0  1.004997  0  0  0.171478  0  1.061776  0  0  0.17339  0  1.063955  0  0.060905  0  0.084957  0.169973  0  1.060604  0
H  H36  1  0.16968803  0.65336147  0.27149405  1  0  0.152245  0  1.010141  0  0  0.170481  0  1.067981  0  0  0.172189  0  1.07071  0  0.062576  0  0.085051  0.169165  0  1.066356  0
H  H37  1  0.83047550  0.15338201  0.22852169  1  0  0.152341  0  1.009696  0  0  0.170493  0  1.067696  0  0  0.172206  0  1.070419  0  0.061776  0  0.085105  0.169177  0  1.066078  0
H  H38  1  0.83033814  0.34663115  0.72850355  1  0  0.15218  0  1.010233  0  0  0.170392  0  1.068118  0  0  0.172103  0  1.070841  0  0.062303  0  0.085017  0.169075  0  1.0665  0
H  H39  1  0.16954086  0.84662052  0.77148729  1  0  0.152292  0  1.009901  0  0  0.17049  0  1.067815  0  0  0.172202  0  1.070531  0  0.061646  0  0.085099  0.169175  0  1.066195  0
H  H40  1  0.48341057  0.16890406  0.08248256  1  0  0.087565  0  0.983751  0  0  0.097333  0  1.051428  0  0  0.099989  0  1.050268  0  0.114938  0  0.101694  0.09523  0  1.052824  0
H  H41  1  0.51664340  0.66891227  0.41752787  1  0  0.087601  0  0.983536  0  0  0.097319  0  1.051269  0  0  0.099968  0  1.050132  0  0.114857  0  0.101692  0.09521  0  1.052673  0
H  H42  1  0.51668755  0.83105485  0.91751041  1  0  0.087591  0  0.98335  0  0  0.097363  0  1.051032  0  0  0.100019  0  1.049878  0  0.114612  0  0.101692  0.095201  0  1.052493  0
H  H43  1  0.48328793  0.33108035  0.58246465  1  0  0.087514  0  0.983546  0  0  0.097252  0  1.051227  0  0  0.099931  0  1.050061  0  0.113944  0  0.101657  0.095094  0  1.052677  0
H  H44  1  0.66818199  0.03032158  0.99368744  1  0  0.079284  0  0.973832  0  0  0.091005  0  1.036231  0  0  0.093289  0  1.035726  0  0.050687  0  0.09806  0.089538  0  1.036486  0
H  H45  1  0.33180494  0.53034167  0.50631090  1  0  0.079064  0  0.973896  0  0  0.090871  0  1.036221  0  0  0.093156  0  1.035715  0  0.05098  0  0.09802  0.089406  0  1.036473  0
H  H46  1  0.33189978  0.96965320  0.00630239  1  0  0.079118  0  0.973938  0  0  0.090915  0  1.036266  0  0  0.093189  0  1.03576  0  0.046706  0  0.098098  0.089459  0  1.036502  0
H  H47  1  0.66812802  0.46965193  0.49368398  1  0  0.07911  0  0.974089  0  0  0.09092  0  1.036391  0  0  0.093198  0  1.035881  0  0.046532  0  0.098064  0.089461  0  1.036632  0
H  H48  1  0.00100730  0.11348118  0.94735472  1  0  0.08328  0  0.971807  0  0  0.094806  0  1.035026  0  0  0.097056  0  1.034774  0  0.064584  0  0.099487  0.093309  0  1.035112  0
H  H49  1  0.99896818  0.61350821  0.55262714  1  0  0.083089  0  0.971635  0  0  0.094634  0  1.034877  0  0  0.09688  0  1.034626  0  0.06498  0  0.099443  0.093132  0  1.034969  0
H  H50  1  0.99906302  0.88651639  0.05263223  1  0  0.083105  0  0.971671  0  0  0.094511  0  1.035081  0  0  0.096757  0  1.034835  0  0.064921  0  0.099384  0.093012  0  1.035168  0
H  H51  1  0.00098441  0.38650026  0.44737955  1  0  0.083042  0  0.971674  0  0  0.09448  0  1.035074  0  0  0.096728  0  1.034821  0  0.065145  0  0.099349  0.092978  0  1.035164  0
H  H52  1  0.15630202  0.33381388  0.99119773  1  0  0.095298  0  0.949594  0  0  0.105843  0  1.009239  0  0  0.108914  0  1.008023  0  0.089942  0  0.104181  0.103465  0  1.010477  0
H  H53  1  0.84378792  0.83385677  0.50880046  1  0  0.095292  0  0.949835  0  0  0.10584  0  1.009473  0  0  0.108893  0  1.008272  0  0.090692  0  0.10414  0.103463  0  1.010713  0
H  H54  1  0.84379610  0.66618766  0.00880487  1  0  0.095315  0  0.94956  0  0  0.105895  0  1.009171  0  0  0.108924  0  1.007995  0  0.089919  0  0.10419  0.103533  0  1.010385  0
H  H55  1  0.15618756  0.16616360  0.49121142  1  0  0.095227  0  0.94969  0  0  0.105809  0  1.009292  0  0  0.108836  0  1.008117  0  0.090482  0  0.104133  0.103443  0  1.010505  0
H  H56  1  0.97117250  0.47041411  0.07980554  1  0  0.094901  0  0.969851  0  0  0.103769  0  1.035542  0  0  0.106676  0  1.034119  0  0.110098  0  0.10425  0.101819  0  1.036404  0
H  H57  1  0.02895015  0.97047385  0.42022387  1  0  0.094883  0  0.969812  0  0  0.103657  0  1.035616  0  0  0.106576  0  1.034179  0  0.109899  0  0.104285  0.10166  0  1.036522  0
H  H58  1  0.02888474  0.52955472  0.92021413  1  0  0.094895  0  0.969731  0  0  0.103799  0  1.035387  0  0  0.106706  0  1.033965  0  0.110138  0  0.104302  0.101796  0  1.036303  0
H  H59  1  0.97102860  0.02954057  0.57978592  1  0  0.094901  0  0.969796  0  0  0.103642  0  1.035673  0  0  0.106547  0  1.034253  0  0.110178  0  0.104276  0.101694  0  1.036532  0
C  C60  1  0.69617880  0.82929461  0.16561609  1  0  -0.709159  0  3.513149  0  0  -0.749923  0  3.738957  0  0  -0.763565  0  3.746222  0  -0.419879  0  -0.337006  -0.739965  0  3.733735  0
C  C61  1  0.30388662  0.32931813  0.33439326  1  0  -0.709243  0  3.512948  0  0  -0.750099  0  3.738759  0  0  -0.763745  0  3.746019  0  -0.421254  0  -0.337054  -0.740141  0  3.733562  0
C  C62  1  0.30380486  0.17069801  0.83437584  1  0  -0.708817  0  3.513267  0  0  -0.749508  0  3.739113  0  0  -0.763144  0  3.746396  0  -0.419669  0  -0.336864  -0.739567  0  3.73388  0
C  C63  1  0.69607250  0.67070026  0.66561096  1  0  -0.709152  0  3.513225  0  0  -0.750057  0  3.739052  0  0  -0.763707  0  3.746308  0  -0.420405  0  -0.337127  -0.740096  0  3.733851  0
C  C64  1  0.77790442  0.57753721  0.31985501  1  0  -0.718211  0  3.519322  0  0  -0.758119  0  3.74963  0  0  -0.771414  0  3.756141  0  -0.456165  0  -0.335661  -0.74898  0  3.745461  0
C  C65  1  0.22218389  0.07754585  0.18015159  1  0  -0.71834  0  3.51943  0  0  -0.758298  0  3.749575  0  0  -0.771604  0  3.756059  0  -0.457433  0  -0.335683  -0.74918  0  3.745452  0
C  C66  1  0.22206942  0.42250893  0.68014772  1  0  -0.718226  0  3.519832  0  0  -0.758274  0  3.749758  0  0  -0.771576  0  3.756243  0  -0.456004  0  -0.335747  -0.749133  0  3.745633  0
C  C67  1  0.77781449  0.92246064  0.81985189  1  0  -0.718266  0  3.519574  0  0  -0.758232  0  3.749725  0  0  -0.77154  0  3.756205  0  -0.457612  0  -0.335643  -0.74911  0  3.745594  0
C  C68  1  0.22060589  0.64914323  0.21482758  1  0  -0.715621  0  3.506791  0  0  -0.755473  0  3.732532  0  0  -0.769227  0  3.739372  0  -0.466376  0  -0.33329  -0.745974  0  3.728196  0
C  C69  1  0.77944154  0.14916773  0.28517514  1  0  -0.7159  0  3.5071  0  0  -0.755673  0  3.732935  0  0  -0.769434  0  3.739775  0  -0.478769  0  -0.333491  -0.746182  0  3.728604  0
C  C70  1  0.77937940  0.35084344  0.78516274  1  0  -0.715793  0  3.506592  0  0  -0.755682  0  3.732319  0  0  -0.769438  0  3.739158  0  -0.466607  0  -0.333438  -0.746189  0  3.727989  0
C  C71  1  0.22053884  0.85084173  0.71483248  1  0  -0.71576  0  3.507071  0  0  -0.755559  0  3.732911  0  0  -0.769317  0  3.739746  0  -0.478361  0  -0.333444  -0.746065  0  3.72858  0
C  C72  1  0.60651248  0.40999792  0.14049803  1  0  0.656048  0  3.883095  0  0  0.604376  0  4.173343  0  0  0.639564  0  4.163662  0  1.548017  0  0.227773  0.580641  0  4.179059  0
C  C73  1  0.39359382  0.91003388  0.35951917  1  0  0.656311  0  3.882958  0  0  0.604486  0  4.173388  0  0  0.639672  0  4.163707  0  1.550539  0  0.228014  0.580734  0  4.179099  0
C  C74  1  0.39352841  0.58996892  0.85949980  1  0  0.656297  0  3.883017  0  0  0.604443  0  4.173475  0  0  0.639629  0  4.163801  0  1.549884  0  0.228016  0.580692  0  4.179185  0
C  C75  1  0.60635877  0.08997261  0.64047733  1  0  0.6563  0  3.883075  0  0  0.604446  0  4.173532  0  0  0.63963  0  4.163853  0  1.551377  0  0.228056  0.580698  0  4.179243  0
C  C76  1  0.71623982  0.32765501  0.08672367  1  0  -0.075732  0  3.768016  0  0  -0.048977  0  3.995069  0  0  -0.057189  0  4.017512  0  -0.094289  0  -0.016895  -0.043696  0  3.980126  0
C  C77  1  0.28387138  0.82770682  0.41329890  1  0  -0.075909  0  3.767865  0  0  -0.049124  0  3.994991  0  0  -0.057334  0  4.017433  0  -0.098121  0  -0.016864  -0.043779  0  3.979958  0
C  C78  1  0.28382723  0.67231183  0.91328293  1  0  -0.075866  0  3.767855  0  0  -0.04903  0  3.994934  0  0  -0.057239  0  4.017383  0  -0.097015  0  -0.016845  -0.043684  0  3.979884  0
C  C79  1  0.71609265  0.17229868  0.58670274  1  0  -0.076178  0  3.768369  0  0  -0.049359  0  3.995489  0  0  -0.05757  0  4.017945  0  -0.098693  0  -0.016967  -0.044019  0  3.980455  0
C  C80  1  0.63133530  0.20341811  0.06234543  1  0  -0.078615  0  3.749203  0  0  -0.100843  0  3.990656  0  0  -0.100573  0  4.011487  0  -0.037824  0  -0.084141  -0.100929  0  3.977093  0
C  C81  1  0.36869577  0.70344614  0.43766208  1  0  -0.078503  0  3.748991  0  0  -0.100685  0  3.990474  0  0  -0.100418  0  4.0113  0  -0.039591  0  -0.084054  -0.100786  0  3.976895  0
C  C82  1  0.36874483  0.79655171  0.93765621  1  0  -0.078585  0  3.748739  0  0  -0.100845  0  3.990254  0  0  -0.100579  0  4.011079  0  -0.037471  0  -0.084116  -0.100904  0  3.976706  0
C  C83  1  0.63122084  0.29654152  0.56233249  1  0  -0.078364  0  3.748668  0  0  -0.100572  0  3.990178  0  0  -0.100331  0  4.010988  0  -0.036451  0  -0.08407  -0.100634  0  3.976629  0
C  C84  1  0.73352423  0.12729651  0.01225143  1  0  -0.081348  0  3.785367  0  0  -0.090567  0  4.031939  0  0  -0.094015  0  4.053933  0  -0.114117  0  -0.092818  -0.088437  0  4.016819  0
C  C85  1  0.26649213  0.62732156  0.48774395  1  0  -0.081318  0  3.785136  0  0  -0.090598  0  4.031768  0  0  -0.094046  0  4.053761  0  -0.11268  0  -0.09294  -0.088471  0  4.016653  0
C  C86  1  0.26655591  0.87267430  0.98774737  1  0  -0.081561  0  3.78519  0  0  -0.090834  0  4.031868  0  0  -0.094268  0  4.053849  0  -0.11025  0  -0.093083  -0.088708  0  4.016743  0
C  C87  1  0.73345882  0.37268295  0.51225302  1  0  -0.081538  0  3.785098  0  0  -0.090824  0  4.03174  0  0  -0.094265  0  4.053737  0  -0.110586  0  -0.09298  -0.088694  0  4.016611  0
C  C88  1  0.92169692  0.17400738  0.98628476  1  0  -0.061175  0  3.760976  0  0  -0.076441  0  4.00645  0  0  -0.076671  0  4.027329  0  0.029373  0  -0.085393  -0.076026  0  3.991932  0
C  C89  1  0.07831453  0.67403442  0.51370979  1  0  -0.060974  0  3.760016  0  0  -0.076273  0  4.005588  0  0  -0.0765  0  4.026455  0  0.029379  0  -0.085392  -0.075858  0  3.991082  0
C  C90  1  0.07837994  0.82598722  0.01370877  1  0  -0.060685  0  3.760544  0  0  -0.075865  0  4.006038  0  0  -0.076091  0  4.026894  0  0.02916  0  -0.085151  -0.075452  0  3.991536  0
C  C91  1  0.92162661  0.32597604  0.48629232  1  0  -0.060668  0  3.760096  0  0  -0.075892  0  4.005616  0  0  -0.076115  0  4.026467  0  0.029224  0  -0.085172  -0.075481  0  3.991115  0
C  C92  1  0.00819415  0.29741173  0.01076184  1  0  -0.075732  0  3.755992  0  0  -0.086248  0  4.004938  0  0  -0.089574  0  4.025585  0  -0.073442  0  -0.087854  -0.083852  0  3.990923  0
C  C93  1  0.99188926  0.79746255  0.48924394  1  0  -0.075645  0  3.756037  0  0  -0.08614  0  4.004923  0  0  -0.089452  0  4.025577  0  -0.073172  0  -0.087682  -0.083742  0  3.990898  0
C  C94  1  0.99190234  0.70257791  0.98924577  1  0  -0.075647  0  3.756119  0  0  -0.086152  0  4.00499  0  0  -0.089442  0  4.025652  0  -0.072243  0  -0.087759  -0.083762  0  3.990945  0
C  C95  1  0.00808132  0.20255484  0.51076485  1  0  -0.075671  0  3.756007  0  0  -0.086175  0  4.00486  0  0  -0.089465  0  4.025518  0  -0.073115  0  -0.087809  -0.083779  0  3.990825  0
C  C96  1  0.90524485  0.37413396  0.06045033  1  0  -0.061984  0  3.716562  0  0  -0.087034  0  3.961062  0  0  -0.085812  0  3.980255  0  -0.058177  0  -0.080104  -0.087874  0  3.947882  0
C  C97  1  0.09485654  0.87419766  0.43956944  1  0  -0.061913  0  3.716513  0  0  -0.086928  0  3.961118  0  0  -0.085713  0  3.980294  0  -0.058748  0  -0.080247  -0.087745  0  3.947948  0
C  C98  1  0.09482220  0.62583487  0.93956080  1  0  -0.062184  0  3.716524  0  0  -0.087331  0  3.961118  0  0  -0.086115  0  3.980298  0  -0.058512  0  -0.080423  -0.088145  0  3.947953  0
C  C99  1  0.90509604  0.12581279  0.56043159  1  0  -0.061664  0  3.716708  0  0  -0.086687  0  3.961362  0  0  -0.085464  0  3.980543  0  -0.058544  0  -0.080045  -0.087548  0  3.948169  0
O  O100  1  0.64911845  0.53528839  0.13998675  1  0  -0.623656  0  2.035701  0  0  -0.552999  0  2.273412  0  0  -0.579713  0  2.265556  0  -1.18165  0  -0.283132  -0.534331  0  2.27791  0
O  O101  1  0.35109904  0.03532975  0.36003472  1  0  -0.623712  0  2.035707  0  0  -0.552894  0  2.273372  0  0  -0.579601  0  2.265506  0  -1.182069  0  -0.283263  -0.534237  0  2.277877  0
O  O102  1  0.35098785  0.46466953  0.86003329  1  0  -0.62376  0  2.035418  0  0  -0.552949  0  2.273093  0  0  -0.57965  0  2.265215  0  -1.182144  0  -0.283271  -0.534287  0  2.277593  0
O  O103  1  0.64889933  0.96468071  0.63997386  1  0  -0.623647  0  2.035636  0  0  -0.552822  0  2.273332  0  0  -0.579529  0  2.265472  0  -1.182056  0  -0.283208  -0.534163  0  2.277838  0
O  O104  1  0.48193887  0.35811039  0.18252092  1  0  -0.642072  0  2.007878  0  0  -0.57416  0  2.242285  0  0  -0.599944  0  2.235192  0  -1.201473  0  -0.286283  -0.556216  0  2.246523  0
O  O105  1  0.51812819  0.85810274  0.31749361  1  0  -0.642336  0  2.007495  0  0  -0.574386  0  2.241964  0  0  -0.600169  0  2.234864  0  -1.200574  0  -0.286454  -0.556444  0  2.24622  0
O  O106  1  0.51805624  0.64187925  0.81747332  1  0  -0.64224  0  2.007983  0  0  -0.574278  0  2.24245  0  0  -0.600063  0  2.235356  0  -1.20114  0  -0.28644  -0.556338  0  2.246699  0
O  O107  1  0.48179006  0.14189186  0.68249424  1  0  -0.642257  0  2.007851  0  0  -0.574325  0  2.242393  0  0  -0.600106  0  2.235292  0  -1.200942  0  -0.286459  -0.556388  0  2.246648  0
