# generated using pymatgen
data_Dy2Cu3P6H24C30(NO3)6
_symmetry_space_group_name_H-M   'P 1'
_cell_length_a   10.13605724
_cell_length_b   11.31624742
_cell_length_c   11.31649864
_cell_angle_alpha   111.48632711
_cell_angle_beta   107.37401043
_cell_angle_gamma   107.36893760
_symmetry_Int_Tables_number   1
_chemical_formula_structural   Dy2Cu3P6H24C30(NO3)6
_chemical_formula_sum   'Dy2 Cu3 P6 H24 C30 N6 O18'
_cell_volume   1023.92435877
_cell_formula_units_Z   1
loop_
 _symmetry_equiv_pos_site_id
 _symmetry_equiv_pos_as_xyz
  1  'x, y, z'
loop_
 _atom_site_type_symbol
 _atom_site_label
 _atom_site_symmetry_multiplicity
 _atom_site_fract_x
 _atom_site_fract_y
 _atom_site_fract_z
 _atom_site_occupancy
 _atom_site_pbe_cm5_charge
 _atom_site_pbe_ddec_charge
 _atom_site_pbe_ddec_spin_density
 _atom_site_pbe_ddec_sum_bond_order
 _atom_site_pbe_magmom
Dy  Dy0  1  0.99999393  0.99999670  0.99999649  1  1.586779  2.251626  0.000514  2.256906  0.0
Dy  Dy1  1  0.50000228  0.99999975  0.99999699  1  1.585441  2.264635  0.00141  2.218059  0.002
Cu  Cu2  1  0.99999693  0.00000032  0.50000266  1  0.769143  0.758694  0.723699  2.297669  0.564
Cu  Cu3  1  0.99999866  0.50000385  0.99999901  1  0.76959  0.758809  0.723645  2.297173  0.564
Cu  Cu4  1  0.49999324  0.49999194  0.49999534  1  0.769666  0.759298  0.723699  2.297543  0.564
P  P5  1  0.15826620  0.98541681  0.75302653  1  0.346018  1.287816  0.006257  5.52001  0.004
P  P6  1  0.17280208  0.76759499  0.01450402  1  0.345834  1.285587  0.006255  5.521887  0.004
P  P7  1  0.40516803  0.24689856  0.23235071  1  0.345949  1.287189  0.006272  5.518333  0.004
P  P8  1  0.84173343  0.01458096  0.24697542  1  0.346066  1.287813  0.006257  5.519879  0.004
P  P9  1  0.82720079  0.23241134  0.98549663  1  0.345903  1.285659  0.006255  5.521772  0.004
P  P10  1  0.59482165  0.75309173  0.76763788  1  0.345956  1.287263  0.006271  5.518149  0.004
H  H11  1  0.02118082  0.68432647  0.70914376  1  0.120133  0.1337  0.000833  1.000129  0.001
H  H12  1  0.33683864  0.02483061  0.31557658  1  0.120393  0.134036  0.000833  0.999662  0.001
H  H13  1  0.31190133  0.29078136  0.97514284  1  0.120461  0.134088  0.000833  0.999656  0.001
H  H14  1  0.97882083  0.31566916  0.29085619  1  0.120159  0.133756  0.000833  1.000088  0.001
H  H15  1  0.66316836  0.97517571  0.68442783  1  0.120327  0.133941  0.000833  0.999763  0.001
H  H16  1  0.68809734  0.70922069  0.02485070  1  0.120498  0.134157  0.000833  0.999624  0.001
H  H17  1  0.78315605  0.69521619  0.26721323  1  0.120612  0.101571  0.000832  1.005714  0.002
H  H18  1  0.08794594  0.57201489  0.30472291  1  0.120591  0.10169  0.000832  1.005841  0.002
H  H19  1  0.51592361  0.73267296  0.42799152  1  0.120943  0.102043  0.000831  1.005725  0.002
H  H20  1  0.21683690  0.30478479  0.73279164  1  0.120592  0.101529  0.000832  1.005753  0.002
H  H21  1  0.91205226  0.42799037  0.69527433  1  0.120566  0.101598  0.000832  1.00596  0.002
H  H22  1  0.48406970  0.26731840  0.57200815  1  0.120947  0.102075  0.000831  1.005696  0.002
H  H23  1  0.71501310  0.45390064  0.25424716  1  0.117889  0.131805  0.00071  0.989891  0.001
H  H24  1  0.26109636  0.80033831  0.54595746  1  0.11746  0.131535  0.000709  0.990302  0.001
H  H25  1  0.46086690  0.74569002  0.19974848  1  0.117785  0.131539  0.000709  0.990873  0.001
H  H26  1  0.28498242  0.54609927  0.74575535  1  0.117887  0.131799  0.00071  0.989946  0.001
H  H27  1  0.73890280  0.19966267  0.45404112  1  0.117474  0.13158  0.000709  0.990265  0.001
H  H28  1  0.53913330  0.25431096  0.80025656  1  0.117768  0.131549  0.000709  0.990807  0.001
H  H29  1  0.82573722  0.45077770  0.48051917  1  0.112142  0.112335  -4e-05  0.998985  0.0
H  H30  1  0.37491602  0.02970271  0.54911540  1  0.112093  0.112749  -4e-05  0.998436  0.0
H  H31  1  0.34525714  0.51949759  0.97031407  1  0.112107  0.112789  -4e-05  0.997743  0.0
H  H32  1  0.17426187  0.54921900  0.51947960  1  0.112148  0.112299  -4e-05  0.999072  0.0
H  H33  1  0.62508889  0.97030148  0.45088766  1  0.112094  0.112751  -4e-05  0.99838  0.0
H  H34  1  0.65474416  0.48050766  0.02968753  1  0.112117  0.112817  -4e-05  0.997696  0.0
C  C35  1  0.96693643  0.68084454  0.60822104  1  -0.064298  -0.096444  0.002836  3.920355  0.003
C  C36  1  0.28610654  0.92737844  0.31905645  1  -0.063401  -0.095983  0.002833  3.922045  0.003
C  C37  1  0.35859886  0.39170022  0.07259877  1  -0.064142  -0.095659  0.002834  3.920119  0.003
C  C38  1  0.03306527  0.31915324  0.39177881  1  -0.064358  -0.096608  0.002837  3.92039  0.003
C  C39  1  0.71389890  0.07262682  0.68094537  1  -0.06329  -0.095772  0.002833  3.921942  0.003
C  C40  1  0.64139980  0.60830183  0.92739919  1  -0.064244  -0.09587  0.002835  3.920087  0.003
C  C41  1  0.00586699  0.80825359  0.60458736  1  0.112403  -0.02807  -0.002404  3.921165  -0.001
C  C42  1  0.19764607  0.79632322  0.19165323  1  0.11136  -0.028768  -0.002401  3.923766  -0.001
C  C43  1  0.40118649  0.39529699  0.20362106  1  0.112366  -0.029007  -0.002404  3.923271  -0.001
C  C44  1  0.99413313  0.19174312  0.39541521  1  0.112485  -0.027853  -0.002405  3.92102  -0.001
C  C45  1  0.80235680  0.20368310  0.80834742  1  0.111345  -0.028823  -0.002401  3.923597  -0.001
C  C46  1  0.59880377  0.60469651  0.79636974  1  0.112413  -0.028837  -0.002403  3.922999  -0.001
C  C47  1  0.83293077  0.68440835  0.35992943  1  0.048134  0.096014  -0.000484  3.914317  0.0
C  C48  1  0.14855547  0.67550501  0.31548480  1  0.047823  0.095225  -0.00049  3.913945  0.0
C  C49  1  0.47306545  0.63996723  0.32450056  1  0.047626  0.095157  -0.00049  3.915503  0.0
C  C50  1  0.16706628  0.31559049  0.64007575  1  0.048147  0.096055  -0.000485  3.914173  0.0
C  C51  1  0.85144220  0.32449917  0.68451367  1  0.047899  0.09538  -0.000489  3.913889  0.0
C  C52  1  0.52692787  0.36002413  0.67549647  1  0.047629  0.095153  -0.00049  3.915359  0.0
C  C53  1  0.79479383  0.55347509  0.35498475  1  -0.075706  -0.114014  0.004092  3.941899  0.005
C  C54  1  0.24133218  0.80149455  0.44641121  1  -0.074856  -0.11346  0.004092  3.940251  0.005
C  C55  1  0.43993508  0.64496303  0.19855379  1  -0.075305  -0.114551  0.004092  3.94269  0.005
C  C56  1  0.20520483  0.44652696  0.64501762  1  -0.07567  -0.114018  0.004093  3.941779  0.005
C  C57  1  0.75866809  0.19851070  0.55358923  1  -0.074907  -0.113599  0.004091  3.940227  0.005
C  C58  1  0.56006515  0.35504009  0.80145027  1  -0.075314  -0.114653  0.004092  3.942857  0.005
C  C59  1  0.85956817  0.55227856  0.48189893  1  -0.061275  -0.034142  -0.004681  3.952786  -0.002
C  C60  1  0.30729462  0.92961878  0.44759983  1  -0.061374  -0.034793  -0.00468  3.954959  -0.002
C  C61  1  0.37768768  0.51804395  0.07038839  1  -0.061012  -0.034248  -0.004683  3.952471  -0.002
C  C62  1  0.14042989  0.44771814  0.51810221  1  -0.061316  -0.034094  -0.00468  3.952873  -0.002
C  C63  1  0.69270975  0.07038434  0.55240181  1  -0.061407  -0.034844  -0.00468  3.954893  -0.002
C  C64  1  0.62231095  0.48195596  0.92960965  1  -0.061002  -0.034159  -0.004683  3.952479  -0.002
N  N65  1  0.93550329  0.80816112  0.48248027  1  -0.345585  -0.235919  0.060417  3.67073  0.079
N  N66  1  0.12739253  0.67430066  0.19175083  1  -0.345576  -0.235431  0.060376  3.673161  0.079
N  N67  1  0.45302031  0.51740829  0.32567855  1  -0.346274  -0.235803  0.060362  3.674127  0.079
N  N68  1  0.06449430  0.19183879  0.51752368  1  -0.3456  -0.235953  0.060419  3.670581  0.079
N  N69  1  0.87260778  0.32570673  0.80824863  1  -0.345598  -0.235398  0.060375  3.672946  0.079
N  N70  1  0.54696837  0.48258413  0.67431498  1  -0.346266  -0.235884  0.060362  3.67399  0.079
O  O71  1  0.18235210  0.07333490  0.67668494  1  -0.391554  -0.733978  0.05996  2.31556  0.082
O  O72  1  0.10901047  0.60333276  0.92659361  1  -0.391804  -0.733441  0.060047  2.315532  0.082
O  O73  1  0.50561757  0.32324541  0.39660339  1  -0.391655  -0.734006  0.060001  2.314425  0.082
O  O74  1  0.81764442  0.92666287  0.32331706  1  -0.391577  -0.73402  0.059958  2.31554  0.082
O  O75  1  0.89099654  0.39667357  0.07340903  1  -0.391814  -0.733474  0.060042  2.315545  0.082
O  O76  1  0.49436998  0.67674061  0.60338483  1  -0.391681  -0.734044  0.060005  2.314336  0.082
O  O77  1  0.30115898  0.96734818  0.81534671  1  -0.473095  -0.870014  0.007593  2.269468  0.01
O  O78  1  0.33371946  0.84803395  0.03254411  1  -0.473576  -0.869709  0.0076  2.268532  0.01
O  O79  1  0.48568756  0.18455895  0.15191779  1  -0.473734  -0.870252  0.007594  2.269111  0.01
O  O80  1  0.69884118  0.03265066  0.18465401  1  -0.473107  -0.870016  0.007592  2.269431  0.01
O  O81  1  0.66628135  0.15197238  0.96745245  1  -0.473641  -0.869809  0.007599  2.268505  0.01
O  O82  1  0.51430477  0.81543454  0.84807092  1  -0.473716  -0.870333  0.007593  2.269209  0.01
O  O83  1  0.09583405  0.04138868  0.85680109  1  -0.478962  -0.882677  0.001908  2.292903  0.003
O  O84  1  0.05435668  0.81538331  0.95858204  1  -0.478415  -0.881078  0.001903  2.292956  0.003
O  O85  1  0.23895428  0.14312995  0.18454065  1  -0.47882  -0.881853  0.001909  2.290709  0.003
O  O86  1  0.90416298  0.95860803  0.14319889  1  -0.478997  -0.882755  0.001908  2.292874  0.003
O  O87  1  0.94564145  0.18461767  0.04141714  1  -0.478413  -0.881115  0.001903  2.293001  0.003
O  O88  1  0.76103434  0.85685821  0.81544511  1  -0.478822  -0.881876  0.001909  2.290699  0.003
