# generated using pymatgen
data_CaH2C2O5
_symmetry_space_group_name_H-M   'P 1'
_cell_length_a   5.87832830
_cell_length_b   5.87842152
_cell_length_c   7.38556335
_cell_angle_alpha   75.05911789
_cell_angle_beta   75.05905756
_cell_angle_gamma   76.05295063
_symmetry_Int_Tables_number   1
_chemical_formula_structural   CaH2C2O5
_chemical_formula_sum   'Ca2 H4 C4 O10'
_cell_volume   234.04396320
_cell_formula_units_Z   2
loop_
 _symmetry_equiv_pos_site_id
 _symmetry_equiv_pos_as_xyz
  1  'x, y, z'
loop_
 _atom_site_type_symbol
 _atom_site_label
 _atom_site_symmetry_multiplicity
 _atom_site_fract_x
 _atom_site_fract_y
 _atom_site_fract_z
 _atom_site_occupancy
 _atom_site_hle17_bader_spin_density
 _atom_site_hle17_ddec_charge
 _atom_site_hle17_ddec_spin_density
 _atom_site_hle17_ddec_sum_bond_order
 _atom_site_hle17_magmom
 _atom_site_hse06_10hf_bader_spin_density
 _atom_site_hse06_10hf_ddec_charge
 _atom_site_hse06_10hf_ddec_spin_density
 _atom_site_hse06_10hf_ddec_sum_bond_order
 _atom_site_hse06_10hf_magmom
 _atom_site_hse06_bader_spin_density
 _atom_site_hse06_ddec_charge
 _atom_site_hse06_ddec_spin_density
 _atom_site_hse06_ddec_sum_bond_order
 _atom_site_hse06_magmom
 _atom_site_pbe_bader_spin_density
 _atom_site_pbe_cm5_charge
 _atom_site_pbe_ddec_charge
 _atom_site_pbe_ddec_spin_density
 _atom_site_pbe_ddec_sum_bond_order
 _atom_site_pbe_magmom
Ca  Ca0  1  0.21422750  0.21422726  0.39302913  1  0  1.529  0  1.085778  0  0  1.392946  0  1.423601  0  0  1.437684  0  1.379829  0  0  0.882359  1.359132  0  1.454841  0
Ca  Ca1  1  0.78577032  0.78578439  0.60697368  1  0  1.529017  0  1.085695  0  0  1.392982  0  1.423475  0  0  1.437728  0  1.379695  0  0  0.88236  1.359173  0  1.45471  0
H  H2  1  0.92817138  0.14859546  0.78516909  1  0  0.437818  0  0.858306  0  0  0.405825  0  0.923053  0  0  0.418137  0  0.904944  0  0  0.310084  0.397017  0  0.936004  0
H  H3  1  0.85142190  0.07181688  0.21484233  1  0  0.43759  0  0.858675  0  0  0.405677  0  0.923286  0  0  0.417984  0  0.905186  0  0  0.310062  0.396875  0  0.936229  0
H  H4  1  0.07182913  0.85140195  0.21484165  1  0  0.437697  0  0.858499  0  0  0.405739  0  0.923183  0  0  0.41805  0  0.905078  0  0  0.310077  0.396935  0  0.936128  0
H  H5  1  0.14858051  0.92817853  0.78515624  1  0  0.437472  0  0.858839  0  0  0.40559  0  0.92339  0  0  0.417892  0  0.905297  0  0  0.310047  0.396792  0  0.936324  0
C  C6  1  0.60719852  0.39280544  0.49999630  1  0  0.556597  0  3.9413  0  0  0.508932  0  4.239092  0  0  0.538906  0  4.232199  0  0  0.233813  0.488452  0  4.243074  0
C  C7  1  0.39281316  0.60719708  0.49999872  1  0  0.556964  0  3.940116  0  0  0.509096  0  4.238214  0  0  0.539076  0  4.23131  0  0  0.233872  0.488614  0  4.242197  0
C  C8  1  0.60741062  0.39258363  0.99999587  1  0  0.55421  0  3.91948  0  0  0.508072  0  4.218379  0  0  0.537592  0  4.210845  0  0  0.229446  0.487997  0  4.22278  0
C  C9  1  0.39259014  0.60740098  0.00000134  1  0  0.55429  0  3.91955  0  0  0.50808  0  4.218523  0  0  0.537598  0  4.210991  0  0  0.2294  0.488009  0  4.222923  0
O  O10  1  0.58877139  0.21668753  0.14095078  1  0  -0.633727  0  2.037067  0  0  -0.576546  0  2.263505  0  0  -0.602047  0  2.254046  0  0  -0.317439  -0.558479  0  2.269492  0
O  O11  1  0.78330517  0.41123780  0.85904332  1  0  -0.633797  0  2.037223  0  0  -0.576572  0  2.263661  0  0  -0.602076  0  2.254201  0  0  -0.317399  -0.558502  0  2.269649  0
O  O12  1  0.41121163  0.78329916  0.85906201  1  0  -0.633657  0  2.037262  0  0  -0.576471  0  2.26372  0  0  -0.601969  0  2.25426  0  0  -0.317365  -0.558409  0  2.269705  0
O  O13  1  0.21668671  0.58876653  0.14095018  1  0  -0.633844  0  2.037094  0  0  -0.57662  0  2.263565  0  0  -0.602124  0  2.254108  0  0  -0.317448  -0.558554  0  2.269553  0
O  O14  1  0.81368209  0.44445144  0.45635102  1  0  -0.665723  0  2.098669  0  0  -0.606822  0  2.346538  0  0  -0.634244  0  2.339472  0  0  -0.358143  -0.587233  0  2.350761  0
O  O15  1  0.55555758  0.18631468  0.54364358  1  0  -0.665849  0  2.098509  0  0  -0.606951  0  2.346409  0  0  -0.634375  0  2.33934  0  0  -0.358233  -0.587362  0  2.350636  0
O  O16  1  0.18629760  0.55556192  0.54364452  1  0  -0.665951  0  2.098039  0  0  -0.607011  0  2.346049  0  0  -0.634434  0  2.338971  0  0  -0.358256  -0.587419  0  2.350273  0
O  O17  1  0.44444590  0.81370401  0.45635106  1  0  -0.665903  0  2.098095  0  0  -0.606997  0  2.346163  0  0  -0.634421  0  2.339091  0  0  -0.358281  -0.587406  0  2.350389  0
O  O18  1  0.01162808  0.01157695  0.72055575  1  0  -0.91609  0  1.82174  0  0  -0.85445  0  2.012558  0  0  -0.877454  0  1.976554  0  0  -0.614471  -0.837792  0  2.037749  0
O  O19  1  0.98839364  0.98840946  0.27944465  1  0  -0.916115  0  1.821809  0  0  -0.854499  0  2.01264  0  0  -0.877503  0  1.976633  0  0  -0.614485  -0.837838  0  2.037833  0
