# generated using pymatgen
data_ZnH12C8(NO)6
_symmetry_space_group_name_H-M   'P 1'
_cell_length_a   7.75286936
_cell_length_b   7.68794074
_cell_length_c   12.49928641
_cell_angle_alpha   89.99995018
_cell_angle_beta   89.99985787
_cell_angle_gamma   116.84758910
_symmetry_Int_Tables_number   1
_chemical_formula_structural   ZnH12C8(NO)6
_chemical_formula_sum   'Zn2 H24 C16 N12 O12'
_cell_volume   664.69941217
_cell_formula_units_Z   2
loop_
 _symmetry_equiv_pos_site_id
 _symmetry_equiv_pos_as_xyz
  1  'x, y, z'
loop_
 _atom_site_type_symbol
 _atom_site_label
 _atom_site_symmetry_multiplicity
 _atom_site_fract_x
 _atom_site_fract_y
 _atom_site_fract_z
 _atom_site_occupancy
 _atom_site_hle17_bader_spin_density
 _atom_site_hle17_ddec_charge
 _atom_site_hle17_ddec_spin_density
 _atom_site_hle17_ddec_sum_bond_order
 _atom_site_hle17_magmom
 _atom_site_hse06_10hf_bader_spin_density
 _atom_site_hse06_10hf_ddec_charge
 _atom_site_hse06_10hf_ddec_spin_density
 _atom_site_hse06_10hf_ddec_sum_bond_order
 _atom_site_hse06_10hf_magmom
 _atom_site_hse06_bader_spin_density
 _atom_site_hse06_ddec_charge
 _atom_site_hse06_ddec_spin_density
 _atom_site_hse06_ddec_sum_bond_order
 _atom_site_hse06_magmom
 _atom_site_pbe_bader_spin_density
 _atom_site_pbe_cm5_charge
 _atom_site_pbe_ddec_charge
 _atom_site_pbe_ddec_spin_density
 _atom_site_pbe_ddec_sum_bond_order
 _atom_site_pbe_magmom
Zn  Zn0  1  0.50000121  0.00000398  0.99999991  1  0  1.079305  0  1.807452  0  0  0.915055  0  2.247161  0  0  0.95931  0  2.195484  0  0  0.674519  0.884078  0  2.282566  0
Zn  Zn1  1  0.49999615  0.49999910  0.50000163  1  0  1.079267  0  1.807475  0  0  0.915055  0  2.247155  0  0  0.959309  0  2.195482  0  0  0.674531  0.884082  0  2.282561  0
H  H2  1  0.38952391  0.10119928  0.74640709  1  0  0.10665  0  0.915101  0  0  0.116478  0  0.974151  0  0  0.118791  0  0.971883  0  0  0.140731  0.1147  0  0.975898  0
H  H3  1  0.61047673  0.39880038  0.24640870  1  0  0.106659  0  0.915112  0  0  0.11648  0  0.974173  0  0  0.118794  0  0.971905  0  0  0.14073  0.114703  0  0.975919  0
H  H4  1  0.61047552  0.89880317  0.25359057  1  0  0.106651  0  0.915128  0  0  0.116472  0  0.974194  0  0  0.118786  0  0.971925  0  0  0.140726  0.114694  0  0.975941  0
H  H5  1  0.38952766  0.60119607  0.75359537  1  0  0.106608  0  0.915193  0  0  0.116438  0  0.974242  0  0  0.118751  0  0.971973  0  0  0.140712  0.114658  0  0.975989  0
H  H6  1  0.86256127  0.01752586  0.85417530  1  0  0.122633  0  0.9719  0  0  0.127335  0  1.04144  0  0  0.13139  0  1.036539  0  0  0.141409  0.124213  0  1.045096  0
H  H7  1  0.13743408  0.48246610  0.35417519  1  0  0.122581  0  0.971867  0  0  0.127297  0  1.041407  0  0  0.131347  0  1.036514  0  0  0.141408  0.124175  0  1.045062  0
H  H8  1  0.13743215  0.98246642  0.14582556  1  0  0.12256  0  0.971848  0  0  0.127277  0  1.041393  0  0  0.131328  0  1.036497  0  0  0.141371  0.124153  0  1.045047  0
H  H9  1  0.86256377  0.51752461  0.64581927  1  0  0.122588  0  0.971771  0  0  0.127307  0  1.041326  0  0  0.131344  0  1.036443  0  0  0.141373  0.124184  0  1.044981  0
H  H10  1  0.86113357  0.98800984  0.56126312  1  0  0.140395  0  0.929494  0  0  0.151457  0  0.990861  0  0  0.154975  0  0.988169  0  0  0.126201  0.148903  0  0.992857  0
H  H11  1  0.13887021  0.51199462  0.06126246  1  0  0.14037  0  0.929517  0  0  0.151515  0  0.990783  0  0  0.155035  0  0.988086  0  0  0.126226  0.148961  0  0.992778  0
H  H12  1  0.13887225  0.01199247  0.43874014  1  0  0.140302  0  0.929525  0  0  0.151501  0  0.990758  0  0  0.15502  0  0.988062  0  0  0.126209  0.148947  0  0.992753  0
H  H13  1  0.86113891  0.48801204  0.93873280  1  0  0.140479  0  0.929486  0  0  0.151471  0  0.990937  0  0  0.154989  0  0.988241  0  0  0.1262  0.14892  0  0.992933  0
H  H14  1  0.99604016  0.99823268  0.67777287  1  0  0.121378  0  0.916188  0  0  0.132169  0  0.981196  0  0  0.134785  0  0.979343  0  0  0.123948  0.130297  0  0.982517  0
H  H15  1  0.00396617  0.50177271  0.17777321  1  0  0.121396  0  0.916187  0  0  0.132211  0  0.98118  0  0  0.134828  0  0.979325  0  0  0.123955  0.130336  0  0.9825  0
H  H16  1  0.00396506  0.00177112  0.32222959  1  0  0.121404  0  0.916165  0  0  0.132208  0  0.981172  0  0  0.134823  0  0.979318  0  0  0.123952  0.130334  0  0.982492  0
H  H17  1  0.99604814  0.49823678  0.82222125  1  0  0.121359  0  0.916074  0  0  0.132172  0  0.981068  0  0  0.134787  0  0.979215  0  0  0.123933  0.130301  0  0.982389  0
H  H18  1  0.37428427  0.27918201  0.03478243  1  0  0.396383  0  0.914627  0  0  0.356731  0  0.992929  0  0  0.367658  0  0.977189  0  0  0.283927  0.349047  0  1.003982  0
H  H19  1  0.62571505  0.22081857  0.53478279  1  0  0.396356  0  0.914672  0  0  0.356708  0  0.992955  0  0  0.367633  0  0.977217  0  0  0.283903  0.349026  0  1.004004  0
H  H20  1  0.62571704  0.72081893  0.96521923  1  0  0.396363  0  0.914661  0  0  0.356711  0  0.992945  0  0  0.367634  0  0.977208  0  0  0.28392  0.34903  0  1.003996  0
H  H21  1  0.37428302  0.77918096  0.46521807  1  0  0.396349  0  0.91468  0  0  0.356695  0  0.992965  0  0  0.36762  0  0.977226  0  0  0.283907  0.349013  0  1.004017  0
H  H22  1  0.25672866  0.12112210  0.94135271  1  0  0.406697  0  0.902338  0  0  0.375365  0  0.966967  0  0  0.386915  0  0.950158  0  0  0.281112  0.367194  0  0.978835  0
H  H23  1  0.74326565  0.37887393  0.44135173  1  0  0.406714  0  0.902321  0  0  0.37538  0  0.966955  0  0  0.38693  0  0.950146  0  0  0.281094  0.367208  0  0.978823  0
H  H24  1  0.74326678  0.87887455  0.05864895  1  0  0.406728  0  0.902293  0  0  0.3754  0  0.966918  0  0  0.386948  0  0.95011  0  0  0.281124  0.367229  0  0.978785  0
H  H25  1  0.25672274  0.62112141  0.55864753  1  0  0.406644  0  0.902397  0  0  0.375349  0  0.966959  0  0  0.386897  0  0.950153  0  0  0.281127  0.367179  0  0.978825  0
C  C26  1  0.52277621  0.08751038  0.74862151  1  0  0.21543  0  3.665631  0  0  0.155753  0  3.956973  0  0  0.167951  0  3.968862  0  0  0.152503  0.147867  0  3.94872  0
C  C27  1  0.47722306  0.41248635  0.24862252  1  0  0.215356  0  3.665687  0  0  0.155702  0  3.957008  0  0  0.167902  0  3.968891  0  0  0.152466  0.147818  0  3.948756  0
C  C28  1  0.47722570  0.91248907  0.25137775  1  0  0.21541  0  3.665535  0  0  0.155737  0  3.956876  0  0  0.167937  0  3.968758  0  0  0.152478  0.14785  0  3.948626  0
C  C29  1  0.52277494  0.58751024  0.75137834  1  0  0.215466  0  3.665448  0  0  0.155795  0  3.95679  0  0  0.167994  0  3.968676  0  0  0.152492  0.147914  0  3.948537  0
C  C30  1  0.76160594  0.04837593  0.80698307  1  0  0.158806  0  3.63852  0  0  0.076703  0  3.910828  0  0  0.090249  0  3.922187  0  0  0.161538  0.068289  0  3.902873  0
C  C31  1  0.23839419  0.45161759  0.30698362  1  0  0.158931  0  3.638571  0  0  0.076883  0  3.910933  0  0  0.090434  0  3.922295  0  0  0.161599  0.068469  0  3.902977  0
C  C32  1  0.23839453  0.95161766  0.19301779  1  0  0.158933  0  3.638727  0  0  0.076814  0  3.911061  0  0  0.090365  0  3.922427  0  0  0.161624  0.068403  0  3.9031  0
C  C33  1  0.76160194  0.54838051  0.69301484  1  0  0.158921  0  3.638591  0  0  0.07678  0  3.910914  0  0  0.090343  0  3.922295  0  0  0.161575  0.068372  0  3.902948  0
C  C34  1  0.92944441  0.07507083  0.63296980  1  0  -0.186692  0  3.613962  0  0  -0.261561  0  3.864453  0  0  -0.26306  0  3.869419  0  0  -0.052598  -0.260291  0  3.860991  0
C  C35  1  0.07056012  0.42493070  0.13297303  1  0  -0.186822  0  3.614044  0  0  -0.26173  0  3.864559  0  0  -0.263224  0  3.869517  0  0  -0.052662  -0.260457  0  3.861095  0
C  C36  1  0.07055742  0.92492568  0.36702866  1  0  -0.18666  0  3.613968  0  0  -0.261683  0  3.864502  0  0  -0.263179  0  3.869465  0  0  -0.052626  -0.260411  0  3.861039  0
C  C37  1  0.92944976  0.57508036  0.86702623  1  0  -0.186743  0  3.614124  0  0  -0.261595  0  3.864529  0  0  -0.263089  0  3.869496  0  0  -0.05261  -0.260332  0  3.861081  0
C  C38  1  0.08989939  0.27552615  0.60049414  1  0  0.678997  0  3.884444  0  0  0.631539  0  4.190946  0  0  0.664146  0  4.184545  0  0  0.20853  0.609446  0  4.194361  0
C  C39  1  0.91009399  0.22448165  0.10048978  1  0  0.678988  0  3.884333  0  0  0.631619  0  4.190703  0  0  0.664227  0  4.184297  0  0  0.208604  0.609528  0  4.194117  0
C  C40  1  0.91009441  0.72448084  0.39951232  1  0  0.67891  0  3.884449  0  0  0.63156  0  4.190832  0  0  0.664167  0  4.18443  0  0  0.208564  0.609469  0  4.194247  0
C  C41  1  0.08990679  0.77552372  0.89950628  1  0  0.679046  0  3.884406  0  0  0.631665  0  4.190758  0  0  0.66427  0  4.184356  0  0  0.208603  0.609575  0  4.194174  0
N  N42  1  0.78015875  0.07903766  0.70096740  1  0  0.077775  0  3.585247  0  0  0.192728  0  3.774745  0  0  0.18346  0  3.798657  0  0  -0.131705  0.197849  0  3.760086  0
N  N43  1  0.21984080  0.42095928  0.20096799  1  0  0.07784  0  3.585335  0  0  0.19261  0  3.77505  0  0  0.183316  0  3.799011  0  0  -0.131776  0.197732  0  3.760394  0
N  N44  1  0.21983985  0.92095745  0.29903346  1  0  0.077733  0  3.585499  0  0  0.192667  0  3.775073  0  0  0.183385  0  3.799013  0  0  -0.131751  0.197787  0  3.760417  0
N  N45  1  0.78016562  0.57904155  0.79902967  1  0  0.077653  0  3.585584  0  0  0.19264  0  3.775043  0  0  0.183362  0  3.798969  0  0  -0.131703  0.197765  0  3.760385  0
N  N46  1  0.62950414  0.10515677  0.66231090  1  0  -0.266454  0  2.93108  0  0  -0.244383  0  3.187432  0  0  -0.254847  0  3.199825  0  0  -0.201627  -0.237298  0  3.179212  0
N  N47  1  0.37049241  0.39483892  0.16231128  1  0  -0.266471  0  2.931097  0  0  -0.244335  0  3.187494  0  0  -0.254792  0  3.199886  0  0  -0.201597  -0.23725  0  3.179273  0
N  N48  1  0.37049131  0.89483988  0.33768996  1  0  -0.266408  0  2.93106  0  0  -0.244328  0  3.187416  0  0  -0.254788  0  3.199806  0  0  -0.201594  -0.237243  0  3.179195  0
N  N49  1  0.62951461  0.60516043  0.83768878  1  0  -0.266433  0  2.931026  0  0  -0.244379  0  3.187372  0  0  -0.25484  0  3.199762  0  0  -0.201588  -0.237296  0  3.179152  0
N  N50  1  0.59921184  0.05207902  0.83952985  1  0  -0.400136  0  3.231228  0  0  -0.329754  0  3.53186  0  0  -0.35098  0  3.545057  0  0  -0.339465  -0.315492  0  3.522448  0
N  N51  1  0.40078178  0.44791746  0.33953096  1  0  -0.400098  0  3.231457  0  0  -0.329761  0  3.532121  0  0  -0.350983  0  3.545313  0  0  -0.339423  -0.315495  0  3.522704  0
N  N52  1  0.40078045  0.94791917  0.16046941  1  0  -0.400144  0  3.23142  0  0  -0.329762  0  3.532062  0  0  -0.350985  0  3.545256  0  0  -0.339456  -0.315495  0  3.52264  0
N  N53  1  0.59921231  0.55207628  0.66046830  1  0  -0.400088  0  3.231289  0  0  -0.329733  0  3.531956  0  0  -0.350958  0  3.545148  0  0  -0.339454  -0.315479  0  3.522552  0
O  O54  1  0.38676789  0.20494704  0.97267758  1  0  -0.828702  0  1.951845  0  0  -0.771476  0  2.158088  0  0  -0.791899  0  2.123231  0  0  -0.586464  -0.756992  0  2.182133  0
O  O55  1  0.61322886  0.29505175  0.47267684  1  0  -0.828705  0  1.951845  0  0  -0.771463  0  2.158104  0  0  -0.791884  0  2.123253  0  0  -0.586425  -0.756983  0  2.182154  0
O  O56  1  0.61322958  0.79505399  0.02732328  1  0  -0.828719  0  1.951842  0  0  -0.771476  0  2.15811  0  0  -0.791891  0  2.123268  0  0  -0.586464  -0.756983  0  2.18213  0
O  O57  1  0.38676726  0.70494636  0.52732402  1  0  -0.828653  0  1.951942  0  0  -0.771433  0  2.158207  0  0  -0.791849  0  2.123362  0  0  -0.586461  -0.756943  0  2.182234  0
O  O58  1  0.22784697  0.26450908  0.55089601  1  0  -0.644489  0  2.026619  0  0  -0.580336  0  2.276302  0  0  -0.608242  0  2.266151  0  0  -0.322099  -0.560828  0  2.282564  0
O  O59  1  0.77215369  0.23549730  0.05089585  1  0  -0.644361  0  2.026808  0  0  -0.580221  0  2.27645  0  0  -0.608125  0  2.266297  0  0  -0.322045  -0.560716  0  2.28271  0
O  O60  1  0.77215314  0.73549483  0.44910565  1  0  -0.644326  0  2.026823  0  0  -0.580205  0  2.276462  0  0  -0.608108  0  2.266311  0  0  -0.322037  -0.560701  0  2.282724  0
O  O61  1  0.22784905  0.76450950  0.94910021  1  0  -0.644384  0  2.026818  0  0  -0.580265  0  2.276478  0  0  -0.608168  0  2.266326  0  0  -0.322062  -0.56076  0  2.282738  0
O  O62  1  0.07535993  0.42845160  0.62406186  1  0  -0.638261  0  1.95799  0  0  -0.586254  0  2.178828  0  0  -0.610922  0  2.169146  0  0  -0.323195  -0.56893  0  2.184872  0
O  O63  1  0.92463046  0.07154439  0.12406236  1  0  -0.638425  0  1.95761  0  0  -0.586441  0  2.178425  0  0  -0.611114  0  2.168744  0  0  -0.32333  -0.569116  0  2.18447  0
O  O64  1  0.92462973  0.57154370  0.37593980  1  0  -0.638382  0  1.957687  0  0  -0.586403  0  2.178503  0  0  -0.611078  0  2.168827  0  0  -0.323289  -0.569076  0  2.184548  0
O  O65  1  0.07537093  0.92845950  0.87593690  1  0  -0.638457  0  1.957708  0  0  -0.586455  0  2.178511  0  0  -0.611128  0  2.168831  0  0  -0.323318  -0.569131  0  2.184558  0
