# generated using pymatgen
data_AgH5C7N2
_symmetry_space_group_name_H-M   'P 1'
_cell_length_a   4.51367327
_cell_length_b   11.19618920
_cell_length_c   12.34561540
_cell_angle_alpha   89.99996604
_cell_angle_beta   89.99999440
_cell_angle_gamma   96.16712365
_symmetry_Int_Tables_number   1
_chemical_formula_structural   AgH5C7N2
_chemical_formula_sum   'Ag4 H20 C28 N8'
_cell_volume   620.28664141
_cell_formula_units_Z   4
loop_
 _symmetry_equiv_pos_site_id
 _symmetry_equiv_pos_as_xyz
  1  'x, y, z'
loop_
 _atom_site_type_symbol
 _atom_site_label
 _atom_site_symmetry_multiplicity
 _atom_site_fract_x
 _atom_site_fract_y
 _atom_site_fract_z
 _atom_site_occupancy
 _atom_site_hle17_bader_spin_density
 _atom_site_hle17_ddec_charge
 _atom_site_hle17_ddec_spin_density
 _atom_site_hle17_ddec_sum_bond_order
 _atom_site_hle17_magmom
 _atom_site_hse06_10hf_bader_spin_density
 _atom_site_hse06_10hf_ddec_charge
 _atom_site_hse06_10hf_ddec_spin_density
 _atom_site_hse06_10hf_ddec_sum_bond_order
 _atom_site_hse06_10hf_magmom
 _atom_site_hse06_bader_spin_density
 _atom_site_hse06_ddec_charge
 _atom_site_hse06_ddec_spin_density
 _atom_site_hse06_ddec_sum_bond_order
 _atom_site_hse06_magmom
 _atom_site_pbe_bader_spin_density
 _atom_site_pbe_cm5_charge
 _atom_site_pbe_ddec_charge
 _atom_site_pbe_ddec_spin_density
 _atom_site_pbe_ddec_sum_bond_order
 _atom_site_pbe_magmom
Ag  Ag0  1  0.98320622  0.09466699  0.23687515  1  0  0.477331  0  1.473915  0  0  0.338337  0  1.891952  0  0  0.363362  0  1.861358  0  0  0.470458  0.321309  0  1.912452  0
Ag  Ag1  1  0.51679210  0.40533268  0.73687445  1  0  0.477314  0  1.473882  0  0  0.338328  0  1.891898  0  0  0.363341  0  1.86132  0  0  0.470452  0.321299  0  1.912402  0
Ag  Ag2  1  0.01679423  0.90533261  0.76312575  1  0  0.477334  0  1.473895  0  0  0.338343  0  1.891927  0  0  0.363364  0  1.861341  0  0  0.470461  0.321321  0  1.912436  0
Ag  Ag3  1  0.48320835  0.59466693  0.26312483  1  0  0.477323  0  1.473915  0  0  0.338326  0  1.891948  0  0  0.363349  0  1.861356  0  0  0.470473  0.321309  0  1.912455  0
H  H4  1  0.20041723  0.46818351  0.46953742  1  0  0.097273  0  0.968111  0  0  0.11008  0  1.029987  0  0  0.112717  0  1.028409  0  0  0.098355  0.108159  0  1.031217  0
H  H5  1  0.29958168  0.03181598  0.96953691  1  0  0.097246  0  0.967985  0  0  0.110031  0  1.029902  0  0  0.112687  0  1.028303  0  0  0.098323  0.108109  0  1.031135  0
H  H6  1  0.79958346  0.53181700  0.53046348  1  0  0.097245  0  0.968099  0  0  0.110054  0  1.029979  0  0  0.112692  0  1.028401  0  0  0.098344  0.108137  0  1.031206  0
H  H7  1  0.70041877  0.96818363  0.03046317  1  0  0.097291  0  0.968022  0  0  0.110073  0  1.02993  0  0  0.112729  0  1.028331  0  0  0.098346  0.108152  0  1.031159  0
H  H8  1  0.50455780  0.05139685  0.42138197  1  0  0.086644  0  0.990645  0  0  0.098903  0  1.056672  0  0  0.101189  0  1.055154  0  0  0.093111  0.097276  0  1.057775  0
H  H9  1  0.99544069  0.44860359  0.92138285  1  0  0.08663  0  0.990628  0  0  0.098913  0  1.05663  0  0  0.1012  0  1.055111  0  0  0.093122  0.097284  0  1.057737  0
H  H10  1  0.49544044  0.94860276  0.57861650  1  0  0.086636  0  0.990665  0  0  0.098933  0  1.056656  0  0  0.101221  0  1.055136  0  0  0.093128  0.097306  0  1.057755  0
H  H11  1  0.00455779  0.55139691  0.07861805  1  0  0.086642  0  0.990654  0  0  0.098903  0  1.056675  0  0  0.10119  0  1.055156  0  0  0.093116  0.097276  0  1.057785  0
H  H12  1  0.93332003  0.38661072  0.18088920  1  0  0.061416  0  0.974629  0  0  0.072587  0  1.045869  0  0  0.074096  0  1.042867  0  0  0.117289  0.071443  0  1.047942  0
H  H13  1  0.56667856  0.11338989  0.68088947  1  0  0.061401  0  0.974654  0  0  0.072572  0  1.045894  0  0  0.07408  0  1.042893  0  0  0.11728  0.071426  0  1.047968  0
H  H14  1  0.06667821  0.61338889  0.81911088  1  0  0.061412  0  0.974622  0  0  0.072584  0  1.045858  0  0  0.074091  0  1.042857  0  0  0.117285  0.071438  0  1.047928  0
H  H15  1  0.43331992  0.88661062  0.31911062  1  0  0.061428  0  0.974605  0  0  0.072605  0  1.045834  0  0  0.074111  0  1.042831  0  0  0.117297  0.07146  0  1.047902  0
H  H16  1  0.98709962  0.29889966  0.58785395  1  0  0.076614  0  0.991285  0  0  0.082824  0  1.065202  0  0  0.086058  0  1.063091  0  0  0.086663  0.080483  0  1.066837  0
H  H17  1  0.51290074  0.20109921  0.08785380  1  0  0.076614  0  0.991269  0  0  0.082824  0  1.065189  0  0  0.086058  0  1.063078  0  0  0.086662  0.08048  0  1.066827  0
H  H18  1  0.01290083  0.70109995  0.41214613  1  0  0.07662  0  0.991281  0  0  0.082828  0  1.065197  0  0  0.086062  0  1.063088  0  0  0.086667  0.080492  0  1.06683  0
H  H19  1  0.48709726  0.79889950  0.91214710  1  0  0.076626  0  0.991305  0  0  0.082837  0  1.065215  0  0  0.086071  0  1.063105  0  0  0.086666  0.080494  0  1.066852  0
H  H20  1  0.12944654  0.09362017  0.56236967  1  0  0.073392  0  0.97701  0  0  0.084346  0  1.044775  0  0  0.086663  0  1.044212  0  0  0.088225  0.08263  0  1.045339  0
H  H21  1  0.37055255  0.40637959  0.06237021  1  0  0.073386  0  0.977014  0  0  0.084342  0  1.044777  0  0  0.086659  0  1.044213  0  0  0.088224  0.082625  0  1.04535  0
H  H22  1  0.87055194  0.90638034  0.43763042  1  0  0.073398  0  0.977012  0  0  0.084348  0  1.044781  0  0  0.086665  0  1.044219  0  0  0.08823  0.082635  0  1.045341  0
H  H23  1  0.62944790  0.59362001  0.93763069  1  0  0.07339  0  0.977004  0  0  0.084335  0  1.044782  0  0  0.086653  0  1.044218  0  0  0.088222  0.082619  0  1.045348  0
C  C24  1  0.78789197  0.35557423  0.24748128  1  0  0.232871  0  3.751076  0  0  0.180142  0  4.009755  0  0  0.19695  0  4.024832  0  0  0.132091  0.169139  0  3.998964  0
C  C25  1  0.71210659  0.14442633  0.74748071  1  0  0.232914  0  3.751133  0  0  0.180181  0  4.009825  0  0  0.196991  0  4.0249  0  0  0.132112  0.169177  0  3.999033  0
C  C26  1  0.21210651  0.64442628  0.75251881  1  0  0.232913  0  3.751061  0  0  0.180188  0  4.009738  0  0  0.196998  0  4.024813  0  0  0.132101  0.169188  0  3.998938  0
C  C27  1  0.28789386  0.85557328  0.25251857  1  0  0.232943  0  3.751038  0  0  0.180217  0  4.009719  0  0  0.197031  0  4.024792  0  0  0.132125  0.16921  0  3.998921  0
C  C28  1  0.46920265  0.35349267  0.37956947  1  0  0.135851  0  3.839339  0  0  0.135899  0  4.068816  0  0  0.138909  0  4.094711  0  0  0.073382  0.133889  0  4.051074  0
C  C29  1  0.03079630  0.14650688  0.87956972  1  0  0.135944  0  3.839337  0  0  0.135997  0  4.068775  0  0  0.139009  0  4.094672  0  0  0.073396  0.133982  0  4.051037  0
C  C30  1  0.53079583  0.64650784  0.62042980  1  0  0.135908  0  3.83932  0  0  0.135947  0  4.068786  0  0  0.13896  0  4.094678  0  0  0.073371  0.133944  0  4.051046  0
C  C31  1  0.96920194  0.85349273  0.12043036  1  0  0.13598  0  3.839262  0  0  0.136037  0  4.0687  0  0  0.139047  0  4.094601  0  0  0.073425  0.134029  0  4.050956  0
C  C32  1  0.26522435  0.37787966  0.45969103  1  0  -0.140842  0  3.762635  0  0  -0.158881  0  4.009447  0  0  -0.160802  0  4.029304  0  0  -0.099347  -0.157453  0  3.995951  0
C  C33  1  0.23477235  0.12211984  0.95969048  1  0  -0.140893  0  3.762592  0  0  -0.158921  0  4.009416  0  0  -0.160861  0  4.029266  0  0  -0.099372  -0.157494  0  3.99592  0
C  C34  1  0.73477389  0.62211995  0.54030905  1  0  -0.140869  0  3.762634  0  0  -0.158914  0  4.009459  0  0  -0.160836  0  4.029315  0  0  -0.099368  -0.157492  0  3.995971  0
C  C35  1  0.76522589  0.87787977  0.04030961  1  0  -0.140894  0  3.762616  0  0  -0.158915  0  4.009432  0  0  -0.160855  0  4.029284  0  0  -0.099371  -0.157491  0  3.995936  0
C  C36  1  0.14950997  0.28318346  0.52554035  1  0  -0.089057  0  3.809224  0  0  -0.098459  0  4.056324  0  0  -0.101227  0  4.079195  0  0  -0.11023  -0.096631  0  4.040931  0
C  C37  1  0.35048914  0.21681633  0.02554018  1  0  -0.088998  0  3.809114  0  0  -0.098393  0  4.056203  0  0  -0.101162  0  4.079081  0  0  -0.110186  -0.096557  0  4.040806  0
C  C38  1  0.85049073  0.71681705  0.47446055  1  0  -0.089027  0  3.809178  0  0  -0.098422  0  4.056271  0  0  -0.10119  0  4.079143  0  0  -0.110208  -0.0966  0  4.040888  0
C  C39  1  0.64950886  0.78318238  0.97445991  1  0  -0.089113  0  3.809225  0  0  -0.098515  0  4.056329  0  0  -0.101285  0  4.079209  0  0  -0.110228  -0.096681  0  4.040932  0
C  C40  1  0.23181423  0.16607460  0.51106074  1  0  -0.091814  0  3.813243  0  0  -0.101528  0  4.053986  0  0  -0.10517  0  4.07935  0  0  -0.11123  -0.098982  0  4.036812  0
C  C41  1  0.26818488  0.33392519  0.01106132  1  0  -0.091849  0  3.813158  0  0  -0.101565  0  4.053908  0  0  -0.105209  0  4.079275  0  0  -0.111266  -0.099028  0  4.03675  0
C  C42  1  0.76818401  0.83392501  0.48893934  1  0  -0.091835  0  3.813249  0  0  -0.101548  0  4.054004  0  0  -0.10519  0  4.079369  0  0  -0.111249  -0.099001  0  4.036831  0
C  C43  1  0.73181557  0.66607441  0.98893957  1  0  -0.091809  0  3.81323  0  0  -0.101524  0  4.05399  0  0  -0.105164  0  4.079347  0  0  -0.111243  -0.098972  0  4.036817  0
C  C44  1  0.43685184  0.14124910  0.43189661  1  0  -0.179477  0  3.819132  0  0  -0.190208  0  4.061806  0  0  -0.193174  0  4.082361  0  0  -0.111784  -0.188161  0  4.047788  0
C  C45  1  0.06314709  0.35875041  0.93189674  1  0  -0.179454  0  3.819198  0  0  -0.190227  0  4.061869  0  0  -0.193192  0  4.082419  0  0  -0.111795  -0.188178  0  4.047849  0
C  C46  1  0.56314640  0.85875051  0.56810348  1  0  -0.179453  0  3.819229  0  0  -0.190234  0  4.061888  0  0  -0.193201  0  4.082441  0  0  -0.11179  -0.188186  0  4.047873  0
C  C47  1  0.93685337  0.64124919  0.06810415  1  0  -0.179414  0  3.819185  0  0  -0.19015  0  4.061839  0  0  -0.193116  0  4.082394  0  0  -0.111768  -0.188114  0  4.047838  0
C  C48  1  0.55795512  0.23658711  0.36661025  1  0  0.129158  0  3.862771  0  0  0.130483  0  4.089252  0  0  0.134087  0  4.114157  0  0  0.07017  0.128129  0  4.072204  0
C  C49  1  0.94204093  0.26341247  0.86661042  1  0  0.129118  0  3.862935  0  0  0.130491  0  4.089338  0  0  0.134098  0  4.114238  0  0  0.070208  0.128145  0  4.072279  0
C  C50  1  0.44204312  0.76341249  0.63338903  1  0  0.129131  0  3.862856  0  0  0.130495  0  4.089282  0  0  0.1341  0  4.114184  0  0  0.070183  0.128131  0  4.072248  0
C  C51  1  0.05795731  0.73658714  0.13338967  1  0  0.129069  0  3.86285  0  0  0.130424  0  4.089285  0  0  0.134028  0  4.114189  0  0  0.070163  0.12807  0  4.072244  0
N  N52  1  0.76234557  0.24085224  0.28243218  1  0  -0.428431  0  3.357617  0  0  -0.334371  0  3.642988  0  0  -0.358888  0  3.659448  0  0  -0.397041  -0.317739  0  3.631104  0
N  N53  1  0.73765274  0.25914740  0.78243155  1  0  -0.428427  0  3.35767  0  0  -0.33438  0  3.643021  0  0  -0.358897  0  3.659476  0  0  -0.397049  -0.317751  0  3.631134  0
N  N54  1  0.23765291  0.75914827  0.71756791  1  0  -0.428478  0  3.357607  0  0  -0.334433  0  3.642969  0  0  -0.358951  0  3.659424  0  0  -0.397072  -0.317801  0  3.631089  0
N  N55  1  0.26234772  0.74085221  0.21756854  1  0  -0.428435  0  3.357659  0  0  -0.334389  0  3.643026  0  0  -0.358907  0  3.659481  0  0  -0.397059  -0.317762  0  3.631148  0
N  N56  1  0.61726211  0.42726412  0.30209255  1  0  -0.440922  0  3.346255  0  0  -0.350146  0  3.64097  0  0  -0.374763  0  3.657195  0  0  -0.400117  -0.333488  0  3.629272  0
N  N57  1  0.88273619  0.07273550  0.80209283  1  0  -0.440954  0  3.346216  0  0  -0.350189  0  3.640939  0  0  -0.374807  0  3.657163  0  0  -0.400114  -0.333526  0  3.62924  0
N  N58  1  0.38273835  0.57273549  0.69790754  1  0  -0.440928  0  3.346167  0  0  -0.350164  0  3.6409  0  0  -0.374778  0  3.657117  0  0  -0.400085  -0.333498  0  3.629191  0
N  N59  1  0.11726205  0.92726410  0.19790807  1  0  -0.441034  0  3.346212  0  0  -0.350279  0  3.64096  0  0  -0.374893  0  3.657174  0  0  -0.400154  -0.333608  0  3.629245  0
