# generated using pymatgen
data_NiH2C4SN2O5
_symmetry_space_group_name_H-M   'P 1'
_cell_length_a   7.15147645
_cell_length_b   7.17180047
_cell_length_c   12.96216330
_cell_angle_alpha   91.01443355
_cell_angle_beta   89.99093667
_cell_angle_gamma   89.99198047
_symmetry_Int_Tables_number   1
_chemical_formula_structural   NiH2C4SN2O5
_chemical_formula_sum   'Ni4 H8 C16 S4 N8 O20'
_cell_volume   664.71168938
_cell_formula_units_Z   4
loop_
 _symmetry_equiv_pos_site_id
 _symmetry_equiv_pos_as_xyz
  1  'x, y, z'
loop_
 _atom_site_type_symbol
 _atom_site_label
 _atom_site_symmetry_multiplicity
 _atom_site_fract_x
 _atom_site_fract_y
 _atom_site_fract_z
 _atom_site_occupancy
 _atom_site_hle17_ddec_charge
 _atom_site_hle17_ddec_spin_density
 _atom_site_hle17_ddec_sum_bond_order
 _atom_site_hle17_magmom
 _atom_site_hse06_10hf_ddec_charge
 _atom_site_hse06_10hf_ddec_spin_density
 _atom_site_hse06_10hf_ddec_sum_bond_order
 _atom_site_hse06_10hf_magmom
 _atom_site_hse06_ddec_charge
 _atom_site_hse06_ddec_spin_density
 _atom_site_hse06_ddec_sum_bond_order
 _atom_site_hse06_magmom
 _atom_site_pbe_cm5_charge
 _atom_site_pbe_ddec_charge
 _atom_site_pbe_ddec_spin_density
 _atom_site_pbe_ddec_sum_bond_order
 _atom_site_pbe_magmom
Ni  Ni0  1  0.50318721  0.72460897  0.67968753  1  0.923929  -1.806036  2.057048  -1.521  0.938121  -1.844234  2.447932  -1.633  1.016274  -1.903247  2.378321  -1.718  0.670494  0.877045  -1.784973  2.505423  -1.553
Ni  Ni1  1  0.00326350  0.27534226  0.32033272  1  0.923668  1.805995  2.057173  1.521  0.937795  1.844231  2.448002  1.633  1.016046  1.903245  2.378265  1.718  0.67034  0.876733  1.784933  2.505461  1.553
Ni  Ni2  1  0.49875741  0.79215171  0.18081635  1  0.93001  -1.811548  2.042744  -1.527  0.943418  -1.850525  2.434625  -1.64  1.021071  -1.907119  2.365828  -1.723  0.670111  0.881785  -1.794533  2.492553  -1.563
Ni  Ni3  1  0.99874321  0.20783746  0.81920660  1  0.930072  1.811579  2.043006  1.527  0.943548  1.850511  2.434931  1.64  1.021319  1.907117  2.365907  1.723  0.670281  0.882025  1.794503  2.492708  1.563
H  H4  1  0.16972601  0.59426456  0.73412115  1  0.429896  8e-06  0.87159  0.0  0.402666  -0.000252  0.930113  0.0  0.415044  -0.000163  0.912403  0.0  0.290931  0.393706  -0.000323  0.942849  0.0
H  H5  1  0.66987969  0.40587741  0.26582895  1  0.429957  -8e-06  0.871525  0.0  0.402748  0.000252  0.930061  0.0  0.415125  0.000164  0.912354  0.0  0.29094  0.393782  0.000324  0.942813  0.0
H  H6  1  0.14364092  0.71776273  0.63044463  1  0.412758  -0.000294  0.897802  0.0  0.384452  -0.000574  0.959584  -0.001  0.396799  -0.000396  0.941866  0.0  0.28509  0.375541  -0.000723  0.972292  -0.001
H  H7  1  0.64371542  0.28241644  0.36950579  1  0.412989  0.000291  0.897594  0.0  0.384552  0.000572  0.959635  0.001  0.396911  0.000394  0.941901  0.0  0.285185  0.375629  0.000721  0.972365  0.001
H  H8  1  0.49191285  0.14345415  0.13384247  1  0.41404  -0.000112  0.894837  0.0  0.385478  -0.000489  0.956757  0.0  0.397955  -0.000321  0.938803  0.0  0.285165  0.376474  -0.000634  0.969618  -0.001
H  H9  1  0.99191088  0.85657481  0.86610044  1  0.414277  0.000108  0.894494  0.0  0.385747  0.000486  0.956374  0.0  0.398224  0.000319  0.938416  0.0  0.285306  0.376745  0.000631  0.969233  0.001
H  H10  1  0.37082846  0.11689801  0.23816271  1  0.426234  8.5e-05  0.879328  0.001  0.397932  -0.000221  0.939758  0.0  0.410221  -0.000123  0.922145  0.0  0.291562  0.389032  -0.000307  0.952417  0.0
H  H11  1  0.87067466  0.88320846  0.76185643  1  0.426366  -8.5e-05  0.879084  -0.001  0.398037  0.000221  0.939556  0.0  0.410322  0.000123  0.921949  0.0  0.291656  0.389138  0.000307  0.952209  0.0
C  C12  1  0.83914730  0.79609472  0.56456603  1  0.630767  0.002016  3.895911  0.004  0.576829  -0.000621  4.208368  0.0  0.611007  -0.000512  4.202042  0.0  0.218554  0.553144  -0.000641  4.211705  0.0
C  C13  1  0.33932129  0.20400777  0.43541112  1  0.631372  -0.002016  3.89461  -0.004  0.57758  0.000622  4.207106  0.0  0.611753  0.000513  4.200745  0.0  0.218973  0.553885  0.000641  4.210467  0.0
C  C14  1  0.68655108  0.77282324  0.48527141  1  0.090769  0.001139  3.629986  0.001  0.084731  -0.000179  3.885737  0.0  0.089681  -4.5e-05  3.894864  0.0  0.126801  0.079745  -0.000222  3.881744  0.0
C  C15  1  0.18670220  0.22730813  0.51473881  1  0.091241  -0.001112  3.627395  -0.001  0.084492  0.00019  3.884053  0.0  0.089517  5.7e-05  3.893061  0.0  0.126768  0.079509  0.000234  3.880052  0.0
C  C16  1  0.67548760  0.80950953  0.37827994  1  0.096671  0.010568  3.634507  0.013  0.091932  0.00484  3.884117  0.006  0.097448  0.004118  3.891732  0.005  0.127883  0.08657  0.005745  3.881628  0.007
C  C17  1  0.17557586  0.19058442  0.62174405  1  0.096383  -0.01062  3.633708  -0.013  0.09196  -0.004858  3.883312  -0.006  0.097476  -0.004133  3.890931  -0.005  0.127778  0.086613  -0.005761  3.880763  -0.007
C  C18  1  0.80577990  0.90855762  0.30726762  1  0.653163  0.004795  3.866257  0.006  0.613427  0.004108  4.168016  0.005  0.651832  0.003206  4.158975  0.004  0.225587  0.585564  0.005142  4.173039  0.006
C  C19  1  0.30580600  0.09137399  0.69272950  1  0.652576  -0.00476  3.867196  -0.006  0.612879  -0.004092  4.169012  -0.005  0.651255  -0.003193  4.160033  -0.004  0.225341  0.585039  -0.005123  4.173944  -0.006
C  C20  1  0.58512565  0.45084351  0.07190651  1  0.631509  0.001584  3.897796  0.003  0.582056  -0.000804  4.205239  0.0  0.615653  -0.000683  4.19976  0.0  0.216568  0.558636  -0.000822  4.208108  0.0
C  C21  1  0.08514858  0.54911412  0.92810731  1  0.632156  -0.001555  3.897321  -0.003  0.582471  0.00081  4.205052  0.0  0.61607  0.000686  4.19957  0.0  0.216808  0.55905  0.00083  4.207923  0.0
C  C22  1  0.56876686  0.59538839  0.98966296  1  0.069441  0.002695  3.648989  0.003  0.062055  0.000996  3.909581  0.001  0.0647  0.000929  3.922145  0.001  0.115164  0.058844  0.001266  3.902932  0.001
C  C23  1  0.06878267  0.40451713  0.01033256  1  0.068633  -0.002708  3.649869  -0.003  0.061569  -0.000999  3.910153  -0.001  0.064211  -0.000931  3.922726  -0.001  0.115006  0.058359  -0.001269  3.903517  -0.001
C  C24  1  0.56592376  0.58092441  0.88037953  1  0.079555  0.009014  3.633894  0.011  0.076162  0.003989  3.885669  0.005  0.080599  0.003315  3.895855  0.004  0.119676  0.071712  0.004845  3.881167  0.006
C  C25  1  0.06600455  0.41897459  0.11963161  1  0.079404  -0.009027  3.633266  -0.011  0.076171  -0.004  3.884817  -0.005  0.080613  -0.003324  3.894994  -0.004  0.11944  0.071705  -0.004855  3.880342  -0.006
C  C26  1  0.63365236  0.43054084  0.80676078  1  0.647408  0.005881  3.873783  0.008  0.607326  0.005017  4.178391  0.007  0.645649  0.004032  4.169393  0.006  0.220159  0.579545  0.00609  4.183342  0.008
C  C27  1  0.13373889  0.56937211  0.19322751  1  0.647691  -0.005856  3.873008  -0.008  0.607346  -0.004987  4.177942  -0.007  0.645691  -0.004008  4.168936  -0.006  0.220125  0.579541  -0.006053  4.182926  -0.008
S  S28  1  0.37122765  0.68384167  0.42839815  1  0.636056  -0.001986  2.752243  -0.001  0.612451  -0.003478  3.13301  -0.002  0.631163  -0.003143  3.131941  -0.002  0.459474  0.595552  -0.003225  3.135223  -0.002
S  S29  1  0.87130603  0.31622299  0.57165606  1  0.636192  0.002003  2.751113  0.001  0.612624  0.003485  3.131807  0.002  0.631347  0.003146  3.130748  0.002  0.459522  0.595701  0.003231  3.134063  0.002
S  S30  1  0.48096131  0.90332086  0.92589989  1  0.680467  0.000178  2.772389  0.002  0.654102  -0.002251  3.154755  -0.001  0.676331  -0.002059  3.151744  -0.001  0.478104  0.634929  -0.001703  3.158109  0.0
S  S31  1  0.98103055  0.09660254  0.07413022  1  0.6804  -0.000161  2.771555  -0.002  0.654101  0.002268  3.154005  0.001  0.676325  0.002068  3.151006  0.001  0.478197  0.634911  0.001727  3.157381  0.0
N  N32  1  0.52601899  0.70340329  0.52102316  1  -0.370393  -0.037364  3.152247  -0.054  -0.348585  -0.029287  3.464957  -0.041  -0.365874  -0.02387  3.474392  -0.034  -0.31355  -0.33613  -0.033439  3.459928  -0.046
N  N33  1  0.02612019  0.29668688  0.47898550  1  -0.370603  0.037319  3.150015  0.054  -0.348582  0.029264  3.462938  0.041  -0.365901  0.02385  3.472325  0.034  -0.313574  -0.336143  0.033416  3.457977  0.046
N  N34  1  0.50833090  0.76530637  0.33799293  1  -0.382626  -0.04322  3.145529  -0.064  -0.359979  -0.030907  3.459624  -0.045  -0.376319  -0.025509  3.464338  -0.038  -0.314944  -0.348602  -0.035434  3.458661  -0.051
N  N35  1  0.00838062  0.23475719  0.66206798  1  -0.38276  0.043237  3.145333  0.064  -0.360149  0.030908  3.459376  0.045  -0.376535  0.025515  3.46409  0.038  -0.315054  -0.348806  0.035435  3.458424  0.051
N  N36  1  0.52962669  0.76942191  0.02286093  1  -0.370765  -0.039678  3.149476  -0.058  -0.34824  -0.030243  3.463222  -0.043  -0.365449  -0.024876  3.472244  -0.037  -0.31258  -0.335511  -0.03427  3.458204  -0.048
N  N37  1  0.02958656  0.23049059  0.97712964  1  -0.370557  0.039682  3.148964  0.058  -0.348275  0.030239  3.462814  0.043  -0.365511  0.024877  3.471823  0.037  -0.312453  -0.335545  0.034264  3.457782  0.048
N  N38  1  0.51394483  0.74138706  0.83680043  1  -0.386782  -0.044217  3.161537  -0.066  -0.364068  -0.031507  3.476867  -0.046  -0.381253  -0.0259  3.481844  -0.039  -0.317432  -0.352225  -0.036084  3.475551  -0.052
N  N39  1  0.01406787  0.25849713  0.16323756  1  -0.386529  0.044229  3.160699  0.066  -0.363881  0.031507  3.476026  0.046  -0.381075  0.025901  3.480994  0.039  -0.317524  -0.352012  0.036084  3.474754  0.052
O  O40  1  0.77890626  0.79124997  0.65838424  1  -0.604562  -0.052313  2.143472  -0.084  -0.567462  -0.034431  2.405415  -0.056  -0.605365  -0.026307  2.396786  -0.044  -0.302083  -0.538353  -0.042182  2.410172  -0.067
O  O41  1  0.27898443  0.20881658  0.34161800  1  -0.604457  0.052263  2.143235  0.083  -0.567414  0.034411  2.405273  0.056  -0.605317  0.026297  2.396613  0.044  -0.302071  -0.538339  0.042153  2.410124  0.067
O  O42  1  0.00695384  0.81046040  0.53955292  1  -0.562369  -0.007993  2.00601  -0.012  -0.525061  -0.004467  2.240856  -0.007  -0.551138  -0.002412  2.235997  -0.004  -0.29198  -0.505697  -0.00736  2.24349  -0.011
O  O43  1  0.50713166  0.18967280  0.46041076  1  -0.56302  0.007965  2.006174  0.012  -0.525404  0.004456  2.240838  0.007  -0.551475  0.002406  2.235967  0.004  -0.292206  -0.506052  0.007344  2.243495  0.011
O  O44  1  0.93404431  0.00434686  0.34830613  1  -0.554803  0.031745  2.102479  0.05  -0.54122  0.021397  2.376843  0.033  -0.577903  0.016881  2.368511  0.027  -0.297165  -0.511776  0.025007  2.380917  0.038
O  O45  1  0.43397817  0.99548258  0.65163010  1  -0.554387  -0.031867  2.103648  -0.05  -0.540979  -0.021472  2.378187  -0.034  -0.57767  -0.01694  2.369914  -0.027  -0.297018  -0.511525  -0.025097  2.382166  -0.039
O  O46  1  0.76596057  0.89642357  0.21133847  1  -0.580883  -0.052914  2.057839  -0.085  -0.567038  -0.032322  2.332229  -0.053  -0.605898  -0.023998  2.324227  -0.04  -0.293498  -0.535968  -0.040369  2.335986  -0.065
O  O47  1  0.26591872  0.10343148  0.78866381  1  -0.580761  0.052926  2.058294  0.085  -0.566912  0.032341  2.332705  0.053  -0.605781  0.024011  2.324705  0.04  -0.293463  -0.535875  0.040398  2.33642  0.065
O  O48  1  0.23219050  0.63752814  0.66989859  1  -0.822626  -0.041634  1.977479  -0.065  -0.798498  -0.030249  2.191712  -0.047  -0.829796  -0.023904  2.156554  -0.038  -0.583857  -0.773528  -0.035895  2.216299  -0.055
O  O49  1  0.73230829  0.36265098  0.33007098  1  -0.822719  0.041687  1.976821  0.065  -0.798765  0.03027  2.191035  0.047  -0.830187  0.023917  2.15601  0.038  -0.583884  -0.773693  0.035922  2.215521  0.055
O  O50  1  0.58460578  0.51862077  0.16494461  1  -0.608855  -0.048479  2.11222  -0.078  -0.572522  -0.032358  2.369582  -0.053  -0.60995  -0.024941  2.361461  -0.041  -0.304348  -0.543735  -0.039378  2.374201  -0.063
O  O51  1  0.08478892  0.48131043  0.83507133  1  -0.609005  0.048464  2.111613  0.078  -0.572727  0.032353  2.369135  0.053  -0.610193  0.024936  2.361009  0.041  -0.3043  -0.543939  0.039377  2.373723  0.063
O  O52  1  0.58946435  0.28122593  0.04873514  1  -0.564614  -0.006586  2.02399  -0.01  -0.525085  -0.003644  2.256002  -0.005  -0.550328  -0.001959  2.250549  -0.003  -0.291481  -0.506499  -0.005945  2.259118  -0.009
O  O53  1  0.08937315  0.71870330  0.95131663  1  -0.564941  0.006576  2.023537  0.01  -0.525359  0.003648  2.255756  0.005  -0.55062  0.001964  2.250337  0.003  -0.291749  -0.506776  0.005952  2.258869  0.009
O  O54  1  0.72816407  0.29959537  0.84342610  1  -0.567479  0.023948  2.118692  0.037  -0.553661  0.016961  2.397786  0.025  -0.589454  0.013688  2.388735  0.02  -0.301273  -0.524854  0.019475  2.402537  0.028
O  O55  1  0.22831262  0.70021330  0.15651662  1  -0.567291  -0.023982  2.118994  -0.037  -0.553339  -0.016986  2.39815  -0.025  -0.589134  -0.01371  2.389135  -0.02  -0.300912  -0.524492  -0.019501  2.402903  -0.029
O  O56  1  0.59731343  0.45664005  0.71167262  1  -0.56532  -0.051151  2.037685  -0.082  -0.551129  -0.031451  2.309993  -0.051  -0.589397  -0.023588  2.302255  -0.039  -0.29431  -0.520679  -0.038823  2.313594  -0.062
O  O57  1  0.09725509  0.54331436  0.28831309  1  -0.565331  0.051265  2.037044  0.082  -0.551049  0.031508  2.309376  0.052  -0.589346  0.023624  2.301661  0.039  -0.294283  -0.520577  0.038907  2.312981  0.062
O  O58  1  0.40527424  0.05694463  0.17058903  1  -0.810758  -0.049157  1.991528  -0.077  -0.790616  -0.033517  2.210063  -0.053  -0.823309  -0.02607  2.175614  -0.042  -0.58295  -0.764352  -0.040127  2.234042  -0.061
O  O59  1  0.90515451  0.94309836  0.82943729  1  -0.810849  0.049195  1.991166  0.077  -0.790758  0.033546  2.209691  0.053  -0.823453  0.02609  2.175183  0.042  -0.583046  -0.764508  0.040166  2.233645  0.061
