# generated using pymatgen
data_ZnH11C10N4ClO4
_symmetry_space_group_name_H-M   'P 1'
_cell_length_a   8.10364737
_cell_length_b   8.10368399
_cell_length_c   10.95463300
_cell_angle_alpha   73.06695888
_cell_angle_beta   73.06719909
_cell_angle_gamma   75.98393195
_symmetry_Int_Tables_number   1
_chemical_formula_structural   ZnH11C10N4ClO4
_chemical_formula_sum   'Zn2 H22 C20 N8 Cl2 O8'
_cell_volume   648.55432464
_cell_formula_units_Z   2
loop_
 _symmetry_equiv_pos_site_id
 _symmetry_equiv_pos_as_xyz
  1  'x, y, z'
loop_
 _atom_site_type_symbol
 _atom_site_label
 _atom_site_symmetry_multiplicity
 _atom_site_fract_x
 _atom_site_fract_y
 _atom_site_fract_z
 _atom_site_occupancy
 _atom_site_pbe_bader_spin_density
 _atom_site_pbe_cm5_charge
 _atom_site_pbe_ddec_charge
 _atom_site_pbe_ddec_spin_density
 _atom_site_pbe_ddec_sum_bond_order
 _atom_site_pbe_magmom
Zn  Zn0  1  0.82237872  0.48230674  0.99893205  1  0  0.607111  0.763268  0  2.540206  0
Zn  Zn1  1  0.48230439  0.82237741  0.49893325  1  0  0.607111  0.763264  0  2.540171  0
H  H2  1  0.03632084  0.66406132  0.10313761  1  0  0.319746  0.29623  0  0.95949  0
H  H3  1  0.66406169  0.03632937  0.60313677  1  0  0.319765  0.296294  0  0.959426  0
H  H4  1  0.32005525  0.31358000  0.73580724  1  0  0.124005  0.135984  0  0.961799  0
H  H5  1  0.31357887  0.32005558  0.23580848  1  0  0.123997  0.135968  0  0.961811  0
H  H6  1  0.36118279  0.53130437  0.68644563  1  0  0.117656  0.116791  0  1.027084  0
H  H7  1  0.53130479  0.36118478  0.18644472  1  0  0.117672  0.116802  0  1.027058  0
H  H8  1  0.47462385  0.08872184  0.90122939  1  0  0.120039  0.132514  0  1.038364  0
H  H9  1  0.08871991  0.47461667  0.40122983  1  0  0.120047  0.132502  0  1.038302  0
H  H10  1  0.70748575  0.11056364  0.03871441  1  0  0.110858  0.113967  0  1.023095  0
H  H11  1  0.11055734  0.70747602  0.53871646  1  0  0.11087  0.114013  0  1.023017  0
H  H12  1  0.53488196  0.61743192  0.82295266  1  0  0.131691  0.107256  0  1.017817  0
H  H13  1  0.61743143  0.53488416  0.32295447  1  0  0.131689  0.107271  0  1.017835  0
H  H14  1  0.10558146  0.08360136  0.35767836  1  0  0.12297  0.133754  0  0.969148  0
H  H15  1  0.08360322  0.10557886  0.85768195  1  0  0.122977  0.133742  0  0.969068  0
H  H16  1  0.88840258  0.04345513  0.39073499  1  0  0.117848  0.123859  0  1.013093  0
H  H17  1  0.04345605  0.88840098  0.89073695  1  0  0.117845  0.123841  0  1.013115  0
H  H18  1  0.34155221  0.96496197  0.17699019  1  0  0.128074  0.141648  0  1.014759  0
H  H19  1  0.96496890  0.34154924  0.67699313  1  0  0.128052  0.141648  0  1.014737  0
H  H20  1  0.34910808  0.71648441  0.04273899  1  0  0.127467  0.130493  0  1.013779  0
H  H21  1  0.71648791  0.34911189  0.54274072  1  0  0.127447  0.130427  0  1.013882  0
H  H22  1  0.82779798  0.85871101  0.25383413  1  0  0.144961  0.123358  0  0.998243  0
H  H23  1  0.85871012  0.82780267  0.75383321  1  0  0.144936  0.123357  0  0.998307  0
C  C24  1  0.15924203  0.48344356  0.86427592  1  0  0.202214  0.604209  0  4.178461  0
C  C25  1  0.48344284  0.15924142  0.36427428  1  0  0.20224  0.604301  0  4.178263  0
C  C26  1  0.33131250  0.42221612  0.77176909  1  0  -0.05244  -0.210728  0  3.855222  0
C  C27  1  0.42221697  0.33131178  0.27176851  1  0  -0.052436  -0.210736  0  3.855164  0
C  C28  1  0.52136160  0.19913525  0.90896286  1  0  -0.001617  -0.104595  0  3.898788  0
C  C29  1  0.19913534  0.52135977  0.40896095  1  0  -0.001584  -0.104475  0  3.898926  0
C  C30  1  0.63630109  0.21217792  0.97470078  1  0  -0.006913  -0.030272  0  3.984952  0
C  C31  1  0.21217469  0.63629481  0.47469849  1  0  -0.006948  -0.030438  0  3.985114  0
C  C32  1  0.55180603  0.47711050  0.86476208  1  0  0.144728  0.103788  0  3.909586  0
C  C33  1  0.47710688  0.55180542  0.36476301  1  0  0.144717  0.103734  0  3.909751  0
C  C34  1  0.94427069  0.26670746  0.23099421  1  0  0.201686  0.60486  0  4.202506  0
C  C35  1  0.26670741  0.94427226  0.73099969  1  0  0.201695  0.604727  0  4.202529  0
C  C36  1  0.00212903  0.08191645  0.31237458  1  0  -0.052618  -0.216856  0  3.829118  0
C  C37  1  0.08191802  0.00212687  0.81237742  1  0  -0.052616  -0.216687  0  3.828903  0
C  C38  1  0.23819831  0.90775995  0.16930810  1  0  0.01836  -0.084918  0  3.8586  0
C  C39  1  0.90776334  0.23819936  0.66931012  1  0  0.018322  -0.084973  0  3.858744  0
C  C40  1  0.24210884  0.78416805  0.10551248  1  0  0.023686  -0.007502  0  3.897619  0
C  C41  1  0.78417482  0.24211264  0.60551112  1  0  0.023833  -0.00725  0  3.89751  0
C  C42  1  0.96720734  0.85481410  0.21398956  1  0  0.176406  0.121379  0  3.808168  0
C  C43  1  0.85481700  0.96720775  0.71399029  1  0  0.176396  0.121386  0  3.808185  0
N  N44  1  0.65359854  0.38626456  0.94642559  1  0  -0.370423  -0.302654  0  3.63078  0
N  N45  1  0.38625997  0.65359560  0.44642593  1  0  -0.37038  -0.302532  0  3.63074  0
N  N46  1  0.47172601  0.36742962  0.83889859  1  0  -0.244617  0.059662  0  3.823564  0
N  N47  1  0.36742883  0.47172634  0.33889866  1  0  -0.244659  0.059619  0  3.823615  0
N  N48  1  0.06587418  0.94932328  0.23629823  1  0  -0.228886  0.072834  0  3.801907  0
N  N49  1  0.94932648  0.06587613  0.73629959  1  0  -0.228891  0.072699  0  3.801999  0
N  N50  1  0.07296538  0.75408920  0.13513510  1  0  -0.362095  -0.18605  0  3.711198  0
N  N51  1  0.75408969  0.07297012  0.63513331  1  0  -0.362162  -0.186217  0  3.710993  0
Cl  Cl52  1  0.71039011  0.74466965  0.04149942  1  0  -0.303915  -0.509365  0  1.210549  0
Cl  Cl53  1  0.74466980  0.71039361  0.54149762  1  0  -0.303923  -0.509368  0  1.210549  0
O  O54  1  0.16335843  0.54030621  0.95766664  1  0  -0.320972  -0.559505  0  2.180425  0
O  O55  1  0.54030483  0.16335915  0.45766861  1  0  -0.321004  -0.559579  0  2.180274  0
O  O56  1  0.01961891  0.46943853  0.83701047  1  0  -0.333961  -0.558152  0  2.291554  0
O  O57  1  0.46943562  0.01961738  0.33701247  1  0  -0.333969  -0.558174  0  2.291512  0
O  O58  1  0.89134996  0.26783199  0.13050293  1  0  -0.337546  -0.557081  0  2.34471  0
O  O59  1  0.26783377  0.89134525  0.63050945  1  0  -0.337535  -0.55706  0  2.344813  0
O  O60  1  0.94751903  0.39487901  0.27049665  1  0  -0.323499  -0.558179  0  2.143011  0
O  O61  1  0.39487907  0.94752187  0.77050208  1  0  -0.32351  -0.558103  0  2.142974  0
