# generated using pymatgen
data_TbH10C10N2O9
_symmetry_space_group_name_H-M   'P 1'
_cell_length_a   6.49821360
_cell_length_b   9.63213579
_cell_length_c   10.88666812
_cell_angle_alpha   99.54497048
_cell_angle_beta   106.70758166
_cell_angle_gamma   105.58227170
_symmetry_Int_Tables_number   1
_chemical_formula_structural   TbH10C10N2O9
_chemical_formula_sum   'Tb2 H20 C20 N4 O18'
_cell_volume   606.45354977
_cell_formula_units_Z   2
loop_
 _symmetry_equiv_pos_site_id
 _symmetry_equiv_pos_as_xyz
  1  'x, y, z'
loop_
 _atom_site_type_symbol
 _atom_site_label
 _atom_site_symmetry_multiplicity
 _atom_site_fract_x
 _atom_site_fract_y
 _atom_site_fract_z
 _atom_site_occupancy
 _atom_site_hle17_bader_spin_density
 _atom_site_hle17_ddec_charge
 _atom_site_hle17_ddec_spin_density
 _atom_site_hle17_ddec_sum_bond_order
 _atom_site_hle17_magmom
 _atom_site_hse06_10hf_bader_spin_density
 _atom_site_hse06_10hf_ddec_charge
 _atom_site_hse06_10hf_ddec_spin_density
 _atom_site_hse06_10hf_ddec_sum_bond_order
 _atom_site_hse06_10hf_magmom
 _atom_site_hse06_bader_spin_density
 _atom_site_hse06_ddec_charge
 _atom_site_hse06_ddec_spin_density
 _atom_site_hse06_ddec_sum_bond_order
 _atom_site_hse06_magmom
 _atom_site_pbe_bader_spin_density
 _atom_site_pbe_cm5_charge
 _atom_site_pbe_ddec_charge
 _atom_site_pbe_ddec_spin_density
 _atom_site_pbe_ddec_sum_bond_order
 _atom_site_pbe_magmom
Tb  Tb0  1  0.33183960  0.39091157  0.68733111  1  0  2.292807  0  1.610286  0  0  2.222716  0  1.938023  0  0  2.265955  0  1.898371  0  0  1.486606  2.117196  0  2.10403  0
Tb  Tb1  1  0.66815686  0.60908928  0.31266704  1  0  2.292823  0  1.610287  0  0  2.222733  0  1.938022  0  0  2.265971  0  1.898369  0  0  1.486638  2.117226  0  2.104014  0
H  H2  1  0.92163451  0.15019626  0.56609936  1  0  0.423974  0  0.885905  0  0  0.391328  0  0.951702  0  0  0.403663  0  0.933659  0  0  0.291614  0.382776  0  0.963919  0
H  H3  1  0.07836297  0.84980346  0.43389971  1  0  0.423918  0  0.88599  0  0  0.391272  0  0.951787  0  0  0.403605  0  0.933748  0  0  0.2916  0.38272  0  0.964004  0
H  H4  1  0.93120384  0.16426479  0.72001955  1  0  0.411518  0  0.900189  0  0  0.374664  0  0.974321  0  0  0.385387  0  0.958947  0  0  0.290226  0.366659  0  0.98562  0
H  H5  1  0.06879785  0.83573379  0.27998007  1  0  0.411581  0  0.900137  0  0  0.374728  0  0.974263  0  0  0.385453  0  0.958889  0  0  0.290242  0.366723  0  0.985562  0
H  H6  1  0.57464532  0.17112358  0.69191971  1  0  0.413569  0  0.89236  0  0  0.37815  0  0.965038  0  0  0.388484  0  0.949908  0  0  0.297005  0.370609  0  0.975797  0
H  H7  1  0.42536251  0.82888056  0.30808271  1  0  0.413618  0  0.89225  0  0  0.3782  0  0.964952  0  0  0.388535  0  0.949821  0  0  0.297033  0.370661  0  0.97571  0
H  H8  1  0.31885136  0.07232579  0.61948395  1  0  0.444195  0  0.847053  0  0  0.415248  0  0.907117  0  0  0.425172  0  0.892575  0  0  0.303274  0.407803  0  0.917887  0
H  H9  1  0.68115530  0.92767612  0.38051609  1  0  0.444158  0  0.847097  0  0  0.415197  0  0.907183  0  0  0.425124  0  0.892636  0  0  0.303241  0.407754  0  0.917952  0
H  H10  1  0.32324950  0.61984643  0.52646148  1  0  0.455537  0  0.798261  0  0  0.429024  0  0.868013  0  0  0.43858  0  0.854802  0  0  0.330168  0.421834  0  0.875866  0
H  H11  1  0.67676313  0.38015768  0.47354175  1  0  0.45557  0  0.798101  0  0  0.42912  0  0.867769  0  0  0.438679  0  0.854635  0  0  0.330233  0.421931  0  0.875623  0
H  H12  1  0.58680938  0.64035512  0.58642691  1  0  0.430758  0  0.87307  0  0  0.396665  0  0.943983  0  0  0.407672  0  0.927716  0  0  0.303117  0.3892  0  0.954405  0
H  H13  1  0.41320048  0.35964676  0.41357734  1  0  0.430721  0  0.873148  0  0  0.396609  0  0.944094  0  0  0.407615  0  0.927827  0  0  0.303103  0.389139  0  0.954522  0
H  H14  1  0.59839315  0.79582898  0.89311191  1  0  0.328057  0  0.903055  0  0  0.30904  0  0.961304  0  0  0.318305  0  0.954062  0  0  0.316278  0.302116  0  0.966907  0
H  H15  1  0.40161452  0.20417180  0.10688906  1  0  0.328125  0  0.903084  0  0  0.309116  0  0.9613  0  0  0.318381  0  0.954054  0  0  0.316321  0.302187  0  0.966905  0
H  H16  1  0.60335672  0.88342573  0.68742651  1  0  0.096773  0  0.934102  0  0  0.10923  0  0.992838  0  0  0.111937  0  0.989076  0  0  0.140697  0.106728  0  0.996448  0
H  H17  1  0.39664353  0.11657623  0.31257062  1  0  0.096842  0  0.934047  0  0  0.109296  0  0.992783  0  0  0.112007  0  0.989017  0  0  0.140733  0.106796  0  0.996394  0
H  H18  1  0.99247891  0.39437496  0.00108626  1  0  0.10334  0  0.956392  0  0  0.115267  0  1.016507  0  0  0.117865  0  1.015342  0  0  0.107311  0.113367  0  1.017753  0
H  H19  1  0.00751974  0.60562699  0.99891610  1  0  0.103426  0  0.956338  0  0  0.115331  0  1.016476  0  0  0.117928  0  1.015311  0  0  0.10733  0.11343  0  1.017722  0
H  H20  1  0.76063629  0.94812324  0.17764971  1  0  0.134465  0  0.958242  0  0  0.1408  0  1.024595  0  0  0.145026  0  1.020993  0  0  0.115568  0.137596  0  1.027597  0
H  H21  1  0.23937062  0.05187307  0.82234678  1  0  0.134452  0  0.958232  0  0  0.140758  0  1.024614  0  0  0.144982  0  1.021018  0  0  0.115584  0.137553  0  1.027617  0
C  C22  1  0.67445430  0.95755608  0.78688453  1  0  0.285356  0  3.651468  0  0  0.216579  0  3.931519  0  0  0.234541  0  3.94024  0  0  0.170772  0.204835  0  3.926057  0
C  C23  1  0.32554855  0.04244475  0.21311103  1  0  0.2853  0  3.651609  0  0  0.216505  0  3.931671  0  0  0.234467  0  3.940392  0  0  0.17074  0.204758  0  3.92621  0
C  C24  1  0.83237825  0.15471830  0.95334139  1  0  0.168473  0  3.801351  0  0  0.160671  0  4.056534  0  0  0.165674  0  4.077186  0  0  0.094415  0.157081  0  4.043086  0
C  C25  1  0.16762723  0.84528138  0.04665904  1  0  0.168514  0  3.801472  0  0  0.16077  0  4.056593  0  0  0.165774  0  4.077246  0  0  0.094403  0.15718  0  4.043147  0
C  C26  1  0.94246412  0.29801886  0.03941938  1  0  -0.137312  0  3.700379  0  0  -0.169651  0  3.963005  0  0  -0.171287  0  3.980689  0  0  -0.086608  -0.168771  0  3.95208  0
C  C27  1  0.05754296  0.70198080  0.96058131  1  0  -0.137468  0  3.700563  0  0  -0.169848  0  3.963189  0  0  -0.171486  0  3.980872  0  0  -0.08667  -0.168971  0  3.952266  0
C  C28  1  0.98261685  0.31465352  0.17479613  1  0  -0.06744  0  3.720839  0  0  -0.058574  0  3.963745  0  0  -0.062089  0  3.983772  0  0  -0.010295  -0.056702  0  3.951863  0
C  C29  1  0.01739504  0.68534610  0.82520722  1  0  -0.067376  0  3.721087  0  0  -0.058428  0  3.963851  0  0  -0.061941  0  3.983877  0  0  -0.010249  -0.056556  0  3.951963  0
C  C30  1  0.91641305  0.18869331  0.22439089  1  0  -0.093851  0  3.740835  0  0  -0.084999  0  3.988798  0  0  -0.092838  0  4.011356  0  0  -0.021559  -0.080252  0  3.975443  0
C  C31  1  0.08359446  0.81130411  0.77560955  1  0  -0.093757  0  3.740842  0  0  -0.084964  0  3.988827  0  0  -0.092806  0  4.011388  0  0  -0.021564  -0.080216  0  3.975468  0
C  C32  1  0.80747761  0.04462807  0.13915201  1  0  -0.13212  0  3.698807  0  0  -0.166708  0  3.963127  0  0  -0.166033  0  3.979746  0  0  -0.080972  -0.167171  0  3.952791  0
C  C33  1  0.19253209  0.95537045  0.86084896  1  0  -0.132098  0  3.698744  0  0  -0.166645  0  3.963095  0  0  -0.165968  0  3.979716  0  0  -0.080913  -0.167109  0  3.952761  0
C  C34  1  0.76806947  0.02974777  0.00435421  1  0  0.145917  0  3.784223  0  0  0.136195  0  4.03604  0  0  0.139723  0  4.057767  0  0  0.093778  0.133541  0  4.021612  0
C  C35  1  0.23193922  0.97025188  0.99564676  1  0  0.14587  0  3.784359  0  0  0.136102  0  4.036176  0  0  0.139628  0  4.057905  0  0  0.093706  0.133447  0  4.021749  0
C  C36  1  0.08540381  0.46971278  0.26670374  1  0  0.743431  0  3.849729  0  0  0.696847  0  4.144893  0  0  0.732716  0  4.13076  0  0  0.241379  0.671303  0  4.150975  0
C  C37  1  0.91459469  0.53028580  0.73329993  1  0  0.743296  0  3.850376  0  0  0.696778  0  4.145391  0  0  0.73265  0  4.13125  0  0  0.241402  0.671243  0  4.151453  0
C  C38  1  0.96906062  0.20549958  0.37006648  1  0  0.707923  0  3.824604  0  0  0.654322  0  4.122407  0  0  0.689496  0  4.112585  0  0  0.233072  0.629497  0  4.127923  0
C  C39  1  0.03094049  0.79449787  0.62993378  1  0  0.707844  0  3.824616  0  0  0.654285  0  4.122408  0  0  0.689453  0  4.112594  0  0  0.233083  0.629458  0  4.127927  0
C  C40  1  0.47399905  0.41765760  0.00215679  1  0  0.546678  0  3.958336  0  0  0.500728  0  4.270829  0  0  0.530299  0  4.260785  0  0  0.214572  0.481302  0  4.268362  0
C  C41  1  0.52599319  0.58234439  0.99784449  1  0  0.546953  0  3.958352  0  0  0.501021  0  4.270817  0  0  0.530595  0  4.260769  0  0  0.214598  0.481592  0  4.268355  0
N  N42  1  0.77002029  0.10578466  0.81622648  1  0  -0.456349  0  3.08073  0  0  -0.388223  0  3.326618  0  0  -0.406511  0  3.337188  0  0  -0.331088  -0.376256  0  3.320263  0
N  N43  1  0.22998214  0.89421840  0.18377302  1  0  -0.456408  0  3.080759  0  0  -0.388317  0  3.326657  0  0  -0.406606  0  3.337227  0  0  -0.331103  -0.37635  0  3.320301  0
N  N44  1  0.66919358  0.90698314  0.89486904  1  0  -0.335347  0  3.380386  0  0  -0.271505  0  3.616932  0  0  -0.290835  0  3.631208  0  0  -0.368352  -0.258286  0  3.607852  0
N  N45  1  0.33081510  0.09301653  0.10512826  1  0  -0.335369  0  3.380544  0  0  -0.271479  0  3.617024  0  0  -0.290808  0  3.631301  0  0  -0.368352  -0.258257  0  3.607947  0
O  O46  1  0.16099959  0.30252612  0.45056569  1  0  -0.761026  0  2.058864  0  0  -0.702369  0  2.301169  0  0  -0.729662  0  2.290033  0  0  -0.385071  -0.673578  0  2.310897  0
O  O47  1  0.83900050  0.69747248  0.54943182  1  0  -0.761049  0  2.058912  0  0  -0.702385  0  2.301185  0  0  -0.729677  0  2.290052  0  0  -0.385099  -0.673598  0  2.310916  0
O  O48  1  0.82481456  0.12378036  0.40798781  1  0  -0.618247  0  1.999932  0  0  -0.552531  0  2.213483  0  0  -0.577563  0  2.201806  0  0  -0.290247  -0.535332  0  2.222331  0
O  O49  1  0.17518366  0.87622384  0.59201206  1  0  -0.61812  0  1.999827  0  0  -0.552487  0  2.213429  0  0  -0.577504  0  2.201745  0  0  -0.290225  -0.535287  0  2.222275  0
O  O50  1  0.96961122  0.51668388  0.32954323  1  0  -0.743159  0  2.021885  0  0  -0.70431  0  2.275772  0  0  -0.728908  0  2.262943  0  0  -0.398434  -0.675647  0  2.288007  0
O  O51  1  0.03037735  0.48330805  0.67045591  1  0  -0.743164  0  2.022086  0  0  -0.704368  0  2.275968  0  0  -0.728969  0  2.263143  0  0  -0.398522  -0.675705  0  2.288196  0
O  O52  1  0.28310816  0.54855393  0.27585124  1  0  -0.747565  0  2.037729  0  0  -0.701472  0  2.292738  0  0  -0.727382  0  2.280064  0  0  -0.409205  -0.672391  0  2.305149  0
O  O53  1  0.71689633  0.45144681  0.72416204  1  0  -0.747532  0  2.038163  0  0  -0.701441  0  2.293081  0  0  -0.727377  0  2.280457  0  0  -0.40915  -0.672364  0  2.305487  0
O  O54  1  0.39559025  0.32027504  0.89215922  1  0  -0.639613  0  2.044894  0  0  -0.60276  0  2.291945  0  0  -0.624992  0  2.283656  0  0  -0.362143  -0.577724  0  2.29834  0
O  O55  1  0.60439208  0.67972029  0.10783845  1  0  -0.639695  0  2.045258  0  0  -0.60289  0  2.292374  0  0  -0.625121  0  2.284082  0  0  -0.362127  -0.577854  0  2.29877  0
O  O56  1  0.51446700  0.39446862  0.11674792  1  0  -0.66399  0  2.131867  0  0  -0.624177  0  2.376291  0  0  -0.648527  0  2.371185  0  0  -0.343598  -0.598188  0  2.379989  0
O  O57  1  0.48551750  0.60552784  0.88324661  1  0  -0.664101  0  2.131618  0  0  -0.624281  0  2.376027  0  0  -0.648633  0  2.370921  0  0  -0.343619  -0.598291  0  2.379726  0
O  O58  1  0.02515243  0.17953777  0.66180630  1  0  -0.944195  0  1.941506  0  0  -0.900202  0  2.145541  0  0  -0.920157  0  2.112544  0  0  -0.673457  -0.876222  0  2.173505  0
O  O59  1  0.97485070  0.82045744  0.33819214  1  0  -0.944251  0  1.941589  0  0  -0.900222  0  2.1456  0  0  -0.92018  0  2.1126  0  0  -0.673468  -0.876242  0  2.173564  0
O  O60  1  0.42947953  0.17026304  0.62889875  1  0  -0.898086  0  1.87593  0  0  -0.860111  0  2.061589  0  0  -0.877511  0  2.030024  0  0  -0.648281  -0.838629  0  2.089198  0
O  O61  1  0.57052553  0.82973887  0.37110378  1  0  -0.898094  0  1.875884  0  0  -0.860114  0  2.061584  0  0  -0.877516  0  2.030014  0  0  -0.648279  -0.838633  0  2.089189  0
O  O62  1  0.43834386  0.60797331  0.60083723  1  0  -0.894485  0  1.84833  0  0  -0.859876  0  2.052203  0  0  -0.876178  0  2.020633  0  0  -0.62057  -0.838291  0  2.07681  0
O  O63  1  0.56166600  0.39202857  0.39916611  1  0  -0.894515  0  1.848296  0  0  -0.859957  0  2.052041  0  0  -0.876278  0  2.020593  0  0  -0.620621  -0.838367  0  2.076658  0
