# generated using pymatgen
data_CdH21C31N9O4
_symmetry_space_group_name_H-M   'P 1'
_cell_length_a   8.37895849
_cell_length_b   12.09405067
_cell_length_c   17.06270434
_cell_angle_alpha   75.61388755
_cell_angle_beta   84.24890655
_cell_angle_gamma   81.92223499
_symmetry_Int_Tables_number   1
_chemical_formula_structural   CdH21C31N9O4
_chemical_formula_sum   'Cd2 H42 C62 N18 O8'
_cell_volume   1654.37602936
_cell_formula_units_Z   2
loop_
 _symmetry_equiv_pos_site_id
 _symmetry_equiv_pos_as_xyz
  1  'x, y, z'
loop_
 _atom_site_type_symbol
 _atom_site_label
 _atom_site_symmetry_multiplicity
 _atom_site_fract_x
 _atom_site_fract_y
 _atom_site_fract_z
 _atom_site_occupancy
 _atom_site_pbe_bader_charge
 _atom_site_pbe_bader_spin_density
 _atom_site_pbe_cm5_charge
 _atom_site_pbe_ddec_charge
 _atom_site_pbe_ddec_spin_density
 _atom_site_pbe_ddec_sum_bond_order
 _atom_site_pbe_magmom
Cd  Cd0  1  0.80451434  0.44006097  0.56200130  1  1.288792  0  0.780169  0.905  0  2.135023  0
Cd  Cd1  1  0.19549225  0.55993847  0.43800011  1  1.288786  0  0.780166  0.904989  0  2.135132  0
H  H2  1  0.92040209  0.24436872  0.93554741  1  0.497397  0  0.3539  0.29329  0  0.889977  0
H  H3  1  0.07959967  0.75562978  0.06445096  1  0.497421  0  0.353922  0.293301  0  0.88997  0
H  H4  1  0.67379801  0.31946517  0.32634209  1  0.077026  0  0.091323  0.089505  0  1.068947  0
H  H5  1  0.32621044  0.68052311  0.67366193  1  0.07697  0  0.091302  0.089428  0  1.06904  0
H  H6  1  0.72695064  0.27624774  0.18928929  1  0.074719  0  0.102796  0.107224  0  0.999504  0
H  H7  1  0.27304787  0.72374226  0.81071385  1  0.074558  0  0.102795  0.107259  0  0.999541  0
H  H8  1  0.13482997  0.46836968  0.14335628  1  0.086557  0  0.102586  0.107529  0  1.012239  0
H  H9  1  0.86516453  0.53162881  0.85664137  1  0.086541  0  0.102604  0.107524  0  1.012182  0
H  H10  1  0.07690644  0.51594433  0.27761086  1  0.154385  0  0.102395  0.118097  0  1.06937  0
H  H11  1  0.92308749  0.48405760  0.72238617  1  0.154317  0  0.102391  0.118094  0  1.069488  0
H  H12  1  0.37678295  0.42261183  0.95589549  1  0.07739  0  0.109272  0.11481  0  0.995189  0
H  H13  1  0.62321020  0.57739623  0.04410453  1  0.077476  0  0.109278  0.114774  0  0.995102  0
H  H14  1  0.59008369  0.44261465  0.84061118  1  0.072303  0  0.105519  0.109911  0  1.000259  0
H  H15  1  0.40991150  0.55739602  0.15938938  1  0.072556  0  0.105522  0.109882  0  1.000263  0
H  H16  1  0.32843768  0.26233936  0.71918317  1  0.051104  0  0.096796  0.0913  0  1.04464  0
H  H17  1  0.67156300  0.73767382  0.28081481  1  0.051176  0  0.096811  0.091258  0  1.044766  0
H  H18  1  0.11932572  0.23619961  0.83449356  1  0.045087  0  0.101219  0.095897  0  1.015885  0
H  H19  1  0.88066563  0.76381776  0.16549951  1  0.045047  0  0.10122  0.095917  0  1.015877  0
H  H20  1  0.94872519  0.21918668  0.47331271  1  0.173147  0  0.136164  0.105516  0  1.019622  0
H  H21  1  0.05127386  0.78081447  0.52668768  1  0.17313  0  0.136155  0.105517  0  1.019619  0
H  H22  1  0.05999767  0.25439452  0.69947095  1  0.130408  0  0.127332  0.124779  0  0.998313  0
H  H23  1  0.94000756  0.74559800  0.30053011  1  0.130573  0  0.127301  0.124791  0  0.998274  0
H  H24  1  0.25748399  0.06614371  0.66466496  1  0.133062  0  0.126466  0.129134  0  1.002361  0
H  H25  1  0.74250737  0.93384540  0.33533703  1  0.132741  0  0.126462  0.129108  0  1.002323  0
H  H26  1  0.28699078  0.81922125  0.28606564  1  0.159215  0  0.126083  0.092697  0  1.056759  0
H  H27  1  0.71301338  0.18077819  0.71393534  1  0.159064  0  0.126113  0.092699  0  1.056775  0
H  H28  1  0.10270411  0.16876298  0.27115105  1  0.077878  0  0.114407  0.116391  0  1.042292  0
H  H29  1  0.89729965  0.83123811  0.72884729  1  0.077875  0  0.114413  0.116413  0  1.042292  0
H  H30  1  0.04936607  0.10882865  0.13150242  1  0.128346  0  0.109976  0.106717  0  1.023189  0
H  H31  1  0.95064123  0.89117240  0.86849454  1  0.127682  0  0.109969  0.106717  0  1.02314  0
H  H32  1  0.54238063  0.83489044  0.64715918  1  0.097653  0  0.122773  0.123932  0  1.007258  0
H  H33  1  0.45761334  0.16511150  0.35283844  1  0.097461  0  0.1228  0.123945  0  1.007241  0
H  H34  1  0.55040444  0.67182511  0.45208482  1  0.265236  0  0.139663  0.126664  0  1.048784  0
H  H35  1  0.44959762  0.32817169  0.54791445  1  0.265244  0  0.139691  0.126712  0  1.048734  0
H  H36  1  0.74786792  0.63238130  0.67688050  1  0.137383  0  0.118055  0.115539  0  1.042384  0
H  H37  1  0.25213757  0.36762503  0.32312025  1  0.137345  0  0.118079  0.115569  0  1.04233  0
H  H38  1  0.08225022  0.12215140  0.40068829  1  0.081703  0  0.112717  0.128023  0  1.026699  0
H  H39  1  0.91775028  0.87784801  0.59931175  1  0.081703  0  0.112719  0.128028  0  1.026633  0
H  H40  1  0.43006796  0.82877072  0.38332610  1  0.155942  0  0.115826  0.140795  0  1.044737  0
H  H41  1  0.56993789  0.17123206  0.61667120  1  0.155868  0  0.115783  0.140725  0  1.044748  0
H  H42  1  0.32917493  0.92878615  0.61070150  1  0.07424  0  0.111849  0.125064  0  1.027935  0
H  H43  1  0.67081155  0.07120292  0.38929904  1  0.074206  0  0.111854  0.125096  0  1.027837  0
C  C44  1  0.84753457  0.43730540  0.39568572  1  1.542127  0  0.192278  0.566799  0  4.209729  0
C  C45  1  0.15247311  0.56268715  0.60431636  1  1.542193  0  0.192289  0.566782  0  4.209743  0
C  C46  1  0.87462714  0.41706967  0.31206455  1  -0.128476  0  -0.026279  -0.043928  0  3.986724  0
C  C47  1  0.12537152  0.58292631  0.68793626  1  -0.128299  0  -0.026306  -0.043949  0  3.986569  0
C  C48  1  0.77547995  0.35064483  0.28604502  1  -0.019567  0  -0.093344  -0.098484  0  3.99616  0
C  C49  1  0.22452684  0.64934602  0.71395803  1  -0.019806  0  -0.093318  -0.098291  0  3.996082  0
C  C50  1  0.80471134  0.32700872  0.20980376  1  -0.0371  0  -0.0903  -0.126952  0  3.977806  0
C  C51  1  0.19528575  0.67298303  0.79020030  1  -0.036595  0  -0.090262  -0.12705  0  3.977823  0
C  C52  1  0.93610775  0.36817228  0.15823257  1  -0.025214  0  0.000468  0.040448  0  3.992875  0
C  C53  1  0.06389129  0.63182204  0.84177029  1  -0.025188  0  0.000447  0.040408  0  3.992828  0
C  C54  1  0.03395241  0.43586571  0.18390179  1  -0.035544  0  -0.089146  -0.118723  0  3.963304  0
C  C55  1  0.96604481  0.56413201  0.81609936  1  -0.035665  0  -0.089148  -0.11865  0  3.963079  0
C  C56  1  0.00191825  0.46149601  0.25933854  1  -0.028911  0  -0.092914  -0.11226  0  3.998928  0
C  C57  1  0.99807651  0.53850168  0.74066160  1  -0.028892  0  -0.092902  -0.112313  0  3.998853  0
C  C58  1  0.97518695  0.34151622  0.07906948  1  0.955257  0  0.210064  0.256313  0  4.079344  0
C  C59  1  0.02481490  0.65847551  0.92093370  1  0.955941  0  0.209945  0.256178  0  4.07949  0
C  C60  1  0.10983228  0.32445773  0.96907380  1  0.958153  0  0.228606  0.278473  0  4.043456  0
C  C61  1  0.89016579  0.67554167  0.03092580  1  0.958169  0  0.22865  0.278474  0  4.043492  0
C  C62  1  0.23417128  0.32930252  0.90257511  1  0.010516  0  -0.000694  0.024469  0  4.021507  0
C  C63  1  0.76581963  0.67071058  0.09741997  1  0.010362  0  -0.000721  0.02448  0  4.021758  0
C  C64  1  0.36871162  0.38623814  0.90428376  1  -0.006447  0  -0.077026  -0.09463  0  3.935291  0
C  C65  1  0.63128491  0.61377166  0.09571689  1  -0.006555  0  -0.07704  -0.094625  0  3.93533  0
C  C66  1  0.48641096  0.39744238  0.84042515  1  -0.001451  0  -0.079509  -0.083069  0  3.963919  0
C  C67  1  0.51358572  0.60256656  0.15957565  1  -0.001196  0  -0.079475  -0.082993  0  3.963758  0
C  C68  1  0.47139130  0.35362245  0.77314612  1  -0.018716  0  -0.017485  -0.027064  0  3.965299  0
C  C69  1  0.52860866  0.64638818  0.22685356  1  -0.018753  0  -0.017563  -0.027117  0  3.965155  0
C  C70  1  0.33897282  0.29508501  0.77215890  1  -0.002431  0  -0.087212  -0.09005  0  3.988785  0
C  C71  1  0.66102272  0.70492987  0.22783791  1  -0.002775  0  -0.087117  -0.089912  0  3.988539  0
C  C72  1  0.22189626  0.28189342  0.83642698  1  -0.050924  0  -0.090554  -0.126196  0  3.987529  0
C  C73  1  0.77810383  0.71811542  0.16357010  1  -0.050622  0  -0.090633  -0.12629  0  3.987527  0
C  C74  1  0.59299425  0.37251825  0.70209285  1  1.558647  0  0.190409  0.552268  0  4.243729  0
C  C75  1  0.40700563  0.62749328  0.29790784  1  1.557565  0  0.190457  0.552188  0  4.243818  0
C  C76  1  0.00760716  0.20424113  0.52926775  1  0.958207  0  0.14567  0.107485  0  3.898818  0
C  C77  1  0.99239323  0.79575915  0.47073271  1  0.958135  0  0.145702  0.107493  0  3.89883  0
C  C78  1  0.06801606  0.21822010  0.64702875  1  0.464303  0  0.013422  -0.001146  0  3.97754  0
C  C79  1  0.93198817  0.78177160  0.35297370  1  0.46396  0  0.013411  -0.0012  0  3.977538  0
C  C80  1  0.16562461  0.12488762  0.63044512  1  0.227205  0  -0.001472  -0.1119  0  3.904369  0
C  C81  1  0.83437333  0.87510487  0.36955464  1  0.227499  0  -0.001402  -0.111745  0  3.904123  0
C  C82  1  0.23170089  0.90540461  0.26020350  1  0.941821  0  0.127988  0.100788  0  3.945871  0
C  C83  1  0.76830432  0.09459474  0.73979449  1  0.94251  0  0.128002  0.10081  0  3.945892  0
C  C84  1  0.13086810  0.08737323  0.25407265  1  0.274586  0  -0.018144  -0.133839  0  3.943487  0
C  C85  1  0.86913709  0.91262705  0.74592752  1  0.274229  0  -0.018199  -0.134004  0  3.943555  0
C  C86  1  0.10722071  0.05589778  0.18452579  1  0.416776  0  -0.010539  -0.016289  0  4.039221  0
C  C87  1  0.89278745  0.94410589  0.81547237  1  0.417428  0  -0.010456  -0.016147  0  4.039234  0
C  C88  1  0.57320313  0.77116707  0.61188219  1  0.285337  0  -0.004537  -0.108611  0  3.946431  0
C  C89  1  0.42679313  0.22883574  0.38811570  1  0.285551  0  -0.004535  -0.108573  0  3.946405  0
C  C90  1  0.58052781  0.68901738  0.50815327  1  0.913794  0  0.158209  0.13679  0  3.826326  0
C  C91  1  0.41947498  0.31098290  0.49184705  1  0.913782  0  0.158112  0.136729  0  3.826219  0
C  C92  1  0.67701586  0.67181312  0.62533626  1  0.401377  0  0.001624  -0.018758  0  3.985033  0
C  C93  1  0.32298505  0.32819148  0.37466393  1  0.401387  0  0.001525  -0.018895  0  3.985178  0
C  C94  1  0.20206151  0.03633694  0.50998825  1  0.27866  0  0.098126  0.206804  0  4.053558  0
C  C95  1  0.79793339  0.96365989  0.49001205  1  0.278662  0  0.098193  0.206808  0  4.053389  0
C  C96  1  0.16924178  0.05197673  0.42905533  1  0.045005  0  -0.102553  -0.290543  0  3.98537  0
C  C97  1  0.83075630  0.94802267  0.57094428  1  0.044984  0  -0.102568  -0.290447  0  3.985248  0
C  C98  1  0.24966602  0.97608970  0.38415782  1  0.330902  0  0.102547  0.212713  0  4.038006  0
C  C99  1  0.75033697  0.02390882  0.61584106  1  0.330901  0  0.102464  0.212435  0  4.038006  0
C  C100  1  0.36650690  0.88717387  0.41862525  1  0.028482  0  -0.095699  -0.277305  0  3.913297  0
C  C101  1  0.63349692  0.11282725  0.58137426  1  0.028623  0  -0.095586  -0.277046  0  3.912979  0
C  C102  1  0.39487494  0.87133931  0.50022047  1  0.299775  0  0.107174  0.22381  0  4.024039  0
C  C103  1  0.60511904  0.12865581  0.49978021  1  0.29976  0  0.107051  0.223708  0  4.024082  0
C  C104  1  0.31049125  0.94400611  0.54672601  1  0.060635  0  -0.103243  -0.28683  0  3.956192  0
C  C105  1  0.68950004  0.05599074  0.45327450  1  0.060591  0  -0.103204  -0.286824  0  3.956178  0
N  N106  1  0.11691117  0.36413508  0.03477606  1  -1.150351  0  -0.330265  -0.415641  0  3.179998  0
N  N107  1  0.88308291  0.63586693  0.96522388  1  -1.150625  0  -0.330236  -0.415589  0  3.180006  0
N  N108  1  0.96645408  0.28040314  0.97483322  1  -0.81962  0  -0.264493  -0.157352  0  3.683615  0
N  N109  1  0.03354799  0.71959366  0.02516605  1  -0.819611  0  -0.264492  -0.157325  0  3.683649  0
N  N110  1  0.87888005  0.29011836  0.04437608  1  -0.623981  0  -0.234506  -0.265545  0  3.087157  0
N  N111  1  0.12112258  0.70987500  0.95562382  1  -0.62446  0  -0.234468  -0.265488  0  3.087134  0
N  N112  1  0.97068257  0.26633931  0.58365073  1  -1.183512  0  -0.342645  -0.270807  0  3.502327  0
N  N113  1  0.02932193  0.73365844  0.41635173  1  -1.183356  0  -0.342692  -0.270881  0  3.50234  0
N  N114  1  0.12703012  0.11634072  0.55466277  1  -1.258657  0  -0.224892  0.001821  0  3.770617  0
N  N115  1  0.87296389  0.88365442  0.44533849  1  -1.258551  0  -0.224893  0.001845  0  3.770408  0
N  N116  1  0.16940336  0.94224312  0.18910750  1  -1.174933  0  -0.362988  -0.332394  0  3.259662  0
N  N117  1  0.83060277  0.05775795  0.81089012  1  -1.17548  0  -0.363004  -0.332405  0  3.259749  0
N  N118  1  0.21210429  0.99028694  0.30310261  1  -1.259489  0  -0.236828  -0.01277  0  3.770573  0
N  N119  1  0.78790070  0.00971416  0.69689624  1  -1.259114  0  -0.236875  -0.012728  0  3.770493  0
N  N120  1  0.68054931  0.62186294  0.56026874  1  -1.175335  0  -0.347831  -0.276585  0  3.489341  0
N  N121  1  0.31945292  0.37814078  0.43973096  1  -1.17539  0  -0.347744  -0.276502  0  3.489295  0
N  N122  1  0.51196258  0.78252033  0.53695968  1  -1.26873  0  -0.225748  -0.001004  0  3.760215  0
N  N123  1  0.48803334  0.21747734  0.46303980  1  -1.268641  0  -0.225683  -0.000978  0  3.759901  0
O  O124  1  0.73830630  0.38788164  0.44392173  1  -1.16391  0  -0.330875  -0.554112  0  2.203766  0
O  O125  1  0.26169440  0.61211695  0.55607963  1  -1.163929  0  -0.330928  -0.554137  0  2.203726  0
O  O126  1  0.93674869  0.49964476  0.41828441  1  -1.189737  0  -0.33913  -0.585276  0  2.302497  0
O  O127  1  0.06325880  0.50034862  0.58171635  1  -1.189818  0  -0.339097  -0.585252  0  2.302578  0
O  O128  1  0.56291762  0.34802846  0.63665517  1  -1.193016  0  -0.33381  -0.57852  0  2.237387  0
O  O129  1  0.43709217  0.65197357  0.36334614  1  -1.192162  0  -0.333792  -0.578456  0  2.237455  0
O  O130  1  0.72251559  0.41206064  0.70884828  1  -1.174461  0  -0.329223  -0.560252  0  2.21335  0
O  O131  1  0.27748460  0.58794918  0.29115331  1  -1.174508  0  -0.329249  -0.560228  0  2.213265  0
