# generated using pymatgen
data_CdH16C23(NO2)4
_symmetry_space_group_name_H-M   'P 1'
_cell_length_a   7.09276859
_cell_length_b   12.95214594
_cell_length_c   13.80120000
_cell_angle_alpha   112.45105645
_cell_angle_beta   102.62655918
_cell_angle_gamma   95.14260581
_symmetry_Int_Tables_number   1
_chemical_formula_structural   CdH16C23(NO2)4
_chemical_formula_sum   'Cd2 H32 C46 N8 O16'
_cell_volume   1122.16998704
_cell_formula_units_Z   2
loop_
 _symmetry_equiv_pos_site_id
 _symmetry_equiv_pos_as_xyz
  1  'x, y, z'
loop_
 _atom_site_type_symbol
 _atom_site_label
 _atom_site_symmetry_multiplicity
 _atom_site_fract_x
 _atom_site_fract_y
 _atom_site_fract_z
 _atom_site_occupancy
 _atom_site_hle17_bader_spin_density
 _atom_site_hle17_ddec_charge
 _atom_site_hle17_ddec_spin_density
 _atom_site_hle17_ddec_sum_bond_order
 _atom_site_hle17_magmom
 _atom_site_hse06_10hf_bader_spin_density
 _atom_site_hse06_10hf_ddec_charge
 _atom_site_hse06_10hf_ddec_spin_density
 _atom_site_hse06_10hf_ddec_sum_bond_order
 _atom_site_hse06_10hf_magmom
 _atom_site_hse06_bader_spin_density
 _atom_site_hse06_ddec_charge
 _atom_site_hse06_ddec_spin_density
 _atom_site_hse06_ddec_sum_bond_order
 _atom_site_hse06_magmom
 _atom_site_pbe_bader_charge
 _atom_site_pbe_bader_spin_density
 _atom_site_pbe_cm5_charge
 _atom_site_pbe_ddec_charge
 _atom_site_pbe_ddec_spin_density
 _atom_site_pbe_ddec_sum_bond_order
 _atom_site_pbe_magmom
Cd  Cd0  1  0.26789275  0.57441760  0.50578378  1  0  1.166662  0  1.657715  0  0  0.986929  0  2.095038  0  0  1.045572  0  2.041615  0  1.304862  0  0.788553  0.94507  0  2.131534  0
Cd  Cd1  1  0.73210468  0.42558266  0.49421936  1  0  1.166668  0  1.65768  0  0  0.986942  0  2.09501  0  0  1.045586  0  2.041587  0  1.304912  0  0.78856  0.945084  0  2.131506  0
H  H2  1  0.42277914  0.49456892  0.67192324  1  0  0.328328  0  0.900377  0  0  0.316267  0  0.95853  0  0  0.322976  0  0.953039  0  0.471187  0  0.29434  0.31143  0  0.962494  0
H  H3  1  0.57722260  0.50543559  0.32807973  1  0  0.328337  0  0.900342  0  0  0.316256  0  0.958511  0  0  0.32296  0  0.95303  0  0.471193  0  0.294356  0.31142  0  0.962475  0
H  H4  1  0.19306550  0.51681130  0.66965746  1  0  0.320385  0  0.896822  0  0  0.30847  0  0.956078  0  0  0.314625  0  0.951359  0  0.469379  0  0.293942  0.304031  0  0.959482  0
H  H5  1  0.80693627  0.48318896  0.33034616  1  0  0.320378  0  0.896835  0  0  0.308484  0  0.95605  0  0  0.314639  0  0.95133  0  0.469343  0  0.29396  0.304045  0  0.959455  0
H  H6  1  0.31073679  0.84014458  0.54181221  1  0  0.079547  0  0.918939  0  0  0.090693  0  0.97836  0  0  0.093093  0  0.976008  0  0.125162  0  0.118604  0.08889  0  0.980133  0
H  H7  1  0.68926237  0.15985653  0.45818708  1  0  0.079514  0  0.919021  0  0  0.090689  0  0.978408  0  0  0.093091  0  0.976055  0  0.12518  0  0.1186  0.088886  0  0.980181  0
H  H8  1  0.45732828  0.03309968  0.69105486  1  0  0.09986  0  0.988871  0  0  0.107525  0  1.05223  0  0  0.110218  0  1.051991  0  0.107868  0  0.101338  0.105608  0  1.052543  0
H  H9  1  0.54267754  0.96689973  0.30893878  1  0  0.099804  0  0.988919  0  0  0.107503  0  1.052228  0  0  0.110196  0  1.05199  0  0.107757  0  0.101329  0.105587  0  1.052541  0
H  H10  1  0.60037284  0.04903452  0.88206161  1  0  0.098539  0  0.94623  0  0  0.111601  0  1.005581  0  0  0.113895  0  1.004377  0  0.104161  0  0.106904  0.109904  0  1.006549  0
H  H11  1  0.39962893  0.95096574  0.11793042  1  0  0.098579  0  0.946185  0  0  0.11164  0  1.005538  0  0  0.113931  0  1.004321  0  0.104582  0  0.106954  0.109946  0  1.006503  0
H  H12  1  0.66332636  0.95329042  0.00729424  1  0  0.098571  0  0.988106  0  0  0.106882  0  1.056852  0  0  0.10993  0  1.054967  0  0.106293  0  0.100059  0.104652  0  1.058266  0
H  H13  1  0.33666843  0.04671494  0.99270102  1  0  0.098568  0  0.988118  0  0  0.106855  0  1.056896  0  0  0.109936  0  1.054964  0  0.106377  0  0.100066  0.104619  0  1.058317  0
H  H14  1  0.63342076  0.77411632  0.03615227  1  0  0.088318  0  0.964924  0  0  0.100576  0  1.024967  0  0  0.102524  0  1.025197  0  0.085161  0  0.099547  0.099178  0  1.024895  0
H  H15  1  0.36657171  0.22589075  0.96384551  1  0  0.088362  0  0.964786  0  0  0.100603  0  1.024863  0  0  0.102555  0  1.025084  0  0.085139  0  0.099512  0.099202  0  1.024788  0
H  H16  1  0.47738365  0.58887301  0.87906047  1  0  0.095274  0  0.949312  0  0  0.110381  0  1.005315  0  0  0.112841  0  1.004164  0  0.050505  0  0.104149  0.10858  0  1.006241  0
H  H17  1  0.52261580  0.41112895  0.12094133  1  0  0.095185  0  0.949407  0  0  0.110401  0  1.005293  0  0  0.112863  0  1.004136  0  0.050454  0  0.104138  0.108577  0  1.006248  0
H  H18  1  0.28294364  0.74797195  0.05535888  1  0  0.109283  0  0.961957  0  0  0.115316  0  1.029992  0  0  0.118762  0  1.028216  0  0.09849  0  0.107498  0.112831  0  1.031361  0
H  H19  1  0.71705842  0.25202916  0.94464291  1  0  0.10927  0  0.961932  0  0  0.115324  0  1.029939  0  0  0.118748  0  1.028189  0  0.098467  0  0.1075  0.112837  0  1.031312  0
H  H20  1  0.93709725  0.66840844  0.94232178  1  0  0.106708  0  0.974044  0  0  0.107764  0  1.044926  0  0  0.112334  0  1.04142  0  0.128477  0  0.101941  0.104546  0  1.047404  0
H  H21  1  0.06290134  0.33159097  0.05768046  1  0  0.10676  0  0.973922  0  0  0.107768  0  1.04487  0  0  0.112339  0  1.041361  0  0.128422  0  0.101949  0.10455  0  1.047348  0
H  H22  1  0.70535781  0.56599988  0.00479038  1  0  0.087384  0  0.945125  0  0  0.098924  0  1.003999  0  0  0.101759  0  1.002542  0  0.084969  0  0.102869  0.096872  0  1.005133  0
H  H23  1  0.29464657  0.43399953  0.99521251  1  0  0.087371  0  0.945088  0  0  0.098929  0  1.003949  0  0  0.101763  0  1.002492  0  0.084931  0  0.102878  0.09688  0  1.005082  0
H  H24  1  0.82306951  0.54718622  0.17982639  1  0  0.101141  0  0.948369  0  0  0.108253  0  1.013049  0  0  0.111833  0  1.01092  0  0.079166  0  0.106249  0.105633  0  1.014746  0
H  H25  1  0.17693401  0.45281063  0.82017476  1  0  0.101165  0  0.94837  0  0  0.108261  0  1.013057  0  0  0.111845  0  1.010923  0  0.078858  0  0.106243  0.105633  0  1.014765  0
H  H26  1  0.93636034  0.96217375  0.13846798  1  0  0.115338  0  0.949781  0  0  0.124504  0  1.009996  0  0  0.127873  0  1.007807  0  0.115597  0  0.112949  0.122084  0  1.011636  0
H  H27  1  0.06363624  0.03782395  0.86153053  1  0  0.115334  0  0.949785  0  0  0.124499  0  1.010004  0  0  0.127856  0  1.00783  0  0.115487  0  0.112965  0.122079  0  1.011644  0
H  H28  1  0.00624338  0.88031365  0.27730325  1  0  0.10115  0  0.944173  0  0  0.11087  0  1.00309  0  0  0.113661  0  1.002586  0  0.064027  0  0.104238  0.108881  0  1.003566  0
H  H29  1  0.99375321  0.11968406  0.72269452  1  0  0.101152  0  0.944114  0  0  0.110869  0  1.00306  0  0  0.113658  0  1.002558  0  0.064078  0  0.104249  0.10888  0  1.003536  0
H  H30  1  0.17072668  0.01055768  0.47221653  1  0  0.093045  0  0.93889  0  0  0.105886  0  0.994913  0  0  0.108718  0  0.993352  0  0.069632  0  0.106866  0.103864  0  0.996086  0
H  H31  1  0.82927716  0.98943577  0.52778054  1  0  0.093088  0  0.938949  0  0  0.105895  0  0.995  0  0  0.108725  0  0.993443  0  0.069707  0  0.106885  0.103873  0  0.996173  0
H  H32  1  0.25262135  0.21838044  0.52844911  1  0  0.119761  0  0.934964  0  0  0.126595  0  0.99537  0  0  0.13083  0  0.992559  0  0.115418  0  0.110487  0.123499  0  0.997607  0
H  H33  1  0.74738507  0.78161641  0.47155091  1  0  0.119741  0  0.934959  0  0  0.126575  0  0.995372  0  0  0.130808  0  0.992563  0  0.115423  0  0.110495  0.123481  0  0.997608  0
C  C34  1  0.36840054  0.85068269  0.62588460  1  0  0.151663  0  3.710584  0  0  0.11739  0  3.969275  0  0  0.126335  0  3.986187  0  0.490432  0  0.059699  0.111595  0  3.957681  0
C  C35  1  0.63159950  0.14931672  0.37411418  1  0  0.151695  0  3.710586  0  0  0.117395  0  3.969309  0  0  0.12634  0  3.986221  0  0.490413  0  0.059699  0.1116  0  3.957717  0
C  C36  1  0.45229933  0.95922768  0.71044333  1  0  -0.127948  0  3.763392  0  0  -0.137938  0  4.014828  0  0  -0.145867  0  4.03837  0  0.060644  0  -0.091504  -0.13277  0  3.998921  0
C  C37  1  0.54769983  0.04077343  0.28955233  1  0  -0.127935  0  3.763429  0  0  -0.137956  0  4.01489  0  0  -0.145888  0  4.038432  0  0.060734  0  -0.091491  -0.132789  0  3.998984  0
C  C38  1  0.52892221  0.96743770  0.81434512  1  0  -0.048361  0  3.693697  0  0  -0.07291  0  3.940955  0  0  -0.070624  0  3.960151  0  -0.122521  0  -0.067143  -0.074081  0  3.927801  0
C  C39  1  0.47107608  0.03256512  0.18565178  1  0  -0.048354  0  3.693651  0  0  -0.072922  0  3.940916  0  0  -0.070622  0  3.960125  0  -0.123024  0  -0.067194  -0.074098  0  3.927762  0
C  C40  1  0.51670491  0.86815567  0.83488060  1  0  0.023106  0  3.797285  0  0  0.037933  0  4.033491  0  0  0.034711  0  4.059015  0  -0.020913  0  -0.010077  0.039907  0  4.016248  0
C  C41  1  0.48328471  0.13184714  0.16511895  1  0  0.023029  0  3.797346  0  0  0.037899  0  4.033432  0  0  0.034673  0  4.058963  0  -0.020833  0  -0.010092  0.039875  0  4.016191  0
C  C42  1  0.59189705  0.87150778  0.94013538  1  0  -0.112316  0  3.7418  0  0  -0.140847  0  4.001347  0  0  -0.143479  0  4.023702  0  -0.034515  0  -0.094539  -0.138714  0  3.986007  0
C  C43  1  0.40809774  0.12849759  0.05986422  1  0  -0.112198  0  3.741902  0  0  -0.140735  0  4.001414  0  0  -0.143394  0  4.023758  0  -0.034447  0  -0.094531  -0.138594  0  3.986064  0
C  C44  1  0.57581337  0.77242154  0.95544695  1  0  -0.065584  0  3.804827  0  0  -0.08088  0  4.06559  0  0  -0.083862  0  4.089555  0  -0.079404  0  -0.094425  -0.078822  0  4.049137  0
C  C45  1  0.42417737  0.22758468  0.04455323  1  0  -0.065717  0  3.804878  0  0  -0.08099  0  4.065643  0  0  -0.083973  0  4.089616  0  -0.079848  0  -0.094412  -0.078922  0  4.049175  0
C  C46  1  0.48650252  0.66716310  0.86646652  1  0  -0.141727  0  3.724607  0  0  -0.165988  0  3.978362  0  0  -0.169728  0  4.000178  0  -0.070132  0  -0.087806  -0.163264  0  3.963507  0
C  C47  1  0.51349460  0.33284056  0.13353780  1  0  -0.141687  0  3.724686  0  0  -0.166062  0  3.978454  0  0  -0.169792  0  4.000247  0  -0.069494  0  -0.087794  -0.163322  0  3.963604  0
C  C48  1  0.41194484  0.65918972  0.76199250  1  0  0.223885  0  3.71665  0  0  0.218327  0  3.96842  0  0  0.222855  0  3.99044  0  0.391179  0  0.092681  0.214931  0  3.953628  0
C  C49  1  0.58805344  0.34081309  0.23801093  1  0  0.22402  0  3.716498  0  0  0.218442  0  3.968274  0  0  0.222971  0  3.990293  0  0.390991  0  0.092649  0.215045  0  3.953478  0
C  C50  1  0.42564642  0.76150209  0.74458214  1  0  0.124358  0  3.722327  0  0  0.115447  0  3.962771  0  0  0.119662  0  3.985631  0  0.512395  0  0.111388  0.112612  0  3.947551  0
C  C51  1  0.57435362  0.23849732  0.25541809  1  0  0.124304  0  3.722321  0  0  0.115448  0  3.962654  0  0  0.119663  0  3.985517  0  0.51245  0  0.111424  0.112613  0  3.947434  0
C  C52  1  0.18387825  0.61338814  0.31675397  1  0  0.636605  0  3.957285  0  0  0.587629  0  4.253596  0  0  0.6213  0  4.247243  0  1.618493  0  0.191955  0.564871  0  4.256874  0
C  C53  1  0.81612930  0.38661212  0.68325031  1  0  0.6367  0  3.956967  0  0  0.587774  0  4.253212  0  0  0.621445  0  4.246857  0  1.618604  0  0.192052  0.565015  0  4.256494  0
C  C54  1  0.11661923  0.63481079  0.21608245  1  0  -0.077284  0  3.718523  0  0  -0.064493  0  3.956401  0  0  -0.069071  0  3.975911  0  -0.013015  0  -0.004237  -0.061651  0  3.943368  0
C  C55  1  0.88338341  0.36518777  0.78391776  1  0  -0.077307  0  3.718441  0  0  -0.06455  0  3.956313  0  0  -0.069126  0  3.975819  0  -0.01346  0  -0.004258  -0.061704  0  3.943282  0
C  C56  1  0.24235627  0.69086276  0.17844524  1  0  0.045845  0  3.714521  0  0  0.034137  0  3.969486  0  0  0.032853  0  3.991647  0  0.150085  0  0.077508  0.034921  0  3.954647  0
C  C57  1  0.75764321  0.30913494  0.82155359  1  0  0.045876  0  3.714415  0  0  0.034179  0  3.969371  0  0  0.032897  0  3.99152  0  0.15009  0  0.077511  0.034953  0  3.954546  0
C  C58  1  0.18074461  0.70253980  0.08074526  1  0  -0.108761  0  3.732062  0  0  -0.133192  0  3.986186  0  0  -0.134907  0  4.006307  0  0.043377  0  -0.081896  -0.131871  0  3.972466  0
C  C59  1  0.81925863  0.29745621  0.91925266  1  0  -0.108821  0  3.732119  0  0  -0.133257  0  3.986228  0  0  -0.134954  0  4.006361  0  0.043378  0  -0.081902  -0.131932  0  3.97251  0
C  C60  1  0.98593201  0.65788821  0.01796730  1  0  -0.052124  0  3.730726  0  0  -0.064797  0  3.984509  0  0  -0.066647  0  4.004495  0  -0.003721  0  -0.083543  -0.06348  0  3.970849  0
C  C61  1  0.01406546  0.34210779  0.98203359  1  0  -0.052034  0  3.730747  0  0  -0.064676  0  3.984532  0  0  -0.066528  0  4.004519  0  -0.00359  0  -0.083526  -0.06336  0  3.970871  0
C  C62  1  0.85743889  0.60198180  0.05368489  1  0  -0.041363  0  3.734029  0  0  -0.061872  0  3.991385  0  0  -0.063256  0  4.012645  0  -0.096457  0  -0.078371  -0.060845  0  3.97684  0
C  C63  1  0.14256436  0.39801421  0.94631665  1  0  -0.04148  0  3.734063  0  0  -0.062005  0  3.991406  0  0  -0.063389  0  4.01267  0  -0.096349  0  -0.078423  -0.06098  0  3.976862  0
C  C64  1  0.92222493  0.59094914  0.15153116  1  0  -0.054429  0  3.714774  0  0  -0.077205  0  3.966712  0  0  -0.077878  0  3.985656  0  0.027557  0  -0.075599  -0.07669  0  3.953965  0
C  C65  1  0.07777860  0.40904772  0.84847072  1  0  -0.054416  0  3.71468  0  0  -0.077152  0  3.966583  0  0  -0.077825  0  3.985523  0  0.027927  0  -0.07556  -0.076631  0  3.953842  0
C  C66  1  0.18261232  0.33708219  0.40765055  1  0  0.670416  0  3.9278  0  0  0.611776  0  4.230886  0  0  0.648499  0  4.220008  0  1.640656  0  0.203113  0.586665  0  4.237294  0
C  C67  1  0.81738367  0.66291807  0.59235025  1  0  0.670394  0  3.927858  0  0  0.611752  0  4.230939  0  0  0.648478  0  4.220063  0  1.640634  0  0.203147  0.586638  0  4.237346  0
C  C68  1  0.13843707  0.20946051  0.36687781  1  0  -0.041156  0  3.670196  0  0  -0.029009  0  3.912657  0  0  -0.03018  0  3.929556  0  0.028855  0  0.00799  -0.028481  0  3.901597  0
C  C69  1  0.86156442  0.79053890  0.63312330  1  0  -0.04123  0  3.670231  0  0  -0.029086  0  3.912706  0  0  -0.030256  0  3.929603  0  0.028838  0  0.007955  -0.028556  0  3.901646  0
C  C70  1  0.04967867  0.13441101  0.25763903  1  0  0.042325  0  3.683271  0  0  0.025941  0  3.942418  0  0  0.022846  0  3.964896  0  0.146195  0  0.077455  0.027797  0  3.927579  0
C  C71  1  0.95032225  0.86558669  0.74236141  1  0  0.042352  0  3.683321  0  0  0.025971  0  3.942475  0  0  0.022877  0  3.964949  0  0.14618  0  0.077484  0.027826  0  3.927636  0
C  C72  1  0.00163535  0.01671115  0.22454168  1  0  -0.095959  0  3.736779  0  0  -0.121376  0  3.994795  0  0  -0.121026  0  4.014346  0  -0.007348  0  -0.079336  -0.121412  0  3.981617  0
C  C73  1  0.99836240  0.98328571  0.77545665  1  0  -0.095852  0  3.736842  0  0  -0.121276  0  3.994882  0  0  -0.120916  0  4.014434  0  -0.007206  0  -0.079305  -0.121314  0  3.981708  0
C  C74  1  0.04318905  0.97189298  0.30203484  1  0  -0.064366  0  3.750127  0  0  -0.080642  0  4.008527  0  0  -0.08399  0  4.029786  0  0.044011  0  -0.086247  -0.078444  0  3.994118  0
C  C75  1  0.95681014  0.02810387  0.69796365  1  0  -0.064401  0  3.750174  0  0  -0.080687  0  4.008572  0  0  -0.084034  0  4.029826  0  0.04402  0  -0.08628  -0.078488  0  3.99416  0
C  C76  1  0.13406663  0.04502442  0.41120626  1  0  -0.03244  0  3.725081  0  0  -0.053797  0  3.982804  0  0  -0.053338  0  4.002452  0  -0.093406  0  -0.073065  -0.053935  0  3.9694  0
C  C77  1  0.86593891  0.95497414  0.58879356  1  0  -0.032559  0  3.725152  0  0  -0.053879  0  3.982855  0  0  -0.053422  0  4.002505  0  -0.093455  0  -0.073097  -0.054017  0  3.969454  0
C  C78  1  0.18114151  0.16231400  0.44329348  1  0  -0.072148  0  3.686134  0  0  -0.095077  0  3.939847  0  0  -0.098242  0  3.958821  0  0.047657  0  -0.075364  -0.093015  0  3.927214  0
C  C79  1  0.81885709  0.83768541  0.55670731  1  0  -0.072033  0  3.686087  0  0  -0.094964  0  3.939795  0  0  -0.098125  0  3.958766  0  0.047628  0  -0.075338  -0.092905  0  3.927165  0
N  N80  1  0.35685250  0.75645861  0.64228681  1  0  -0.348728  0  3.293826  0  0  -0.280426  0  3.560596  0  0  -0.299475  0  3.578816  0  -1.230664  0  -0.327512  -0.267596  0  3.548184  0
N  N81  1  0.64314811  0.24354250  0.35771336  1  0  -0.348721  0  3.293812  0  0  -0.280447  0  3.560587  0  0  -0.299498  0  3.578811  0  -1.230683  0  -0.32753  -0.267618  0  3.548176  0
N  N82  1  0.33059321  0.55138869  0.67138640  1  0  -0.676304  0  3.099408  0  0  -0.625385  0  3.331317  0  0  -0.644568  0  3.328934  0  -1.177046  0  -0.613186  -0.611733  0  3.332849  0
N  N83  1  0.66940278  0.44861156  0.32861295  1  0  -0.676306  0  3.099285  0  0  -0.625386  0  3.331255  0  0  -0.644564  0  3.328871  0  -1.177054  0  -0.613183  -0.611732  0  3.332787  0
N  N84  1  0.00963835  0.17948991  0.17437276  1  0  0.504683  0  3.894439  0  0  0.527566  0  4.202597  0  0  0.549137  0  4.210114  0  0.362868  0  0.056706  0.51303  0  4.197661  0
N  N85  1  0.99036285  0.82050865  0.82562802  1  0  0.504713  0  3.894481  0  0  0.527585  0  4.20266  0  0  0.549156  0  4.210174  0  0.362887  0  0.056713  0.51305  0  4.197723  0
N  N86  1  0.44333223  0.74795322  0.24588808  1  0  0.512653  0  3.898577  0  0  0.535985  0  4.207314  0  0  0.558315  0  4.211921  0  0.351734  0  0.057768  0.520845  0  4.204325  0
N  N87  1  0.55666809  0.25204704  0.75411466  1  0  0.512682  0  3.89835  0  0  0.536026  0  4.207071  0  0  0.558359  0  4.211672  0  0.351737  0  0.057764  0.520888  0  4.204083  0
O  O88  1  0.06069586  0.61675046  0.37256457  1  0  -0.634612  0  1.947336  0  0  -0.573397  0  2.179188  0  0  -0.601908  0  2.170119  0  -1.155001  0  -0.328921  -0.553212  0  2.184535  0
O  O89  1  0.93931370  0.38325150  0.62743909  1  0  -0.634671  0  1.947177  0  0  -0.5735  0  2.179041  0  0  -0.602013  0  2.169973  0  -1.154966  0  -0.328979  -0.553315  0  2.184389  0
O  O90  1  0.35362735  0.59096361  0.33996265  1  0  -0.625358  0  1.938453  0  0  -0.574995  0  2.167722  0  0  -0.601475  0  2.159266  0  -1.176038  0  -0.325434  -0.556321  0  2.172827  0
O  O91  1  0.64637907  0.40903325  0.66003666  1  0  -0.625392  0  1.938308  0  0  -0.575032  0  2.167566  0  0  -0.601511  0  2.159106  0  -1.175888  0  -0.325463  -0.556358  0  2.172673  0
O  O92  1  0.04067097  0.38986378  0.41492335  1  0  -0.642686  0  2.039861  0  0  -0.582098  0  2.297355  0  0  -0.613734  0  2.288897  0  -1.169589  0  -0.317226  -0.559281  0  2.302113  0
O  O93  1  0.95931839  0.61013393  0.58507144  1  0  -0.642671  0  2.040016  0  0  -0.582064  0  2.297473  0  0  -0.613705  0  2.289026  0  -1.16957  0  -0.317257  -0.559248  0  2.302233  0
O  O94  1  0.09082330  0.27863318  0.19927206  1  0  -0.341242  0  1.788161  0  0  -0.312634  0  1.992562  0  0  -0.324758  0  1.990931  0  -0.460606  0  -0.105264  -0.304752  0  1.993942  0
O  O95  1  0.90917762  0.72136452  0.80072766  1  0  -0.341292  0  1.78817  0  0  -0.31269  0  1.992572  0  0  -0.324813  0  1.99094  0  -0.460666  0  -0.105323  -0.304806  0  1.993951  0
O  O96  1  0.89809396  0.11659413  0.08260826  1  0  -0.378524  0  1.755817  0  0  -0.358822  0  1.969243  0  0  -0.371273  0  1.966613  0  -0.493565  0  -0.134935  -0.350603  0  1.97121  0
O  O97  1  0.10190636  0.88340613  0.91739085  1  0  -0.378537  0  1.755871  0  0  -0.358824  0  1.969316  0  0  -0.371278  0  1.966685  0  -0.493552  0  -0.134916  -0.350605  0  1.971282  0
O  O98  1  0.36081726  0.38725138  0.43990149  1  0  -0.641784  0  2.067762  0  0  -0.575913  0  2.329504  0  0  -0.608069  0  2.320073  0  -1.169984  0  -0.315812  -0.552678  0  2.334816  0
O  O99  1  0.63917788  0.61274632  0.56010047  1  0  -0.641763  0  2.067703  0  0  -0.575892  0  2.32945  0  0  -0.608059  0  2.320031  0  -1.170142  0  -0.315822  -0.552659  0  2.334773  0
O  O100  1  0.57848965  0.73381617  0.20080053  1  0  -0.366361  0  1.72582  0  0  -0.350238  0  1.933486  0  0  -0.362535  0  1.929067  0  -0.465631  0  -0.129373  -0.341862  0  1.936597  0
O  O101  1  0.42150779  0.26618409  0.79920044  1  0  -0.366289  0  1.725738  0  0  -0.350163  0  1.933404  0  0  -0.362457  0  1.928979  0  -0.465689  0  -0.129309  -0.341788  0  1.936514  0
O  O102  1  0.46523680  0.81182195  0.34291941  1  0  -0.353271  0  1.751047  0  0  -0.335646  0  1.958738  0  0  -0.348079  0  1.953789  0  -0.45694  0  -0.115986  -0.327223  0  1.96226  0
O  O103  1  0.53476670  0.18817916  0.65708182  1  0  -0.353367  0  1.750909  0  0  -0.335761  0  1.958622  0  0  -0.348205  0  1.953684  0  -0.456899  0  -0.116045  -0.327336  0  1.962139  0
