# generated using pymatgen
data_Cd2H9C6N12Cl
_symmetry_space_group_name_H-M   'P 1'
_cell_length_a   8.08541433
_cell_length_b   10.04334503
_cell_length_c   16.56200000
_cell_angle_alpha   90.00000000
_cell_angle_beta   90.00000000
_cell_angle_gamma   90.00000000
_symmetry_Int_Tables_number   1
_chemical_formula_structural   Cd2H9C6N12Cl
_chemical_formula_sum   'Cd8 H36 C24 N48 Cl4'
_cell_volume   1344.91068217
_cell_formula_units_Z   4
loop_
 _symmetry_equiv_pos_site_id
 _symmetry_equiv_pos_as_xyz
  1  'x, y, z'
loop_
 _atom_site_type_symbol
 _atom_site_label
 _atom_site_symmetry_multiplicity
 _atom_site_fract_x
 _atom_site_fract_y
 _atom_site_fract_z
 _atom_site_occupancy
 _atom_site_pbe_bader_charge
 _atom_site_pbe_bader_spin_density
 _atom_site_pbe_cm5_charge
 _atom_site_pbe_ddec_charge
 _atom_site_pbe_ddec_spin_density
 _atom_site_pbe_ddec_sum_bond_order
 _atom_site_pbe_magmom
Cd  Cd0  1  0.10635942  0.74999913  0.77679507  1  1.209188  0  0.748754  0.726771  0  2.330068  0
Cd  Cd1  1  0.60635730  0.24999938  0.72320432  1  1.209198  0  0.748761  0.726775  0  2.330051  0
Cd  Cd2  1  0.39364093  0.74999913  0.27679507  1  1.209179  0  0.748766  0.726778  0  2.330127  0
Cd  Cd3  1  0.89364128  0.25000037  0.22320493  1  1.209182  0  0.748743  0.72673  0  2.33009  0
Cd  Cd4  1  0.05244877  0.75000012  0.54073964  1  1.182707  0  0.723205  0.736168  0  2.346386  0
Cd  Cd5  1  0.55245035  0.25000037  0.95926096  1  1.182699  0  0.723218  0.736189  0  2.346403  0
Cd  Cd6  1  0.44755159  0.75000012  0.04073904  1  1.182677  0  0.723239  0.736218  0  2.346353  0
Cd  Cd7  1  0.94754946  0.25000037  0.45926036  1  1.182711  0  0.723227  0.736209  0  2.346362  0
H  H8  1  0.85376330  0.02660269  0.79885280  1  0.181314  0  0.115259  0.093975  0  1.036186  0
H  H9  1  0.35376542  0.97339780  0.70114720  1  0.181308  0  0.115254  0.093982  0  1.036156  0
H  H10  1  0.64623404  0.47339706  0.29885280  1  0.181303  0  0.11525  0.093969  0  1.036184  0
H  H11  1  0.14623369  0.52660244  0.20114781  1  0.181323  0  0.115244  0.093968  0  1.036142  0
H  H12  1  0.14623617  0.97339780  0.20114781  1  0.181323  0  0.115247  0.093968  0  1.036181  0
H  H13  1  0.64623404  0.02660169  0.29885340  1  0.181293  0  0.115265  0.093992  0  1.036166  0
H  H14  1  0.35376418  0.52660244  0.70114781  1  0.181323  0  0.115247  0.093968  0  1.036173  0
H  H15  1  0.85376453  0.47339805  0.79885340  1  0.181296  0  0.115246  0.093966  0  1.036172  0
H  H16  1  0.06143037  0.75000012  0.98599686  1  0.091086  0  0.106346  0.062583  0  1.102817  0
H  H17  1  0.56142948  0.24999938  0.51400133  1  0.091082  0  0.106363  0.062576  0  1.102772  0
H  H18  1  0.43856998  0.75000012  0.48599686  1  0.09109  0  0.106349  0.062579  0  1.102835  0
H  H19  1  0.93857280  0.25000236  0.01400133  1  0.091092  0  0.106371  0.062586  0  1.102791  0
H  H20  1  0.69767606  0.75000012  0.75465040  1  0.489355  0  0.318237  0.331844  0  0.927548  0
H  H21  1  0.19767447  0.24999938  0.74534658  1  0.489412  0  0.318251  0.331866  0  0.927624  0
H  H22  1  0.80232376  0.74999913  0.25464980  1  0.489372  0  0.318254  0.331827  0  0.927533  0
H  H23  1  0.30232217  0.24999838  0.24535020  1  0.489371  0  0.318242  0.331825  0  0.927527  0
H  H24  1  0.81434169  0.98575325  0.48929115  1  0.458674  0  0.305833  0.306007  0  0.946835  0
H  H25  1  0.31434134  0.01424725  0.01070885  1  0.458679  0  0.305837  0.306013  0  0.94684  0
H  H26  1  0.68565688  0.51424799  0.98929175  1  0.458685  0  0.305835  0.306004  0  0.946872  0
H  H27  1  0.18565653  0.48575250  0.51070885  1  0.458667  0  0.305817  0.305982  0  0.946864  0
H  H28  1  0.18565777  0.01424725  0.51070885  1  0.458669  0  0.30583  0.306002  0  0.946847  0
H  H29  1  0.68565688  0.98575325  0.98929175  1  0.45869  0  0.305822  0.30599  0  0.946907  0
H  H30  1  0.31434258  0.48575350  0.01070885  1  0.458676  0  0.30583  0.306007  0  0.946832  0
H  H31  1  0.81434169  0.51424699  0.48929175  1  0.458691  0  0.305829  0.306003  0  0.94689  0
H  H32  1  0.67130388  0.08565871  0.52673469  1  0.427419  0  0.300527  0.297596  0  0.958314  0
H  H33  1  0.17130600  0.91434079  0.97326531  1  0.427428  0  0.300529  0.297538  0  0.958429  0
H  H34  1  0.82869346  0.41434104  0.02673590  1  0.427436  0  0.300537  0.297564  0  0.958415  0
H  H35  1  0.32869435  0.58565946  0.47326531  1  0.427431  0  0.300528  0.297554  0  0.958403  0
H  H36  1  0.32869435  0.91434079  0.47326531  1  0.427432  0  0.300525  0.297543  0  0.958411  0
H  H37  1  0.82869346  0.08565971  0.02673590  1  0.427437  0  0.300524  0.297535  0  0.958454  0
H  H38  1  0.17130600  0.58565946  0.97326531  1  0.427433  0  0.300547  0.297584  0  0.958363  0
H  H39  1  0.67130512  0.41434104  0.52673590  1  0.427415  0  0.300522  0.297554  0  0.958411  0
H  H40  1  0.51797098  0.75000012  0.81235117  1  0.487764  0  0.305701  0.315701  0  0.970552  0
H  H41  1  0.01797063  0.24999938  0.68764582  1  0.487721  0  0.305758  0.315849  0  0.970331  0
H  H42  1  0.98202883  0.74999913  0.31235177  1  0.48774  0  0.305786  0.315846  0  0.970326  0
H  H43  1  0.48202725  0.24999838  0.18764883  1  0.487772  0  0.305735  0.315705  0  0.970552  0
C  C44  1  0.83804734  0.01951939  0.60774001  1  1.439929  0  0.303541  0.49389  0  4.074662  0
C  C45  1  0.33804699  0.98048011  0.89226060  1  1.439918  0  0.303535  0.493898  0  4.074627  0
C  C46  1  0.66195123  0.48048036  0.10773940  1  1.439127  0  0.303598  0.493996  0  4.074556  0
C  C47  1  0.16195088  0.51951914  0.39225999  1  1.439138  0  0.303541  0.49387  0  4.074706  0
C  C48  1  0.16195212  0.98048011  0.39225999  1  1.43951  0  0.303539  0.4939  0  4.074594  0
C  C49  1  0.66195123  0.01951939  0.10774061  1  1.438833  0  0.30353  0.493852  0  4.074719  0
C  C50  1  0.33804823  0.51951914  0.89226060  1  1.439922  0  0.303536  0.493864  0  4.074722  0
C  C51  1  0.83804734  0.48048036  0.60774001  1  1.439934  0  0.303571  0.494001  0  4.074532  0
C  C52  1  0.86550667  0.00657152  0.73476392  1  0.965792  0  0.123251  0.138169  0  4.041756  0
C  C53  1  0.36550755  0.99342898  0.76523608  1  0.965809  0  0.123237  0.138167  0  4.04174  0
C  C54  1  0.63449191  0.49342823  0.23476512  1  0.965763  0  0.123224  0.138149  0  4.041737  0
C  C55  1  0.13449156  0.50657127  0.26523669  1  0.965805  0  0.123222  0.138178  0  4.041647  0
C  C56  1  0.13449280  0.99342798  0.26523608  1  0.965776  0  0.123229  0.138152  0  4.041733  0
C  C57  1  0.63449191  0.00657152  0.23476452  1  0.965782  0  0.123222  0.138119  0  4.041766  0
C  C58  1  0.36550632  0.50657127  0.76523608  1  0.965782  0  0.123216  0.138146  0  4.041724  0
C  C59  1  0.86550790  0.49342823  0.73476512  1  0.96588  0  0.123246  0.13817  0  4.041787  0
C  C60  1  0.93816714  0.74999913  0.96005374  1  0.95686  0  0.089554  0.090822  0  4.142094  0
C  C61  1  0.43816555  0.24999938  0.53994445  1  0.956868  0  0.089595  0.090842  0  4.142184  0
C  C62  1  0.56183268  0.74999913  0.46005313  1  0.956855  0  0.089502  0.090735  0  4.142132  0
C  C63  1  0.06183233  0.25000336  0.03994626  1  0.95683  0  0.08956  0.090796  0  4.142173  0
C  C64  1  0.73534018  0.74999913  0.87749909  1  1.552336  0  0.307794  0.532152  0  4.126804  0
C  C65  1  0.23534106  0.24999938  0.62249849  1  1.552505  0  0.307827  0.532199  0  4.126653  0
C  C66  1  0.76467077  0.75000012  0.37749185  1  1.553101  0  0.307595  0.531839  0  4.126997  0
C  C67  1  0.26467042  0.25000037  0.12250815  1  1.553113  0  0.307633  0.531951  0  4.126861  0
N  N68  1  0.96088582  0.91218613  0.70387755  1  -0.782568  0  -0.269104  -0.212874  0  3.486869  0
N  N69  1  0.46088671  0.08781437  0.79612305  1  -0.782573  0  -0.269086  -0.212872  0  3.48684  0
N  N70  1  0.53911152  0.58781412  0.20387755  1  -0.782597  0  -0.269109  -0.212889  0  3.486942  0
N  N71  1  0.03911117  0.41218638  0.29612305  1  -0.782607  0  -0.269079  -0.212879  0  3.486815  0
N  N72  1  0.03911241  0.08781337  0.29612305  1  -0.782572  0  -0.269075  -0.21285  0  3.486815  0
N  N73  1  0.53911152  0.91218613  0.20387755  1  -0.782597  0  -0.269108  -0.212884  0  3.486941  0
N  N74  1  0.46088671  0.41218538  0.79612305  1  -0.782565  0  -0.269048  -0.212832  0  3.486816  0
N  N75  1  0.96088706  0.58781412  0.70387755  1  -0.782573  0  -0.269097  -0.212869  0  3.486939  0
N  N76  1  0.94383289  0.92006995  0.62126494  1  -0.79404  0  -0.274655  -0.311038  0  3.383337  0
N  N77  1  0.44383378  0.07993054  0.87873566  1  -0.794047  0  -0.27464  -0.311047  0  3.383245  0
N  N78  1  0.55616445  0.57992929  0.12126555  1  -0.793237  0  -0.274663  -0.311078  0  3.383342  0
N  N79  1  0.05616410  0.42007020  0.37873506  1  -0.793273  0  -0.274662  -0.311034  0  3.383341  0
N  N80  1  0.05616533  0.07992955  0.37873506  1  -0.794047  0  -0.274651  -0.311032  0  3.383245  0
N  N81  1  0.55616445  0.92006896  0.12126494  1  -0.792953  0  -0.274628  -0.311007  0  3.38337  0
N  N82  1  0.44383378  0.42007020  0.87873506  1  -0.794055  0  -0.274668  -0.311038  0  3.38338  0
N  N83  1  0.94383413  0.57992929  0.62126555  1  -0.794023  0  -0.274643  -0.311074  0  3.383347  0
N  N84  1  0.78627882  0.07871381  0.67690134  1  -1.249559  0  -0.370308  -0.434884  0  3.374231  0
N  N85  1  0.28627970  0.92128668  0.82309926  1  -1.249533  0  -0.370303  -0.434897  0  3.374232  0
N  N86  1  0.71371976  0.42128593  0.17690134  1  -1.249509  0  -0.370324  -0.434938  0  3.374196  0
N  N87  1  0.21371941  0.57871356  0.32309926  1  -1.249535  0  -0.370297  -0.43489  0  3.374305  0
N  N88  1  0.21372065  0.92128668  0.32309926  1  -1.24955  0  -0.370311  -0.434914  0  3.374296  0
N  N89  1  0.71371853  0.07871381  0.17690194  1  -1.249531  0  -0.370303  -0.434859  0  3.374247  0
N  N90  1  0.28627970  0.57871356  0.82309926  1  -1.249534  0  -0.370318  -0.434887  0  3.374256  0
N  N91  1  0.78627882  0.42128593  0.67690255  1  -1.249651  0  -0.370324  -0.434928  0  3.374222  0
N  N92  1  0.79348315  0.06069293  0.53004830  1  -1.175467  0  -0.591799  -0.631215  0  3.332409  0
N  N93  1  0.29348280  0.93930657  0.96995109  1  -1.17548  0  -0.591821  -0.631184  0  3.332537  0
N  N94  1  0.70651667  0.43930583  0.03004951  1  -1.175471  0  -0.591813  -0.63119  0  3.332459  0
N  N95  1  0.20651508  0.56069367  0.46995230  1  -1.175473  0  -0.591777  -0.631159  0  3.332508  0
N  N96  1  0.20651632  0.93930657  0.46995230  1  -1.17506  0  -0.591798  -0.631169  0  3.332454  0
N  N97  1  0.70651543  0.06069392  0.03004951  1  -1.175461  0  -0.59179  -0.631132  0  3.332506  0
N  N98  1  0.29348403  0.56069367  0.96995170  1  -1.175497  0  -0.591812  -0.631205  0  3.332484  0
N  N99  1  0.79348191  0.43930583  0.53004951  1  -1.175471  0  -0.591803  -0.631207  0  3.33245  0
N  N100  1  0.80652020  0.74999913  0.00681198  1  -0.798618  0  -0.286366  -0.26507  0  3.315552  0
N  N101  1  0.30652109  0.24999938  0.49318561  1  -0.798754  0  -0.286385  -0.265048  0  3.315476  0
N  N102  1  0.69347961  0.74999913  0.50681258  1  -0.798603  0  -0.286361  -0.265042  0  3.315532  0
N  N103  1  0.19348421  0.25000137  0.99318681  1  -0.798585  0  -0.286349  -0.264999  0  3.315406  0
N  N104  1  0.67223642  0.74999913  0.95366622  1  -0.804849  0  -0.303496  -0.385815  0  3.357293  0
N  N105  1  0.17223731  0.24999938  0.54633196  1  -0.80486  0  -0.303423  -0.385786  0  3.357253  0
N  N106  1  0.82776463  0.74999913  0.45366804  1  -0.805376  0  -0.303438  -0.385797  0  3.357042  0
N  N107  1  0.32776675  0.25000037  0.04633257  1  -0.805406  0  -0.303476  -0.385863  0  3.357028  0
N  N108  1  0.90406622  0.74999913  0.87891499  1  -1.30752  0  -0.385868  -0.455502  0  3.370372  0
N  N109  1  0.40406464  0.24999938  0.62108320  1  -1.307661  0  -0.385985  -0.455591  0  3.370449  0
N  N110  1  0.59593483  0.75000012  0.37891559  1  -1.307603  0  -0.385769  -0.455297  0  3.370233  0
N  N111  1  0.09593448  0.25000236  0.12108320  1  -1.307586  0  -0.385832  -0.455414  0  3.370454  0
N  N112  1  0.64297880  0.74999913  0.80949704  1  -1.319119  0  -0.588098  -0.657684  0  3.336539  0
N  N113  1  0.14297721  0.24999938  0.69050115  1  -1.319056  0  -0.588204  -0.657892  0  3.336303  0
N  N114  1  0.85701978  0.75000112  0.30949946  1  -1.319248  0  -0.588078  -0.6576  0  3.33671  0
N  N115  1  0.35701943  0.25000037  0.19050054  1  -1.31928  0  -0.588038  -0.657484  0  3.336869  0
Cl  Cl116  1  0.31648718  0.75000112  0.63130479  1  -0.682161  0  -0.32087  -0.511219  0  1.140331  0
Cl  Cl117  1  0.81648753  0.24999838  0.86869581  1  -0.682185  0  -0.320877  -0.511231  0  1.140319  0
Cl  Cl118  1  0.18351317  0.75000112  0.13130359  1  -0.682173  0  -0.320883  -0.511242  0  1.140329  0
Cl  Cl119  1  0.68351352  0.24999838  0.36869521  1  -0.682164  0  -0.320873  -0.511217  0  1.140336  0
