# generated using pymatgen
data_ZnH15C16N3O2
_symmetry_space_group_name_H-M   'P 1'
_cell_length_a   8.85722133
_cell_length_b   13.34862132
_cell_length_c   16.38637487
_cell_angle_alpha   79.89031356
_cell_angle_beta   76.23927852
_cell_angle_gamma   71.30374509
_symmetry_Int_Tables_number   1
_chemical_formula_structural   ZnH15C16N3O2
_chemical_formula_sum   'Zn4 H60 C64 N12 O8'
_cell_volume   1772.07278390
_cell_formula_units_Z   4
loop_
 _symmetry_equiv_pos_site_id
 _symmetry_equiv_pos_as_xyz
  1  'x, y, z'
loop_
 _atom_site_type_symbol
 _atom_site_label
 _atom_site_symmetry_multiplicity
 _atom_site_fract_x
 _atom_site_fract_y
 _atom_site_fract_z
 _atom_site_occupancy
 _atom_site_pbe_bader_charge
 _atom_site_pbe_bader_spin_density
 _atom_site_pbe_cm5_charge
 _atom_site_pbe_ddec_charge
 _atom_site_pbe_ddec_spin_density
 _atom_site_pbe_ddec_sum_bond_order
 _atom_site_pbe_magmom
Zn  Zn0  1  0.68091954  0.48470950  0.00741059  1  1.271985  0  0.688798  0.799962  0  2.36363  0
Zn  Zn1  1  0.31908998  0.51529337  0.99258647  1  1.27188  0  0.688836  0.79995  0  2.363639  0
Zn  Zn2  1  0.18436919  0.99818470  0.48686212  1  1.269874  0  0.688933  0.804845  0  2.348744  0
Zn  Zn3  1  0.81562031  0.00182137  0.51313647  1  1.26984  0  0.688964  0.804879  0  2.348629  0
H  H4  1  0.80206072  0.65354719  0.19379732  1  0.060199  0  0.096889  0.097675  0  0.999878  0
H  H5  1  0.19794324  0.34645250  0.80620398  1  0.060286  0  0.096904  0.097685  0  0.999861  0
H  H6  1  0.66006477  0.78018322  0.18136801  1  0.010869  0  0.092313  0.0874  0  1.015146  0
H  H7  1  0.33994036  0.21981649  0.81863435  1  0.010854  0  0.092321  0.087407  0  1.015152  0
H  H8  1  0.07272007  0.53225542  0.12154016  1  0.502281  0  0.29012  0.275346  0  1.035102  0
H  H9  1  0.92728970  0.46774426  0.87845611  1  0.502191  0  0.290094  0.275296  0  1.035135  0
H  H10  1  0.24810917  0.51238297  0.15771706  1  0.432497  0  0.310968  0.303083  0  0.915172  0
H  H11  1  0.75189862  0.48761592  0.84227898  1  0.432541  0  0.310969  0.303071  0  0.915093  0
H  H12  1  0.44029161  0.33369869  0.16948347  1  0.059311  0  0.106697  0.119495  0  0.983885  0
H  H13  1  0.55971537  0.66629940  0.83051401  1  0.059379  0  0.106745  0.119592  0  0.983857  0
H  H14  1  0.21086042  0.74477667  0.97840509  1  0.151624  0  0.101927  0.128809  0  1.064646  0
H  H15  1  0.78914167  0.25522463  0.02159683  1  0.151817  0  0.10199  0.128908  0  1.064763  0
H  H16  1  0.00021370  0.20524064  0.12707086  1  0.09876  0  0.102509  0.103687  0  1.029605  0
H  H17  1  0.99979525  0.79475824  0.87292381  1  0.098727  0  0.102477  0.10363  0  1.029657  0
H  H18  1  0.33097973  0.00647945  0.04180179  1  0.068826  0  0.091912  0.088274  0  1.055068  0
H  H19  1  0.66902494  0.99351866  0.95820148  1  0.068732  0  0.0919  0.088264  0  1.05505  0
H  H20  1  0.14159281  0.93687496  0.98966726  1  0.044527  0  0.095342  0.085576  0  1.014212  0
H  H21  1  0.85841384  0.06312394  0.01033564  1  0.044694  0  0.095321  0.085565  0  1.014153  0
H  H22  1  0.24811456  0.07453555  0.17236885  1  0.024553  0  0.098686  0.098528  0  1.018283  0
H  H23  1  0.75189067  0.92546653  0.82763072  1  0.024555  0  0.098704  0.098548  0  1.018239  0
H  H24  1  0.46892579  0.14135950  0.19200121  1  0.067596  0  0.096527  0.092763  0  1.051593  0
H  H25  1  0.53107317  0.85864099  0.80799940  1  0.067597  0  0.096515  0.092727  0  1.051601  0
H  H26  1  0.98067721  0.70107623  0.05428382  1  0.034859  0  0.086939  0.122884  0  1.051206  0
H  H27  1  0.01932340  0.29891790  0.94571689  1  0.034573  0  0.086922  0.122804  0  1.05132  0
H  H28  1  0.95522253  0.78398505  0.13354180  1  0.032757  0  0.08384  0.1136  0  1.043643  0
H  H29  1  0.04478632  0.21601145  0.86645506  1  0.032783  0  0.083899  0.113692  0  1.043658  0
H  H30  1  0.84600430  0.83030135  0.04941916  1  0.012876  0  0.083514  0.111764  0  1.016516  0
H  H31  1  0.15400409  0.16969356  0.95057860  1  0.012878  0  0.083487  0.11175  0  1.016559  0
H  H32  1  0.57315228  0.88184719  0.08634832  1  0.046519  0  0.098233  0.091603  0  1.038559  0
H  H33  1  0.42685123  0.11815093  0.91365693  1  0.046549  0  0.098261  0.091632  0  1.038539  0
H  H34  1  0.77173250  0.18743908  0.41923211  1  0.424176  0  0.317442  0.31273  0  0.895862  0
H  H35  1  0.22825817  0.81256698  0.58076449  1  0.424218  0  0.317435  0.312796  0  0.895771  0
H  H36  1  0.58975984  0.15768840  0.45154126  1  0.50658  0  0.291434  0.27659  0  1.03411  0
H  H37  1  0.41022976  0.84232004  0.54845452  1  0.506789  0  0.291498  0.276727  0  1.033967  0
H  H38  1  0.54938417  0.96333723  0.25591630  1  0.078995  0  0.106431  0.10938  0  1.003013  0
H  H39  1  0.45061099  0.03665612  0.74409072  1  0.079076  0  0.106441  0.109322  0  1.00292  0
H  H40  1  0.31507478  0.30595101  0.48269364  1  0.060542  0  0.096235  0.097671  0  0.993751  0
H  H41  1  0.68492184  0.69404948  0.51730666  1  0.060521  0  0.096238  0.097663  0  0.993726  0
H  H42  1  0.16118846  0.36202571  0.56671927  1  0.033198  0  0.092481  0.090244  0  0.991511  0
H  H43  1  0.83880872  0.63797875  0.43327794  1  0.03318  0  0.092525  0.090306  0  0.991487  0
H  H44  1  0.80513930  0.94792939  0.14824142  1  0.049975  0  0.096837  0.093073  0  1.048369  0
H  H45  1  0.19485428  0.05205442  0.85176658  1  0.049827  0  0.096826  0.093035  0  1.048397  0
H  H46  1  0.96917372  0.11060514  0.29888908  1  0.08234  0  0.104985  0.114969  0  0.999732  0
H  H47  1  0.03081542  0.88940171  0.70110700  1  0.082481  0  0.105013  0.11505  0  0.999792  0
H  H48  1  0.06948601  0.30658910  0.68684479  1  0.037856  0  0.097785  0.094781  0  1.035296  0
H  H49  1  0.93051400  0.69340900  0.31315481  1  0.037844  0  0.097772  0.094786  0  1.035301  0
H  H50  1  0.63555425  0.21358527  0.78503098  1  0.079598  0  0.090743  0.084757  0  1.052655  0
H  H51  1  0.36444859  0.78640649  0.21497649  1  0.079637  0  0.090739  0.084737  0  1.052703  0
H  H52  1  0.70534849  0.10151925  0.66816144  1  0.115085  0  0.099572  0.125253  0  1.068903  0
H  H53  1  0.29464429  0.89848205  0.33183924  1  0.114982  0  0.099526  0.125165  0  1.068897  0
H  H54  1  0.01564642  0.02175651  0.17032778  1  0.062136  0  0.101215  0.094492  0  1.014383  0
H  H55  1  0.98434185  0.97823921  0.82967247  1  0.062072  0  0.101241  0.094492  0  1.014427  0
H  H56  1  0.33303001  0.25054712  0.67168813  1  0.004678  0  0.082754  0.107703  0  1.040474  0
H  H57  1  0.66696555  0.74945576  0.32831136  1  0.004683  0  0.082748  0.107711  0  1.040504  0
H  H58  1  0.44357825  0.32663002  0.59594220  1  0.025207  0  0.085316  0.115887  0  0.995064  0
H  H59  1  0.55642186  0.67337047  0.40405704  1  0.025198  0  0.085316  0.115883  0  0.995144  0
H  H60  1  0.48212094  0.18840654  0.58961244  1  0.052821  0  0.086919  0.122298  0  1.04768  0
H  H61  1  0.51787255  0.81159316  0.41038838  1  0.052767  0  0.086951  0.122356  0  1.0477  0
H  H62  1  0.82191992  0.31493723  0.79540746  1  0.023625  0  0.08906  0.087188  0  1.035496  0
H  H63  1  0.17808428  0.68505929  0.20459488  1  0.02363  0  0.089073  0.087208  0  1.035407  0
C  C64  1  0.92659502  0.41277994  0.09846021  1  1.273961  0  0.20787  0.416293  0  4.147702  0
C  C65  1  0.07341485  0.58722213  0.90153632  1  1.273958  0  0.207822  0.416306  0  4.147759  0
C  C66  1  0.07723864  0.34188731  0.12577537  1  -0.069408  0  -0.02212  -0.107458  0  3.951228  0
C  C67  1  0.92277113  0.65811238  0.87422396  1  -0.069519  0  -0.022138  -0.107482  0  3.951184  0
C  C68  1  0.75397951  0.71793354  0.14664793  1  0.005362  0  -0.16348  -0.18309  0  3.967544  0
C  C69  1  0.24602642  0.28206696  0.85335361  1  0.00575  0  -0.163497  -0.183086  0  3.967556  0
C  C70  1  0.34173737  0.30528748  0.16262701  1  -0.004553  0  -0.101421  -0.193811  0  3.990105  0
C  C71  1  0.65826508  0.69471302  0.83737437  1  -0.004618  0  -0.101507  -0.194037  0  3.990043  0
C  C72  1  0.28888590  0.77484087  0.00371734  1  -0.01962  0  -0.117758  -0.229999  0  3.968268  0
C  C73  1  0.71111654  0.22515963  0.99628465  1  -0.019807  0  -0.117828  -0.230112  0  3.968427  0
C  C74  1  0.20248230  0.37828997  0.13840944  1  0.338246  0  0.084855  0.23943  0  4.00143  0
C  C75  1  0.79752677  0.62171131  0.86158791  1  0.338408  0  0.084934  0.239528  0  4.001107  0
C  C76  1  0.53536107  0.73907621  0.06057569  1  -0.052958  0  -0.029933  -0.117147  0  3.957355  0
C  C77  1  0.46464370  0.26092428  0.93942539  1  -0.053282  0  -0.029874  -0.117061  0  3.9572  0
C  C78  1  0.09743738  0.23180026  0.13771569  1  -0.079237  0  -0.088357  -0.091897  0  3.992319  0
C  C79  1  0.90257193  0.76819783  0.86228149  1  -0.079289  0  -0.088369  -0.091879  0  3.992368  0
C  C80  1  0.35571051  0.92180859  0.03857246  1  -0.050481  0  -0.117759  -0.139201  0  4.083961  0
C  C81  1  0.64429345  0.07819111  0.96142945  1  -0.050417  0  -0.117707  -0.139184  0  4.084048  0
C  C82  1  0.25169375  0.88284484  0.00927719  1  -0.063458  0  -0.092386  -0.044873  0  4.053752  0
C  C83  1  0.74831521  0.11715406  0.99072358  1  -0.063717  0  -0.092392  -0.044875  0  4.053729  0
C  C84  1  0.67974040  0.67233933  0.09337205  1  0.581483  0  0.140003  0.234551  0  3.870004  0
C  C85  1  0.32026578  0.32765798  0.90662931  1  0.581412  0  0.139895  0.234394  0  3.86996  0
C  C86  1  0.23541564  0.15958726  0.16258137  1  0.041554  0  -0.102771  -0.115092  0  4.034008  0
C  C87  1  0.76458797  0.84041324  0.83742169  1  0.041772  0  -0.102778  -0.115163  0  4.033881  0
C  C88  1  0.35825675  0.19680505  0.17466177  1  -0.031737  0  -0.085659  -0.039068  0  4.001647  0
C  C89  1  0.64174685  0.80319543  0.82533580  1  -0.031923  0  -0.085655  -0.038928  0  4.001472  0
C  C90  1  0.43010732  0.70094448  0.02735486  1  0.550899  0  0.085911  0.320525  0  4.050084  0
C  C91  1  0.56990013  0.29905521  0.97264415  1  0.55093  0  0.085917  0.320547  0  4.050176  0
C  C92  1  0.89206836  0.76075371  0.09332848  1  -0.058834  0  -0.24956  -0.353964  0  3.918652  0
C  C93  1  0.10793736  0.23924201  0.90667134  1  -0.058974  0  -0.249564  -0.353947  0  3.918683  0
C  C94  1  0.49343742  0.85032185  0.06363133  1  -0.054976  0  -0.092751  -0.10425  0  4.025945  0
C  C95  1  0.50656305  0.14967786  0.93637164  1  -0.0549  0  -0.092809  -0.104325  0  4.025964  0
C  C96  1  0.61037133  0.04906265  0.33582366  1  0.016763  0  -0.018242  -0.10705  0  3.948511  0
C  C97  1  0.38961923  0.95094103  0.66417574  1  0.016942  0  -0.018272  -0.106982  0  3.948442  0
C  C98  1  0.45173697  0.05775517  0.39438833  1  1.263398  0  0.20871  0.415345  0  4.150155  0
C  C99  1  0.54824823  0.94225011  0.60561092  1  1.263301  0  0.208676  0.415242  0  4.150027  0
C  C100  1  0.64206019  0.99642778  0.26375576  1  -0.084269  0  -0.085399  -0.086508  0  3.993545  0
C  C101  1  0.35793157  0.00356795  0.73624464  1  -0.084057  0  -0.085347  -0.08637  0  3.993375  0
C  C102  1  0.03400618  0.19896438  0.61372763  1  -0.0114  0  -0.032642  -0.115998  0  3.959505  0
C  C103  1  0.96599126  0.80103692  0.38627550  1  -0.011365  0  -0.032613  -0.115992  0  3.95925  0
C  C104  1  0.92784518  0.13860346  0.61006745  1  0.575467  0  0.081577  0.317898  0  4.05599  0
C  C105  1  0.07215190  0.86139862  0.38993073  1  0.575406  0  0.081523  0.317894  0  4.056008  0
C  C106  1  0.73146546  0.08974279  0.34816644  1  0.285628  0  0.087467  0.240955  0  3.998599  0
C  C107  1  0.26852020  0.91026408  0.65183253  1  0.285501  0  0.087398  0.240926  0  3.998268  0
C  C108  1  0.25846362  0.28969317  0.54896809  1  -0.017866  0  -0.16193  -0.176445  0  3.967224  0
C  C109  1  0.74152881  0.71030892  0.45103130  1  -0.017794  0  -0.161944  -0.176465  0  3.967121  0
C  C110  1  0.78492161  0.98762170  0.20405594  1  0.023776  0  -0.100456  -0.109954  0  4.039968  0
C  C111  1  0.21507227  0.01236927  0.79594916  1  0.02377  0  -0.100476  -0.10997  0  4.039831  0
C  C112  1  0.18490697  0.20057037  0.55330629  1  0.595337  0  0.140542  0.236128  0  3.866966  0
C  C113  1  0.81508698  0.79943092  0.44669485  1  0.595426  0  0.140553  0.236182  0  3.866855  0
C  C114  1  0.87554938  0.08041036  0.28801494  1  -0.026626  0  -0.100164  -0.19191  0  3.986821  0
C  C115  1  0.12443653  0.91959332  0.71198506  1  -0.026773  0  -0.100187  -0.192024  0  3.986817  0
C  C116  1  0.98890678  0.26230713  0.68150419  1  -0.058543  0  -0.097226  -0.109954  0  4.03546  0
C  C117  1  0.01109055  0.73769178  0.31849809  1  -0.058644  0  -0.097242  -0.110044  0  4.035323  0
C  C118  1  0.74543129  0.21064447  0.73724635  1  -0.112548  0  -0.096247  -0.043644  0  4.045047  0
C  C119  1  0.25457246  0.78935046  0.26275750  1  -0.112532  0  -0.096248  -0.04364  0  4.044982  0
C  C120  1  0.78416779  0.14789154  0.67192971  1  -0.026867  0  -0.122011  -0.23826  0  3.985193  0
C  C121  1  0.21582919  0.85210817  0.32807127  1  -0.026636  0  -0.121988  -0.238163  0  3.985219  0
C  C122  1  0.90183895  0.03022185  0.21610584  1  -0.052457  0  -0.083881  -0.048711  0  4.014653  0
C  C123  1  0.09814908  0.96977707  0.78389763  1  -0.052617  0  -0.083854  -0.048663  0  4.014565  0
C  C124  1  0.38676520  0.26248551  0.60441872  1  -0.051075  0  -0.24728  -0.345659  0  3.924993  0
C  C125  1  0.61322839  0.73751658  0.39558053  1  -0.05106  0  -0.247321  -0.34576  0  3.925138  0
C  C126  1  0.84920227  0.26806457  0.74279105  1  -0.024779  0  -0.121987  -0.139421  0  4.09838  0
C  C127  1  0.15080148  0.73193036  0.25721280  1  -0.02483  0  -0.121991  -0.139387  0  4.098127  0
N  N128  1  0.74763762  0.57338339  0.07637960  1  -0.848279  0  -0.247384  -0.198745  0  3.589554  0
N  N129  1  0.25237179  0.42661709  0.92361783  1  -0.848218  0  -0.247314  -0.198507  0  3.589189  0
N  N130  1  0.88616590  0.51661175  0.10691648  1  -0.773973  0  -0.264568  -0.341138  0  3.32604  0
N  N131  1  0.11384049  0.48339032  0.89308172  1  -0.773821  0  -0.264532  -0.341215  0  3.32599  0
N  N132  1  0.19446525  0.48822830  0.11915772  1  -1.240923  0  -0.597197  -0.594427  0  3.428812  0
N  N133  1  0.80554264  0.51177297  0.88083918  1  -1.240883  0  -0.597159  -0.594351  0  3.428706  0
N  N134  1  0.71354752  0.13096742  0.42562685  1  -1.217164  0  -0.595091  -0.593453  0  3.421981  0
N  N135  1  0.28644011  0.86904023  0.57436931  1  -1.217364  0  -0.59506  -0.593606  0  3.421681  0
N  N136  1  0.25769667  0.12503703  0.50329981  1  -0.850606  0  -0.245351  -0.202218  0  3.586254  0
N  N137  1  0.74229622  0.87496664  0.49669930  1  -0.850696  0  -0.24534  -0.202186  0  3.586273  0
N  N138  1  0.40367990  0.12780395  0.45142034  1  -0.773757  0  -0.262623  -0.339068  0  3.325506  0
N  N139  1  0.59631461  0.87220132  0.54857893  1  -0.773714  0  -0.262652  -0.339095  0  3.325535  0
O  O140  1  0.45943859  0.59796801  0.01865063  1  -1.194734  0  -0.352165  -0.56076  0  2.521873  0
O  O141  1  0.54057233  0.40203167  0.98134549  1  -1.194652  0  -0.352154  -0.560766  0  2.52184  0
O  O142  1  0.84275415  0.36985922  0.06832549  1  -1.168706  0  -0.320289  -0.521801  0  2.359602  0
O  O143  1  0.15725769  0.63014363  0.93166701  1  -1.168819  0  -0.320287  -0.521828  0  2.359579  0
O  O144  1  0.36858874  0.99772556  0.38583763  1  -1.172966  0  -0.32031  -0.526904  0  2.370657  0
O  O145  1  0.63140566  0.00227733  0.61416383  1  -1.172945  0  -0.320294  -0.5269  0  2.370544  0
O  O146  1  0.95871554  0.07420685  0.54999155  1  -1.185642  0  -0.353969  -0.561618  0  2.519295  0
O  O147  1  0.04127269  0.92579682  0.45000633  1  -1.185644  0  -0.353896  -0.561599  0  2.519253  0
