# generated using pymatgen
data_CdH6C8I2(BrN2)2
_symmetry_space_group_name_H-M   'P 1'
_cell_length_a   4.16491650
_cell_length_b   11.87650549
_cell_length_c   15.08683580
_cell_angle_alpha   89.99997046
_cell_angle_beta   89.99934178
_cell_angle_gamma   86.15519829
_symmetry_Int_Tables_number   1
_chemical_formula_structural   CdH6C8I2(BrN2)2
_chemical_formula_sum   'Cd2 H12 C16 I4 Br4 N8'
_cell_volume   744.58552013
_cell_formula_units_Z   2
loop_
 _symmetry_equiv_pos_site_id
 _symmetry_equiv_pos_as_xyz
  1  'x, y, z'
loop_
 _atom_site_type_symbol
 _atom_site_label
 _atom_site_symmetry_multiplicity
 _atom_site_fract_x
 _atom_site_fract_y
 _atom_site_fract_z
 _atom_site_occupancy
 _atom_site_hle17_bader_spin_density
 _atom_site_hle17_ddec_charge
 _atom_site_hle17_ddec_spin_density
 _atom_site_hle17_ddec_sum_bond_order
 _atom_site_hle17_magmom
 _atom_site_hse06_10hf_bader_spin_density
 _atom_site_hse06_10hf_ddec_charge
 _atom_site_hse06_10hf_ddec_spin_density
 _atom_site_hse06_10hf_ddec_sum_bond_order
 _atom_site_hse06_10hf_magmom
 _atom_site_hse06_bader_spin_density
 _atom_site_hse06_ddec_charge
 _atom_site_hse06_ddec_spin_density
 _atom_site_hse06_ddec_sum_bond_order
 _atom_site_hse06_magmom
 _atom_site_pbe_bader_spin_density
 _atom_site_pbe_cm5_charge
 _atom_site_pbe_ddec_charge
 _atom_site_pbe_ddec_spin_density
 _atom_site_pbe_ddec_sum_bond_order
 _atom_site_pbe_magmom
Cd  Cd0  1  0.00002570  0.49998458  0.00000391  1  0  0.68865  0  2.090534  0  0  0.538243  0  2.515503  0  0  0.587516  0  2.486071  0  0  0.446134  0.504442  0  2.535428  0
Cd  Cd1  1  0.99995379  0.00001244  0.49999643  1  0  0.688632  0  2.090525  0  0  0.53822  0  2.515509  0  0  0.58749  0  2.486079  0  0  0.446112  0.504412  0  2.535447  0
H  H2  1  0.20559748  0.70189894  0.14261528  1  0  0.077626  0  0.997736  0  0  0.078367  0  1.076913  0  0  0.082102  0  1.073534  0  0  0.092625  0.07543  0  1.079889  0
H  H3  1  0.79439791  0.79809924  0.64261903  1  0  0.077624  0  0.997656  0  0  0.078343  0  1.076862  0  0  0.082084  0  1.073479  0  0  0.092599  0.075406  0  1.079827  0
H  H4  1  0.79442651  0.29806754  0.85738514  1  0  0.077631  0  0.997601  0  0  0.078327  0  1.076874  0  0  0.082077  0  1.073485  0  0  0.092661  0.075393  0  1.079836  0
H  H5  1  0.20553465  0.20193214  0.35737675  1  0  0.077611  0  0.997646  0  0  0.078302  0  1.076899  0  0  0.08205  0  1.073512  0  0  0.092672  0.075369  0  1.079858  0
H  H6  1  0.20183823  0.74872688  0.30730389  1  0  0.080112  0  0.961719  0  0  0.085008  0  1.030738  0  0  0.088466  0  1.028507  0  0  0.098943  0.08222  0  1.033166  0
H  H7  1  0.79821618  0.75127787  0.80730499  1  0  0.080117  0  0.961983  0  0  0.085105  0  1.030863  0  0  0.088572  0  1.028611  0  0  0.098956  0.0823  0  1.033333  0
H  H8  1  0.79813123  0.25126219  0.69269189  1  0  0.080314  0  0.961404  0  0  0.085184  0  1.030403  0  0  0.088636  0  1.028208  0  0  0.098994  0.082386  0  1.032869  0
H  H9  1  0.20181936  0.24873796  0.19268814  1  0  0.080136  0  0.961682  0  0  0.084992  0  1.030725  0  0  0.088445  0  1.028509  0  0  0.098932  0.082202  0  1.033156  0
H  H10  1  0.75459839  0.40766504  0.19635062  1  0  0.084935  0  0.98823  0  0  0.08749  0  1.064081  0  0  0.09147  0  1.060995  0  0  0.095532  0.084388  0  1.066996  0
H  H11  1  0.24531643  0.09234792  0.69634306  1  0  0.084858  0  0.988405  0  0  0.08745  0  1.064271  0  0  0.091423  0  1.061189  0  0  0.095489  0.084352  0  1.067186  0
H  H12  1  0.24541369  0.59230515  0.80366835  1  0  0.084863  0  0.988284  0  0  0.087423  0  1.064253  0  0  0.091378  0  1.061229  0  0  0.095475  0.084339  0  1.067118  0
H  H13  1  0.75463997  0.90767690  0.30364807  1  0  0.084861  0  0.988267  0  0  0.087484  0  1.06411  0  0  0.091459  0  1.06103  0  0  0.095484  0.08437  0  1.067044  0
C  C14  1  0.10384886  0.64704847  0.19174637  1  0  0.057146  0  3.691289  0  0  0.0256  0  3.946962  0  0  0.029136  0  3.964933  0  0  0.032256  0.02312  0  3.935276  0
C  C15  1  0.89613981  0.85294901  0.69175175  1  0  0.057115  0  3.691416  0  0  0.025617  0  3.9471  0  0  0.029139  0  3.965066  0  0  0.032258  0.023141  0  3.935411  0
C  C16  1  0.89616101  0.35292684  0.80825802  1  0  0.057205  0  3.691305  0  0  0.02568  0  3.947064  0  0  0.029215  0  3.965015  0  0  0.032186  0.023209  0  3.935358  0
C  C17  1  0.10382384  0.14707644  0.30824204  1  0  0.057447  0  3.691526  0  0  0.025942  0  3.947207  0  0  0.029469  0  3.965168  0  0  0.032313  0.023471  0  3.935496  0
C  C18  1  0.10081573  0.67242677  0.28195283  1  0  0.085056  0  3.685629  0  0  0.066511  0  3.94057  0  0  0.066926  0  3.95754  0  0  0.046052  0.065925  0  3.92966  0
C  C19  1  0.89919346  0.82756751  0.78194694  1  0  0.084809  0  3.686097  0  0  0.066214  0  3.940987  0  0  0.066622  0  3.957978  0  0  0.04587  0.06563  0  3.930066  0
C  C20  1  0.89916566  0.32755945  0.71805090  1  0  0.084671  0  3.685459  0  0  0.066242  0  3.940377  0  0  0.066641  0  3.957333  0  0  0.045907  0.06564  0  3.929488  0
C  C21  1  0.10082497  0.17244208  0.21804287  1  0  0.084702  0  3.685699  0  0  0.066249  0  3.940659  0  0  0.066655  0  3.957619  0  0  0.045903  0.065656  0  3.929781  0
C  C22  1  0.85939844  0.51122495  0.31178882  1  0  0.182838  0  3.745081  0  0  0.186824  0  4.024825  0  0  0.192965  0  4.042971  0  0  0.111129  0.182232  0  4.012935  0
C  C23  1  0.14059814  0.98878396  0.81178416  1  0  0.182746  0  3.745104  0  0  0.186814  0  4.024727  0  0  0.192953  0  4.042876  0  0  0.111214  0.182212  0  4.012854  0
C  C24  1  0.14062171  0.48876690  0.68822088  1  0  0.182626  0  3.745588  0  0  0.186759  0  4.025156  0  0  0.192893  0  4.043302  0  0  0.111199  0.182169  0  4.013275  0
C  C25  1  0.85944247  0.01123847  0.18820830  1  0  0.182584  0  3.74506  0  0  0.186617  0  4.02481  0  0  0.192749  0  4.042959  0  0  0.111075  0.182023  0  4.012926  0
C  C26  1  0.85741186  0.48362401  0.22139346  1  0  0.02559  0  3.694114  0  0  -0.007818  0  3.94555  0  0  -0.006422  0  3.964561  0  0  0.034707  -0.009017  0  3.933493  0
C  C27  1  0.14254288  0.01638695  0.72138163  1  0  0.02548  0  3.69438  0  0  -0.007965  0  3.945687  0  0  -0.006555  0  3.964684  0  0  0.034623  -0.009169  0  3.933635  0
C  C28  1  0.14260767  0.51635186  0.77862087  1  0  0.025475  0  3.694098  0  0  -0.00797  0  3.945439  0  0  -0.00658  0  3.964444  0  0  0.034456  -0.009177  0  3.933395  0
C  C29  1  0.85743764  0.98363887  0.27860553  1  0  0.025713  0  3.694159  0  0  -0.00775  0  3.945481  0  0  -0.006356  0  3.964499  0  0  0.034655  -0.008954  0  3.933443  0
I  I30  1  0.47499398  0.67276432  0.96779845  1  0  -0.380245  0  1.290124  0  0  -0.327995  0  1.649393  0  0  -0.34969  0  1.627635  0  0  -0.173555  -0.313099  0  1.664834  0
I  I31  1  0.52499877  0.82723696  0.46779622  1  0  -0.380243  0  1.290191  0  0  -0.327979  0  1.649473  0  0  -0.349679  0  1.627708  0  0  -0.173538  -0.313072  0  1.664917  0
I  I32  1  0.52506643  0.32720956  0.03220528  1  0  -0.380163  0  1.290122  0  0  -0.32788  0  1.649366  0  0  -0.349582  0  1.627605  0  0  -0.173536  -0.312983  0  1.664809  0
I  I33  1  0.47491675  0.17278985  0.53219624  1  0  -0.380176  0  1.290137  0  0  -0.3279  0  1.649414  0  0  -0.349599  0  1.627651  0  0  -0.17353  -0.312989  0  1.664866  0
Br  Br34  1  0.68946330  0.40999637  0.39484696  1  0  -0.043979  0  1.32574  0  0  -0.047168  0  1.602815  0  0  -0.05027  0  1.594322  0  0  0.048143  -0.04357  0  1.608095  0
Br  Br35  1  0.31055935  0.09001080  0.89483719  1  0  -0.043894  0  1.325764  0  0  -0.04711  0  1.602838  0  0  -0.050207  0  1.59435  0  0  0.048156  -0.043508  0  1.608123  0
Br  Br36  1  0.31054469  0.58999246  0.60517268  1  0  -0.043843  0  1.32591  0  0  -0.047061  0  1.602953  0  0  -0.050142  0  1.594423  0  0  0.048202  -0.043446  0  1.608198  0
Br  Br37  1  0.68949521  0.90999861  0.10515328  1  0  -0.043997  0  1.325557  0  0  -0.047172  0  1.602623  0  0  -0.050259  0  1.594105  0  0  0.048122  -0.043557  0  1.607885  0
N  N38  1  0.98227732  0.55195607  0.16202161  1  0  -0.249166  0  3.25313  0  0  -0.175848  0  3.503355  0  0  -0.19211  0  3.526922  0  0  -0.307704  -0.164393  0  3.486863  0
N  N39  1  0.01766459  0.94804865  0.66202004  1  0  -0.248928  0  3.252895  0  0  -0.175682  0  3.50311  0  0  -0.191947  0  3.526695  0  0  -0.307627  -0.164225  0  3.486611  0
N  N40  1  0.01774198  0.44801391  0.83799206  1  0  -0.248885  0  3.252858  0  0  -0.175672  0  3.503195  0  0  -0.191923  0  3.526741  0  0  -0.307425  -0.164207  0  3.486686  0
N  N41  1  0.98227753  0.05198077  0.33796911  1  0  -0.249102  0  3.253327  0  0  -0.175839  0  3.503648  0  0  -0.192088  0  3.527193  0  0  -0.307544  -0.164378  0  3.487145  0
N  N42  1  0.97948801  0.60397578  0.34232714  1  0  -0.264303  0  3.087815  0  0  -0.240145  0  3.358144  0  0  -0.246389  0  3.37183  0  0  -0.301205  -0.235524  0  3.348055  0
N  N43  1  0.02054086  0.89602630  0.84232359  1  0  -0.264039  0  3.087433  0  0  -0.23993  0  3.357793  0  0  -0.246176  0  3.371485  0  0  -0.301048  -0.235299  0  3.347696  0
N  N44  1  0.02051051  0.39601753  0.65767924  1  0  -0.264133  0  3.087713  0  0  -0.240099  0  3.358081  0  0  -0.246311  0  3.371733  0  0  -0.301181  -0.235477  0  3.347995  0
N  N45  1  0.97951126  0.10398234  0.15766755  1  0  -0.264076  0  3.087678  0  0  -0.240023  0  3.358083  0  0  -0.246245  0  3.37175  0  0  -0.301145  -0.235393  0  3.347976  0
