# generated using pymatgen
data_NdH13C10S2(NO2)4
_symmetry_space_group_name_H-M   'P 1'
_cell_length_a   8.53738441
_cell_length_b   9.89027665
_cell_length_c   22.87941384
_cell_angle_alpha   89.99985409
_cell_angle_beta   89.99991911
_cell_angle_gamma   112.54544433
_symmetry_Int_Tables_number   1
_chemical_formula_structural   NdH13C10S2(NO2)4
_chemical_formula_sum   'Nd4 H52 C40 S8 N16 O32'
_cell_volume   1784.22933377
_cell_formula_units_Z   4
loop_
 _symmetry_equiv_pos_site_id
 _symmetry_equiv_pos_as_xyz
  1  'x, y, z'
loop_
 _atom_site_type_symbol
 _atom_site_label
 _atom_site_symmetry_multiplicity
 _atom_site_fract_x
 _atom_site_fract_y
 _atom_site_fract_z
 _atom_site_occupancy
 _atom_site_pbe_bader_charge
 _atom_site_pbe_bader_spin_density
 _atom_site_pbe_cm5_charge
 _atom_site_pbe_ddec_charge
 _atom_site_pbe_ddec_spin_density
 _atom_site_pbe_ddec_sum_bond_order
 _atom_site_pbe_magmom
Nd  Nd0  1  0.41796728  0.50518233  0.91343866  1  2.249794  0  1.476708  2.091368  0  2.109706  0
Nd  Nd1  1  0.08203151  0.99481394  0.41343703  1  2.249781  0  1.476736  2.091403  0  2.109663  0
Nd  Nd2  1  0.58203384  0.49481789  0.08656298  1  2.249829  0  1.476686  2.091374  0  2.109662  0
Nd  Nd3  1  0.91796629  0.00518411  0.58656548  1  2.249682  0  1.476727  2.09142  0  2.109595  0
H  H4  1  0.57771331  0.34973925  0.81418747  1  0.511626  0  0.317801  0.301094  0  0.961569  0
H  H5  1  0.92229059  0.15026521  0.31418299  1  0.511594  0  0.317782  0.301105  0  0.961562  0
H  H6  1  0.42228979  0.65026535  0.18581329  1  0.511606  0  0.317778  0.301093  0  0.961607  0
H  H7  1  0.07770837  0.84973283  0.68581647  1  0.511592  0  0.317781  0.30109  0  0.961579  0
H  H8  1  0.05603779  0.46436006  0.74435752  1  0.480253  0  0.284864  0.256138  0  1.014528  0
H  H9  1  0.44396426  0.03564019  0.24435403  1  0.480189  0  0.284892  0.256173  0  1.014472  0
H  H10  1  0.94396316  0.53564236  0.25564237  1  0.480264  0  0.28483  0.256061  0  1.0146  0
H  H11  1  0.55603304  0.96435677  0.75564586  1  0.480216  0  0.28489  0.256198  0  1.014494  0
H  H12  1  0.99791915  0.49353555  0.92672688  1  0.169773  0  0.119822  0.181505  0  1.013492  0
H  H13  1  0.50208688  0.00647454  0.42672408  1  0.169901  0  0.119843  0.181556  0  1.013404  0
H  H14  1  0.00208279  0.50646906  0.07327170  1  0.169758  0  0.119834  0.181543  0  1.01341  0
H  H15  1  0.49791654  0.99353335  0.57327624  1  0.169879  0  0.119825  0.181544  0  1.013393  0
H  H16  1  0.07593363  0.18770368  0.88055915  1  0.542348  0  0.322102  0.309396  0  0.95451  0
H  H17  1  0.42407504  0.31230197  0.38055798  1  0.542414  0  0.322036  0.309308  0  0.954457  0
H  H18  1  0.92406467  0.81229546  0.11944074  1  0.54234  0  0.322084  0.309384  0  0.954555  0
H  H19  1  0.57593058  0.68770042  0.61944191  1  0.542351  0  0.322034  0.309286  0  0.954501  0
H  H20  1  0.84734183  0.05494200  0.72139192  1  0.53228  0  0.309648  0.284727  0  1.005084  0
H  H21  1  0.65265626  0.44506437  0.22138987  1  0.532321  0  0.309625  0.284692  0  1.005042  0
H  H22  1  0.15266110  0.94506480  0.27860448  1  0.532289  0  0.309652  0.284699  0  1.005138  0
H  H23  1  0.34733907  0.55492820  0.77860784  1  0.532214  0  0.309631  0.28468  0  1.005041  0
H  H24  1  0.37892752  0.26999104  0.72899002  1  0.101139  0  0.098567  0.156027  0  1.039029  0
H  H25  1  0.12107029  0.23001266  0.22898954  1  0.101106  0  0.098559  0.156  0  1.039066  0
H  H26  1  0.62107109  0.73001139  0.27100900  1  0.101174  0  0.098571  0.156043  0  1.03904  0
H  H27  1  0.87892305  0.76997554  0.77101123  1  0.101218  0  0.09857  0.155986  0  1.039074  0
H  H28  1  0.16635801  0.11360573  0.06735695  1  0.078896  0  0.095574  0.146648  0  1.029102  0
H  H29  1  0.33363822  0.38639055  0.56735777  1  0.0789  0  0.095549  0.146592  0  1.029058  0
H  H30  1  0.83365214  0.88639114  0.93264163  1  0.078936  0  0.095539  0.146613  0  1.028985  0
H  H31  1  0.66634974  0.61360646  0.43264344  1  0.078924  0  0.095563  0.146641  0  1.028918  0
H  H32  1  0.98255915  0.11370101  0.02873862  1  0.068563  0  0.10188  0.161115  0  0.980008  0
H  H33  1  0.51744110  0.38629818  0.52873872  1  0.068577  0  0.101864  0.161117  0  0.980016  0
H  H34  1  0.01744650  0.88629369  0.97126171  1  0.068835  0  0.101876  0.16113  0  0.980019  0
H  H35  1  0.48255401  0.61370428  0.47126379  1  0.068824  0  0.101871  0.161118  0  0.979994  0
H  H36  1  0.09024843  0.25285233  0.08110156  1  0.094527  0  0.110244  0.171824  0  0.985343  0
H  H37  1  0.40975121  0.24714382  0.58110249  1  0.094498  0  0.110203  0.171801  0  0.985349  0
H  H38  1  0.90975921  0.74714675  0.91889745  1  0.094382  0  0.110212  0.171803  0  0.98537  0
H  H39  1  0.59023927  0.75285099  0.41889827  1  0.094346  0  0.110215  0.171789  0  0.985321  0
H  H40  1  0.27908734  0.59654874  0.02217499  1  0.667223  0  0.297921  0.394696  0  0.949212  0
H  H41  1  0.22091206  0.90345081  0.52217497  1  0.667242  0  0.297915  0.394662  0  0.949233  0
H  H42  1  0.72091293  0.40345479  0.97782577  1  0.667225  0  0.297903  0.394645  0  0.949298  0
H  H43  1  0.77909091  0.09654830  0.47782448  1  0.667207  0  0.297894  0.394627  0  0.94928  0
H  H44  1  0.30243326  0.70564938  0.96797800  1  0.619201  0  0.31343  0.411864  0  0.892252  0
H  H45  1  0.19756844  0.79434861  0.46797915  1  0.619215  0  0.313396  0.411812  0  0.892314  0
H  H46  1  0.69756669  0.29435085  0.03202102  1  0.619231  0  0.313416  0.411844  0  0.892275  0
H  H47  1  0.80243102  0.20565053  0.53201986  1  0.619226  0  0.313424  0.411864  0  0.892234  0
H  H48  1  0.37562563  0.80017180  0.86429608  1  0.605582  0  0.265384  0.354762  0  0.994166  0
H  H49  1  0.12437286  0.69982598  0.36429475  1  0.605532  0  0.265375  0.354749  0  0.994198  0
H  H50  1  0.62437451  0.19982624  0.13570338  1  0.605588  0  0.265387  0.354758  0  0.99417  0
H  H51  1  0.87562426  0.30017317  0.63570470  1  0.605529  0  0.265409  0.354847  0  0.994087  0
H  H52  1  0.55639120  0.84912491  0.89081547  1  0.592384  0  0.290171  0.385547  0  0.93943  0
H  H53  1  0.94360748  0.65087307  0.39081491  1  0.592367  0  0.29016  0.38556  0  0.939415  0
H  H54  1  0.44360808  0.15087643  0.10918354  1  0.592388  0  0.290164  0.385563  0  0.939411  0
H  H55  1  0.05638964  0.34912608  0.60918410  1  0.592415  0  0.290171  0.385597  0  0.939362  0
C  C56  1  0.80604646  0.39773883  0.76969892  1  0.861904  0  0.244003  0.416235  0  4.094081  0
C  C57  1  0.69395912  0.10226380  0.26969505  1  0.861606  0  0.243993  0.416315  0  4.094153  0
C  C58  1  0.19395466  0.60226139  0.23030184  1  0.861732  0  0.243957  0.41614  0  4.094042  0
C  C59  1  0.30604183  0.89773862  0.73030485  1  0.861631  0  0.244013  0.416338  0  4.093968  0
C  C60  1  0.04979097  0.47658801  0.83558319  1  1.12168  0  0.219941  0.558682  0  4.132789  0
C  C61  1  0.45020789  0.02341369  0.33557883  1  1.121395  0  0.219902  0.558579  0  4.133173  0
C  C62  1  0.95020984  0.52340892  0.16441670  1  1.121893  0  0.219904  0.558576  0  4.133051  0
C  C63  1  0.54979239  0.97658983  0.66442062  1  1.121769  0  0.219963  0.558622  0  4.133137  0
C  C64  1  0.94393959  0.46829952  0.88313095  1  0.050516  0  -0.136537  -0.494398  0  3.912744  0
C  C65  1  0.55605913  0.03170440  0.38312679  1  0.050601  0  -0.136568  -0.494491  0  3.912764  0
C  C66  1  0.05606086  0.53170180  0.11686851  1  0.050363  0  -0.136584  -0.494476  0  3.912755  0
C  C67  1  0.44394312  0.96830351  0.61687311  1  0.050387  0  -0.136613  -0.494512  0  3.912743  0
C  C68  1  0.76998744  0.42657920  0.87395989  1  1.135494  0  0.227716  0.567254  0  4.120202  0
C  C69  1  0.73001534  0.07342587  0.37395646  1  1.135554  0  0.227713  0.567313  0  4.120293  0
C  C70  1  0.23001499  0.57342650  0.12603956  1  1.13568  0  0.227841  0.567398  0  4.120101  0
C  C71  1  0.26998628  0.92657545  0.62604255  1  1.135758  0  0.227743  0.567346  0  4.120232  0
C  C72  1  0.93623410  0.10729127  0.80562217  1  0.834149  0  0.245859  0.42523  0  4.091995  0
C  C73  1  0.56376672  0.39270889  0.30561892  1  0.833665  0  0.245865  0.425258  0  4.091952  0
C  C74  1  0.06376383  0.89271227  0.19437772  1  0.834106  0  0.245846  0.425226  0  4.092038  0
C  C75  1  0.43623059  0.60728807  0.69438097  1  0.833918  0  0.245979  0.42541  0  4.091992  0
C  C76  1  0.10988160  0.15194781  0.71733120  1  1.155408  0  0.218884  0.568698  0  4.144546  0
C  C77  1  0.39011720  0.34804500  0.21733088  1  1.155476  0  0.218996  0.568914  0  4.144123  0
C  C78  1  0.89012236  0.84805349  0.28266869  1  1.155429  0  0.218892  0.568725  0  4.14442  0
C  C79  1  0.60987296  0.65194651  0.78266901  1  1.155502  0  0.218892  0.568728  0  4.144617  0
C  C80  1  0.25581885  0.22396055  0.75030225  1  0.082769  0  -0.146034  -0.479688  0  3.926589  0
C  C81  1  0.24418002  0.27603528  0.25029990  1  0.08311  0  -0.146109  -0.479787  0  3.926536  0
C  C82  1  0.74418511  0.77604075  0.24969764  1  0.082795  0  -0.146041  -0.479716  0  3.926676  0
C  C83  1  0.75581149  0.72395403  0.74970130  1  0.083006  0  -0.146118  -0.479706  0  3.926888  0
C  C84  1  0.24328787  0.23551225  0.81069016  1  1.113675  0  0.215701  0.55565  0  4.150009  0
C  C85  1  0.25670852  0.26448638  0.31068913  1  1.113168  0  0.215746  0.555765  0  4.149954  0
C  C86  1  0.75671658  0.76449014  0.18931105  1  1.113471  0  0.21566  0.555678  0  4.150034  0
C  C87  1  0.74328928  0.73551167  0.68931295  1  1.113482  0  0.215771  0.555814  0  4.150006  0
C  C88  1  0.21822066  0.27753142  0.99979463  1  1.541167  0  0.226322  0.74464  0  4.074978  0
C  C89  1  0.28177499  0.22246454  0.49979276  1  1.541188  0  0.226319  0.744586  0  4.074906  0
C  C90  1  0.78177683  0.72246334  0.00020700  1  1.54147  0  0.226305  0.74458  0  4.074991  0
C  C91  1  0.71822713  0.77753787  0.50020931  1  1.540471  0  0.226267  0.744496  0  4.075051  0
C  C92  1  0.10673364  0.18201524  0.04654171  1  -0.107664  0  -0.234576  -0.517914  0  3.853131  0
C  C93  1  0.39326442  0.31798231  0.54654126  1  -0.107594  0  -0.234529  -0.517866  0  3.853009  0
C  C94  1  0.89327170  0.81797617  0.95345905  1  -0.107774  0  -0.234525  -0.517861  0  3.852984  0
C  C95  1  0.60673051  0.68202235  0.45346126  1  -0.107866  0  -0.234558  -0.517859  0  3.852835  0
S  S96  1  0.72016036  0.35481929  0.70283974  1  -0.169053  0  -0.186344  -0.400311  0  2.103106  0
S  S97  1  0.77984177  0.14517514  0.20283446  1  -0.168931  0  -0.186318  -0.400288  0  2.103161  0
S  S98  1  0.27984328  0.64517872  0.29716190  1  -0.168912  0  -0.186319  -0.400264  0  2.103136  0
S  S99  1  0.22015554  0.85482182  0.79716543  1  -0.168973  0  -0.186352  -0.400337  0  2.10314  0
S  S100  1  0.74294649  0.05099028  0.83671090  1  -0.157541  0  -0.193645  -0.444705  0  2.15291  0
S  S101  1  0.75705589  0.44901619  0.33670617  1  -0.15708  0  -0.193632  -0.444673  0  2.152957  0
S  S102  1  0.25705095  0.94901216  0.16328855  1  -0.157484  0  -0.193636  -0.444685  0  2.152917  0
S  S103  1  0.24294388  0.55098623  0.66329197  1  -0.157214  0  -0.19367  -0.444743  0  2.15287  0
N  N104  1  0.70877187  0.38828230  0.81772335  1  -1.246641  0  -0.376362  -0.374788  0  3.568745  0
N  N105  1  0.79123053  0.11171885  0.31771766  1  -1.246395  0  -0.37632  -0.374867  0  3.568847  0
N  N106  1  0.29123142  0.61172010  0.18227742  1  -1.246571  0  -0.376323  -0.37475  0  3.568575  0
N  N107  1  0.20876992  0.88828248  0.68228136  1  -1.246506  0  -0.376304  -0.374795  0  3.568719  0
N  N108  1  0.97608341  0.44487977  0.78023190  1  -1.243451  0  -0.377774  -0.365845  0  3.545666  0
N  N109  1  0.52391993  0.05512059  0.28022729  1  -1.24321  0  -0.377819  -0.365856  0  3.545498  0
N  N110  1  0.02391654  0.55512046  0.21976843  1  -1.243557  0  -0.377749  -0.365698  0  3.545588  0
N  N111  1  0.47608119  0.94487964  0.71977216  1  -1.243533  0  -0.377816  -0.365918  0  3.545529  0
N  N112  1  0.08285402  0.17148481  0.83628355  1  -1.260314  0  -0.374713  -0.381122  0  3.524804  0
N  N113  1  0.41714901  0.32851576  0.33628018  1  -1.260263  0  -0.374681  -0.381036  0  3.524811  0
N  N114  1  0.91714644  0.82851652  0.16371591  1  -1.260344  0  -0.3747  -0.381163  0  3.524872  0
N  N115  1  0.58284812  0.67148339  0.66372059  1  -1.260449  0  -0.374739  -0.381103  0  3.524934  0
N  N116  1  0.95557301  0.09760051  0.74716700  1  -1.266908  0  -0.382831  -0.391006  0  3.560085  0
N  N117  1  0.54442623  0.40240344  0.24716200  1  -1.266848  0  -0.382822  -0.391179  0  3.560231  0
N  N118  1  0.04442978  0.90240080  0.25283245  1  -1.266956  0  -0.382796  -0.390945  0  3.560334  0
N  N119  1  0.45556757  0.59759353  0.75283746  1  -1.26709  0  -0.382841  -0.391135  0  3.560361  0
O  O120  1  0.21060031  0.51130757  0.83879431  1  -1.202857  0  -0.385513  -0.641665  0  2.34953  0
O  O121  1  0.28940220  0.98869369  0.33879215  1  -1.203091  0  -0.385493  -0.641615  0  2.349708  0
O  O122  1  0.78940001  0.48868827  0.16120558  1  -1.203025  0  -0.385466  -0.641612  0  2.349676  0
O  O123  1  0.71059942  0.01130762  0.66120906  1  -1.202972  0  -0.385514  -0.641638  0  2.349731  0
O  O124  1  0.66136254  0.41996849  0.91393297  1  -1.200197  0  -0.366343  -0.62636  0  2.301623  0
O  O125  1  0.83864210  0.08003842  0.41392817  1  -1.200237  0  -0.366326  -0.626333  0  2.301515  0
O  O126  1  0.33864537  0.58004157  0.08606692  1  -1.200232  0  -0.366451  -0.626462  0  2.301562  0
O  O127  1  0.16135736  0.91996071  0.58607084  1  -1.20029  0  -0.366334  -0.626368  0  2.301525  0
O  O128  1  0.10631131  0.13286752  0.66230839  1  -1.204983  0  -0.4205  -0.654772  0  2.335103  0
O  O129  1  0.39368166  0.36713787  0.16230586  1  -1.205148  0  -0.420539  -0.654856  0  2.334702  0
O  O130  1  0.89369197  0.86713488  0.33769281  1  -1.205051  0  -0.420487  -0.654788  0  2.334955  0
O  O131  1  0.60631246  0.63286240  0.83769359  1  -1.20513  0  -0.420482  -0.654768  0  2.334767  0
O  O132  1  0.36871859  0.30238633  0.84451044  1  -1.207917  0  -0.39296  -0.645751  0  2.321943  0
O  O133  1  0.13128455  0.19761198  0.34450956  1  -1.207892  0  -0.392934  -0.645768  0  2.322035  0
O  O134  1  0.63128002  0.69761611  0.15548988  1  -1.207697  0  -0.392939  -0.645773  0  2.321865  0
O  O135  1  0.86871626  0.80238495  0.65549208  1  -1.207758  0  -0.392931  -0.645804  0  2.322065  0
O  O136  1  0.37611044  0.35450060  0.01103670  1  -1.232244  0  -0.437344  -0.76267  0  2.28828  0
O  O137  1  0.12388622  0.14549616  0.51103833  1  -1.232283  0  -0.437285  -0.762608  0  2.288188  0
O  O138  1  0.62388768  0.64550075  0.98896144  1  -1.232516  0  -0.437316  -0.762614  0  2.288235  0
O  O139  1  0.87611508  0.85450187  0.48896069  1  -1.232283  0  -0.437296  -0.762596  0  2.288297  0
O  O140  1  0.15930087  0.28774311  0.94981871  1  -1.204048  0  -0.358548  -0.629214  0  2.195029  0
O  O141  1  0.34070413  0.21225759  0.44981770  1  -1.204027  0  -0.35855  -0.629199  0  2.194971  0
O  O142  1  0.84070358  0.71225928  0.05018336  1  -1.204068  0  -0.358524  -0.629209  0  2.195057  0
O  O143  1  0.65929550  0.78773935  0.55018525  1  -1.20315  0  -0.358502  -0.629151  0  2.194989  0
O  O144  1  0.25168654  0.60233866  0.97935773  1  -1.278619  0  -0.63597  -0.829097  0  2.026903  0
O  O145  1  0.24831275  0.89765925  0.47935787  1  -1.278637  0  -0.63594  -0.829022  0  2.026976  0
O  O146  1  0.74831576  0.39766156  0.02064259  1  -1.278664  0  -0.635953  -0.829067  0  2.026978  0
O  O147  1  0.75168788  0.10233987  0.52064158  1  -1.278616  0  -0.635938  -0.829045  0  2.026984  0
O  O148  1  0.43854440  0.78341341  0.89847264  1  -1.227839  0  -0.596577  -0.803807  0  2.088165  0
O  O149  1  0.06145635  0.71658187  0.39847221  1  -1.2278  0  -0.59655  -0.803806  0  2.088203  0
O  O150  1  0.56145556  0.21658682  0.10152681  1  -1.227847  0  -0.596569  -0.80381  0  2.088107  0
O  O151  1  0.93854096  0.28341508  0.60152768  1  -1.227842  0  -0.596607  -0.803945  0  2.088092  0
