# generated using pymatgen
data_CoH46C44(NO3)2
_symmetry_space_group_name_H-M   'P 1'
_cell_length_a   8.50459727
_cell_length_b   10.87780928
_cell_length_c   10.69835572
_cell_angle_alpha   80.65014784
_cell_angle_beta   68.64693847
_cell_angle_gamma   77.57922914
_symmetry_Int_Tables_number   1
_chemical_formula_structural   CoH46C44(NO3)2
_chemical_formula_sum   'Co1 H46 C44 N2 O6'
_cell_volume   896.34448567
_cell_formula_units_Z   1
loop_
 _symmetry_equiv_pos_site_id
 _symmetry_equiv_pos_as_xyz
  1  'x, y, z'
loop_
 _atom_site_type_symbol
 _atom_site_label
 _atom_site_symmetry_multiplicity
 _atom_site_fract_x
 _atom_site_fract_y
 _atom_site_fract_z
 _atom_site_occupancy
 _atom_site_hle17_ddec_charge
 _atom_site_hle17_ddec_spin_density
 _atom_site_hle17_ddec_sum_bond_order
 _atom_site_hle17_magmom
 _atom_site_hse06_10hf_ddec_charge
 _atom_site_hse06_10hf_ddec_spin_density
 _atom_site_hse06_10hf_ddec_sum_bond_order
 _atom_site_hse06_10hf_magmom
 _atom_site_hse06_ddec_charge
 _atom_site_hse06_ddec_spin_density
 _atom_site_hse06_ddec_sum_bond_order
 _atom_site_hse06_magmom
 _atom_site_pbe_cm5_charge
 _atom_site_pbe_ddec_charge
 _atom_site_pbe_ddec_spin_density
 _atom_site_pbe_ddec_sum_bond_order
 _atom_site_pbe_magmom
Co  Co0  1  0.00000011  0.99999886  0.99999961  1  0.716515  -1.157284  2.430106  -1.059  0.704581  -1.042879  2.849111  -0.977  0.770084  -1.028602  2.777008  -0.972  0.64687  0.667404  -1.043913  2.892656  -0.968
H  H1  1  0.43738761  0.81210418  0.22690546  1  0.090097  0.000153  0.967997  0.0  0.101627  3.9e-05  1.039761  0.0  0.102186  -1.3e-05  1.040565  0.0  0.094483  0.101543  7.4e-05  1.038809  0.0
H  H2  1  0.56261522  0.18789844  0.77309349  1  0.090098  0.000142  0.967955  0.0  0.101655  3.9e-05  1.039707  0.0  0.102209  -1.3e-05  1.040512  0.0  0.094508  0.101572  7.4e-05  1.038755  0.0
H  H3  1  0.49132812  0.76335583  0.06568369  1  0.109176  0.000165  0.925184  0.0  0.128756  0.000143  0.979974  0.0  0.130489  8.8e-05  0.979924  0.0  0.104679  0.127376  0.000193  0.980223  0.0
H  H4  1  0.50867578  0.23664206  0.93431662  1  0.109174  0.000163  0.925115  0.0  0.128773  0.000143  0.979912  0.0  0.130502  8.7e-05  0.979858  0.0  0.104679  0.127394  0.000193  0.980158  0.0
H  H5  1  0.24736939  0.64875376  0.14229485  1  0.067052  5.4e-05  0.930035  0.0  0.077887  1.9e-05  0.995688  0.0  0.080098  5e-05  0.993855  0.0  0.10131  0.076196  1.1e-05  0.997145  0.0
H  H6  1  0.75262792  0.35125071  0.85770912  1  0.067038  5.5e-05  0.930045  0.0  0.077866  1.9e-05  0.995717  0.0  0.080077  5e-05  0.993884  0.0  0.101312  0.076176  1.1e-05  0.997172  0.0
H  H7  1  0.38784720  0.45254461  0.09841892  1  0.081575  -9e-06  0.997125  0.0  0.092149  -1.2e-05  1.064385  0.0  0.094434  -9e-06  1.064152  0.0  0.095311  0.090471  -1.7e-05  1.064612  0.0
H  H8  1  0.61214023  0.54745893  0.90158704  1  0.08154  -9e-06  0.997023  0.0  0.092153  -1.3e-05  1.064239  0.0  0.094437  -9e-06  1.064007  0.0  0.095308  0.090474  -1.7e-05  1.064466  0.0
H  H9  1  0.61453869  0.26780877  0.11294375  1  0.090474  0.000134  0.967423  0.0  0.101008  9.4e-05  1.029194  0.0  0.103694  7.5e-05  1.02852  0.0  0.097491  0.099107  0.000109  1.029664  0.0
H  H10  1  0.38544861  0.73219010  0.88705829  1  0.090487  0.000122  0.967466  0.0  0.101016  9.4e-05  1.029228  0.0  0.103702  7.5e-05  1.028556  0.0  0.097497  0.099114  0.000109  1.029701  0.0
H  H11  1  0.78559188  0.26785001  0.25674248  1  0.089455  9.6e-05  0.982459  0.0  0.096834  6.9e-05  1.049995  0.0  0.09945  5.9e-05  1.049429  0.0  0.095525  0.094867  6.7e-05  1.05059  0.0
H  H12  1  0.21440302  0.73214887  0.74325554  1  0.089456  0.000101  0.982448  0.0  0.096829  6.9e-05  1.049995  0.0  0.099453  5.9e-05  1.049406  0.0  0.09551  0.09486  6.7e-05  1.050594  0.0
H  H13  1  0.72684673  0.45071388  0.39033432  1  0.082026  -2e-06  0.9784  0.0  0.092077  2e-06  1.042706  0.0  0.094249  2e-06  1.042822  0.0  0.094735  0.090485  1e-06  1.042727  0.0
H  H14  1  0.27315908  0.54928686  0.60966221  1  0.082067  6e-06  0.978314  0.0  0.09213  2e-06  1.042604  0.0  0.09431  2e-06  1.042718  0.0  0.094743  0.090539  1e-06  1.042624  0.0
H  H15  1  0.50295725  0.63423808  0.37525659  1  0.082307  -7e-06  0.965087  0.0  0.094265  -5e-06  1.027972  0.0  0.096767  -3e-06  1.027111  0.0  0.095631  0.092743  -7e-06  1.028208  0.0
H  H16  1  0.49704559  0.36576455  0.62474142  1  0.082321  -9e-06  0.96512  0.0  0.094271  -5e-06  1.028011  0.0  0.096774  -3e-06  1.027145  0.0  0.095631  0.09275  -7e-06  1.028245  0.0
H  H17  1  0.25809369  0.79378163  0.43753185  1  0.078931  -3.9e-05  0.97225  0.0  0.091178  -1.6e-05  1.036429  0.0  0.093289  -1.3e-05  1.036369  0.0  0.093988  0.08973  -1.2e-05  1.036526  0.0
H  H18  1  0.74190992  0.20622284  0.56247034  1  0.078842  -3.5e-05  0.972298  0.0  0.091107  -1.6e-05  1.036458  0.0  0.093218  -1.2e-05  1.036397  0.0  0.093969  0.089659  -1.2e-05  1.036554  0.0
H  H19  1  0.00952237  0.81520970  0.64867288  1  0.083759  8.1e-05  0.973826  0.0  0.093545  2.3e-05  1.038648  0.0  0.096599  4e-06  1.036761  0.0  0.095901  0.091281  2.3e-05  1.040091  0.0
H  H20  1  0.99048167  0.18479287  0.35133042  1  0.083789  8.2e-05  0.9739  0.0  0.093573  2.3e-05  1.038714  0.0  0.096622  3e-06  1.03684  0.0  0.09591  0.091307  2.3e-05  1.040158  0.0
H  H21  1  0.75052666  0.72548193  0.68000650  1  0.084009  -5e-06  0.969687  0.0  0.095066  -7e-06  1.031086  0.0  0.097312  -5e-06  1.031311  0.0  0.09532  0.093477  -4e-06  1.030899  0.0
H  H22  1  0.24947845  0.27452161  0.31999448  1  0.083945  -9e-06  0.969726  0.0  0.09501  -7e-06  1.031125  0.0  0.097257  -5e-06  1.03135  0.0  0.095297  0.093419  -4e-06  1.030946  0.0
H  H23  1  0.74166134  0.61474313  0.49797345  1  0.085057  4e-06  0.962067  0.0  0.097699  3e-06  1.020674  0.0  0.099857  2e-06  1.020744  0.0  0.097598  0.096186  4e-06  1.020551  0.0
H  H24  1  0.25833410  0.38526422  0.50202593  1  0.085096  1.1e-05  0.962102  0.0  0.097751  3e-06  1.020672  0.0  0.099909  2e-06  1.020742  0.0  0.097616  0.096239  4e-06  1.020547  0.0
H  H25  1  0.99159776  0.59200723  0.28566813  1  0.084042  -5e-06  0.958314  0.0  0.096412  3e-06  1.021901  0.0  0.099223  4e-06  1.020829  0.0  0.09819  0.094281  6e-06  1.022815  0.0
H  H26  1  0.00840478  0.40800198  0.71433270  1  0.084205  1e-06  0.958285  0.0  0.096544  3e-06  1.021849  0.0  0.099356  4e-06  1.020775  0.0  0.098249  0.094406  6e-06  1.022771  0.0
H  H27  1  0.99639273  0.98342680  0.27519389  1  0.078829  0.000115  0.980189  -0.001  0.084518  0.000264  1.048137  0.0  0.087015  0.000233  1.045065  0.0  0.119471  0.082372  0.000284  1.050885  0.0
H  H28  1  0.00360988  0.01658247  0.72480037  1  0.078835  0.000112  0.980226  -0.001  0.084517  0.000264  1.048173  0.0  0.087011  0.000233  1.045105  0.0  0.119489  0.082371  0.000284  1.050924  0.0
H  H29  1  0.78342991  0.98643883  0.50010012  1  0.102258  0.000267  0.967624  0.0  0.113428  1.4e-05  1.027513  0.0  0.116134  9e-06  1.027396  0.0  0.107292  0.111374  4e-06  1.027926  0.0
H  H30  1  0.21657670  0.01356377  0.49989871  1  0.102318  0.00026  0.967649  0.0  0.113491  1.4e-05  1.027526  0.0  0.116199  9e-06  1.027404  0.0  0.107337  0.111439  4e-06  1.027938  0.0
H  H31  1  0.39928471  0.00712163  0.31528305  1  0.11128  0.000256  0.977191  0.0  0.117769  1.6e-05  1.04394  0.0  0.121961  2.2e-05  1.041333  0.0  0.105836  0.114522  1.4e-05  1.046274  0.0
H  H32  1  0.60072099  0.99285734  0.68472059  1  0.111307  0.000256  0.977198  0.0  0.117814  1.6e-05  1.043917  0.0  0.122042  2.2e-05  1.04127  0.0  0.105861  0.114569  1.4e-05  1.046247  0.0
H  H33  1  0.62746072  0.99409411  0.10124495  1  0.086212  0.000129  0.972424  -0.001  0.091842  0.000293  1.039683  0.0  0.094996  0.000241  1.03572  0.0  0.119868  0.089078  0.000324  1.043275  0.0
H  H34  1  0.37253849  0.00589154  0.89875295  1  0.086124  0.000126  0.972651  -0.001  0.091879  0.000293  1.039762  0.0  0.095039  0.000241  1.035785  0.0  0.119857  0.089097  0.000324  1.043377  0.0
H  H35  1  0.80988323  0.54889987  0.03056687  1  0.103549  -0.000381  0.974229  -0.001  0.123632  -0.00047  1.039816  -0.001  0.123286  -0.000334  1.043284  0.0  0.087721  0.124018  -0.000627  1.03733  -0.001
H  H36  1  0.19011861  0.45109615  0.96943244  1  0.103533  -0.000382  0.974237  -0.001  0.123616  -0.00047  1.03983  -0.001  0.12327  -0.000334  1.043297  0.0  0.087708  0.124003  -0.000627  1.037344  -0.001
H  H37  1  0.96074630  0.59325670  0.87068404  1  0.102046  0.000137  0.959247  0.0  0.123897  3.5e-05  1.021159  0.0  0.124683  3e-05  1.022199  0.0  0.086442  0.123369  3.8e-05  1.020386  0.0
H  H38  1  0.03925658  0.40674026  0.12931483  1  0.101989  0.000132  0.959337  0.0  0.123826  3.5e-05  1.02125  0.0  0.124609  3e-05  1.022288  0.0  0.08643  0.1233  3.8e-05  1.020474  0.0
H  H39  1  0.74764267  0.67730674  0.92261196  1  0.093035  0.000126  0.969441  0.0  0.115319  1.6e-05  1.030066  0.0  0.116187  1.4e-05  1.030014  0.0  0.0849  0.114838  1.9e-05  1.029909  0.0
H  H40  1  0.25235813  0.32268834  0.07738685  1  0.093029  0.000129  0.96938  0.0  0.115321  1.6e-05  1.029995  0.0  0.116189  1.4e-05  1.029944  0.0  0.084885  0.114841  1.9e-05  1.029838  0.0
H  H41  1  0.79938619  0.74879664  0.11718207  1  0.023672  0.000154  0.936896  0.0  0.037492  0.000107  1.0053  0.0  0.036658  0.000141  1.006185  0.0  0.086422  0.038458  6e-05  1.00433  0.0
H  H42  1  0.20061166  0.25120034  0.88281635  1  0.023724  0.00015  0.936847  0.0  0.03753  0.000107  1.005267  0.0  0.036698  0.000141  1.006151  0.0  0.086427  0.038491  6e-05  1.004304  0.0
H  H43  1  0.01762814  0.67759368  0.05125790  1  0.045955  0.000126  0.926564  0.0  0.061265  0.000111  0.992451  0.0  0.06127  0.000106  0.99211  0.0  0.097844  0.061221  0.000111  0.992814  0.0
H  H44  1  0.98236945  0.32240421  0.94874419  1  0.045928  0.000133  0.926639  0.0  0.061273  0.000111  0.992477  0.0  0.061276  0.000106  0.992143  0.0  0.097872  0.061231  0.000111  0.99284  0.0
H  H45  1  0.84786936  0.87852606  0.90752433  1  0.351831  0.000864  0.946792  0.001  0.32702  0.00039  1.021501  0.0  0.338011  0.000463  1.009696  0.0  0.287001  0.319492  0.000302  1.029315  0.0
H  H46  1  0.15213078  0.12147185  0.09247423  1  0.351796  0.000863  0.94675  0.001  0.326989  0.000389  1.021452  0.0  0.337981  0.000463  1.009646  0.0  0.28698  0.319463  0.000302  1.029265  0.0
C  C47  1  0.26721046  0.90223943  0.12077808  1  0.670965  0.00378  3.826162  0.001  0.627256  0.00267  4.140132  0.002  0.662441  0.001104  4.134086  0.0  0.210203  0.60316  0.003434  4.143338  0.002
C  C48  1  0.73279157  0.09776132  0.87921952  1  0.671034  0.003768  3.826108  0.001  0.627341  0.00267  4.140086  0.002  0.662523  0.001104  4.134034  0.0  0.210246  0.603243  0.003434  4.143299  0.002
C  C49  1  0.38267812  0.78641044  0.15843336  1  -0.28055  0.00176  3.663249  0.001  -0.328259  0.000757  3.914573  0.0  -0.334716  0.00035  3.923983  0.0  -0.161146  -0.323522  0.000864  3.907683  0.0
C  C50  1  0.61732493  0.21359124  0.84156474  1  -0.28049  0.001775  3.663135  0.001  -0.328261  0.000757  3.914552  0.0  -0.334695  0.000351  3.923934  0.0  -0.161159  -0.323526  0.000864  3.907665  0.0
C  C51  1  0.29634722  0.66942994  0.21721970  1  -0.02714  0.000121  3.673041  0.0  -0.037467  7.9e-05  3.895461  0.0  -0.036786  0.000116  3.909306  0.0  -0.077239  -0.037919  6.9e-05  3.886253  0.0
C  C52  1  0.70365431  0.33057266  0.78278243  1  -0.027206  0.000138  3.673036  0.0  -0.037561  7.9e-05  3.895591  0.0  -0.036884  0.000115  3.909433  0.0  -0.077268  -0.038009  6.9e-05  3.88638  0.0
C  C53  1  0.42924291  0.55604817  0.23493860  1  0.066919  2e-05  3.71912  0.0  0.08783  1e-06  3.948822  0.0  0.087271  -5e-06  3.97394  0.0  -0.009442  0.088133  1e-06  3.932006  0.0
C  C54  1  0.57075529  0.44395255  0.76506289  1  0.067041  -8e-06  3.719014  0.0  0.087917  3e-06  3.948789  0.0  0.087357  -3e-06  3.973909  0.0  -0.009452  0.088218  1e-06  3.931974  0.0
C  C55  1  0.46168745  0.45123762  0.16325232  1  -0.135733  5.6e-05  3.775602  0.0  -0.154824  2e-06  4.020714  0.0  -0.157814  -2e-06  4.042328  0.0  -0.09758  -0.152773  -1.7e-05  4.006192  0.0
C  C56  1  0.53830126  0.54876595  0.83675141  1  -0.135713  4.8e-05  3.775577  0.0  -0.154805  1e-06  4.020682  0.0  -0.157793  -4e-06  4.042292  0.0  -0.097538  -0.152754  -1.7e-05  4.00616  0.0
C  C57  1  0.58821125  0.34773550  0.17146465  1  -0.071248  -1.4e-05  3.775011  0.0  -0.082807  7e-06  4.023166  0.0  -0.084181  7e-06  4.043781  0.0  -0.097486  -0.081845  2.9e-05  4.009099  0.0
C  C58  1  0.41177835  0.65226429  0.82853847  1  -0.07129  3.6e-05  3.775155  0.0  -0.082843  8e-06  4.023297  0.0  -0.08422  8e-06  4.043914  0.0  -0.097506  -0.081879  2.9e-05  4.009227  0.0
C  C59  1  0.68433246  0.34740633  0.25304451  1  -0.076503  0.000111  3.772817  0.0  -0.090256  2e-05  4.018659  0.0  -0.092653  2.1e-05  4.040822  0.0  -0.097354  -0.088538  -1.2e-05  4.003601  0.0
C  C60  1  0.31566095  0.65259349  0.74695473  1  -0.076464  6.5e-05  3.772852  0.0  -0.090212  1.9e-05  4.018681  0.0  -0.09261  2e-05  4.040858  0.0  -0.097357  -0.088494  -1.2e-05  4.003617  0.0
C  C61  1  0.65236541  0.45099654  0.32610108  1  -0.086768  -3.4e-05  3.806069  0.0  -0.096894  -2.4e-05  4.05111  0.0  -0.098729  -1.5e-05  4.073076  0.0  -0.098939  -0.095523  -2.1e-05  4.036312  0.0
C  C62  1  0.34763389  0.54900517  0.67389527  1  -0.08688  -4.9e-05  3.805954  0.0  -0.097018  -2.3e-05  4.051026  0.0  -0.098865  -1.5e-05  4.072987  0.0  -0.098983  -0.095647  -2.1e-05  4.036228  0.0
C  C63  1  0.52602625  0.55445571  0.31716366  1  -0.125114  8.7e-05  3.753915  0.0  -0.142669  2.8e-05  3.997117  0.0  -0.145543  1.6e-05  4.019005  0.0  -0.095944  -0.140792  2.6e-05  3.982184  0.0
C  C64  1  0.47397619  0.44554314  0.68283504  1  -0.125139  0.000121  3.753766  0.0  -0.14267  2.6e-05  3.996963  0.0  -0.145544  1.4e-05  4.018858  0.0  -0.095913  -0.140793  2.6e-05  3.982033  0.0
C  C65  1  0.14329308  0.69040397  0.34600199  1  0.066678  6.8e-05  3.710814  0.0  0.08599  6.1e-05  3.942633  0.0  0.086125  4.3e-05  3.967048  0.0  -0.009452  0.085806  6.9e-05  3.926148  0.0
C  C66  1  0.85670678  0.30960054  0.65399845  1  0.066759  7.4e-05  3.710728  0.0  0.086073  6.1e-05  3.942558  0.0  0.086207  4.3e-05  3.966978  0.0  -0.009442  0.085888  6.9e-05  3.926073  0.0
C  C67  1  0.14550378  0.75416786  0.44914183  1  -0.131393  5.6e-05  3.749594  0.0  -0.148606  3.3e-05  3.99331  0.0  -0.152658  2.1e-05  4.016798  0.0  -0.099782  -0.145726  5e-05  3.97718  0.0
C  C68  1  0.85449795  0.24583946  0.55085859  1  -0.131208  4.2e-05  3.749602  0.0  -0.14843  3.3e-05  3.993307  0.0  -0.152482  2.1e-05  4.016793  0.0  -0.099732  -0.14555  5e-05  3.977176  0.0
C  C69  1  0.00516122  0.76673056  0.56868385  1  -0.079001  0.00012  3.790216  0.0  -0.088013  5.1e-05  4.034635  0.0  -0.089899  1.5e-05  4.05668  0.0  -0.097861  -0.086544  7.4e-05  4.019483  0.0
C  C70  1  0.99483866  0.23327396  0.43131471  1  -0.079132  0.000115  3.790094  0.0  -0.088138  5.1e-05  4.034512  0.0  -0.090028  1.5e-05  4.056558  0.0  -0.097912  -0.086668  7.4e-05  4.019361  0.0
C  C71  1  0.85977823  0.71644324  0.58671358  1  -0.080946  -6.4e-05  3.785485  0.0  -0.094957  -1.1e-05  4.032371  0.0  -0.097874  -1.2e-05  4.055255  0.0  -0.097662  -0.092907  -6e-06  4.016641  0.0
C  C72  1  0.14022372  0.28356315  0.41328598  1  -0.080849  -5.2e-05  3.785342  0.0  -0.094863  -1.1e-05  4.032227  0.0  -0.097779  -1.1e-05  4.05511  0.0  -0.097644  -0.092814  -6e-06  4.016495  0.0
C  C73  1  0.85498169  0.65430879  0.48408123  1  -0.064099  3.5e-05  3.783149  0.0  -0.075883  2.6e-05  4.029273  0.0  -0.077512  6e-06  4.051819  0.0  -0.092257  -0.074441  5.4e-05  4.013646  0.0
C  C74  1  0.14501958  0.34570041  0.51592090  1  -0.064172  1.6e-05  3.783274  0.0  -0.075962  2.6e-05  4.029375  0.0  -0.077589  6e-06  4.051919  0.0  -0.092309  -0.074521  5.4e-05  4.013746  0.0
C  C75  1  0.99550376  0.64162050  0.36511173  1  -0.111685  7.5e-05  3.736712  0.0  -0.133138  3.8e-05  3.984566  0.0  -0.136006  2.6e-05  4.006103  0.0  -0.090715  -0.131121  5e-05  3.969989  0.0
C  C76  1  0.00449627  0.35838872  0.63488888  1  -0.11192  5.3e-05  3.736691  0.0  -0.133327  3.9e-05  3.98453  0.0  -0.136196  2.6e-05  4.006064  0.0  -0.090729  -0.131305  5e-05  3.969962  0.0
C  C77  1  0.86300926  0.98734144  0.28790955  1  0.127698  0.02038  3.672587  0.013  0.097279  0.00759  3.928021  0.004  0.109192  0.005074  3.940915  0.003  0.045488  0.088791  0.008174  3.921286  0.004
C  C78  1  0.13699024  0.01265931  0.71208876  1  0.127854  0.02041  3.672519  0.013  0.097442  0.00759  3.927982  0.004  0.109358  0.005075  3.940879  0.003  0.045523  0.088941  0.008174  3.921244  0.004
C  C79  1  0.74030201  0.99051466  0.41534720  1  -0.150282  -0.002917  3.718028  -0.005  -0.168432  0.000285  3.962242  -0.001  -0.175852  -0.000311  3.980349  -0.001  -0.079662  -0.164246  0.001516  3.95149  0.0
C  C80  1  0.25970296  0.00948419  0.58465080  1  -0.150443  -0.002921  3.71811  -0.005  -0.168593  0.000286  3.962295  -0.001  -0.176016  -0.00031  3.980399  -0.001  -0.079751  -0.16441  0.001517  3.951548  0.0
C  C81  1  0.56679154  0.99778219  0.43305729  1  0.091245  0.023175  3.764102  0.014  0.104455  0.009175  3.988752  0.005  0.111849  0.005137  4.00476  0.003  0.00698  0.099048  0.011651  3.978808  0.006
C  C82  1  0.43321304  0.00221288  0.56694139  1  0.091232  0.023195  3.763949  0.014  0.104478  0.009173  3.988558  0.005  0.111874  0.005135  4.00457  0.003  0.007045  0.099073  0.01165  3.978617  0.006
C  C83  1  0.52889876  0.00007406  0.31532160  1  -0.159357  -0.00289  3.710288  -0.005  -0.178017  0.000372  3.958113  -0.001  -0.184674  -0.000203  3.973168  -0.001  -0.083574  -0.174286  0.001618  3.949197  0.0
C  C84  1  0.47110709  0.99991530  0.68468040  1  -0.15942  -0.002906  3.71017  -0.005  -0.178122  0.000372  3.958063  -0.001  -0.184812  -0.000202  3.973097  -0.001  -0.083639  -0.174392  0.001619  3.949148  0.0
C  C85  1  0.65857246  0.99468287  0.19103307  1  0.115338  0.020564  3.679354  0.013  0.086158  0.007779  3.934525  0.004  0.098102  0.00549  3.946201  0.003  0.042726  0.07781  0.00835  3.928509  0.005
C  C86  1  0.34143066  0.00530746  0.80896768  1  0.115565  0.020596  3.679496  0.013  0.086316  0.007778  3.934624  0.004  0.098258  0.00549  3.946314  0.003  0.042847  0.077968  0.008348  3.928612  0.005
C  C87  1  0.85326326  0.62920306  0.95819540  1  -0.341831  -0.001656  3.714349  -0.002  -0.418065  -0.001345  3.956976  -0.002  -0.421412  -0.000891  3.968051  -0.001  -0.254663  -0.415368  -0.001886  3.948638  -0.002
C  C88  1  0.14673963  0.37079391  0.04180254  1  -0.341717  -0.001649  3.714321  -0.002  -0.417925  -0.001345  3.956955  -0.002  -0.421268  -0.000891  3.968027  -0.001  -0.254613  -0.415231  -0.001886  3.948616  -0.002
C  C89  1  0.90407249  0.72074786  0.02375442  1  0.19642  0.000163  3.645308  0.0  0.146361  -0.00066  3.918052  -0.001  0.155551  -0.000339  3.925047  0.0  -0.079464  0.139868  -0.001041  3.912585  -0.001
C  C90  1  0.09592638  0.27925004  0.97624544  1  0.19633  0.000159  3.645323  0.0  0.146261  -0.000661  3.918087  -0.001  0.155451  -0.000338  3.925078  0.0  -0.079495  0.13977  -0.001041  3.912627  -0.001
N  N91  1  0.82521408  0.98984734  0.17490361  1  -0.241586  0.017632  3.344133  0.012  -0.19354  0.011359  3.623747  0.008  -0.216638  0.008422  3.637342  0.006  -0.337678  -0.181296  0.013016  3.616375  0.01
N  N92  1  0.17478925  0.01014775  0.82509355  1  -0.241868  0.017615  3.344162  0.012  -0.193864  0.011359  3.62387  0.008  -0.216971  0.008422  3.63747  0.006  -0.337817  -0.181579  0.013017  3.61646  0.01
O  O93  1  0.16249176  0.88046467  0.06876030  1  -0.564171  0.018615  2.155718  0.014  -0.536485  0.004395  2.443735  0.003  -0.576325  0.006658  2.43767  0.006  -0.298392  -0.509103  0.00273  2.446265  0.002
O  O94  1  0.83750940  0.11953416  0.93124064  1  -0.564247  0.018621  2.155688  0.014  -0.536515  0.004396  2.443715  0.003  -0.576356  0.006657  2.437646  0.006  -0.298403  -0.509134  0.00273  2.446249  0.002
O  O95  1  0.28422647  0.01026582  0.13921847  1  -0.614051  0.002289  1.932966  0.002  -0.562952  0.001313  2.153212  0.001  -0.587995  0.001113  2.144303  0.001  -0.319372  -0.545468  0.001484  2.158746  0.001
O  O96  1  0.71577578  0.98973400  0.86077828  1  -0.614087  0.002294  1.932991  0.002  -0.562982  0.001314  2.153216  0.001  -0.588027  0.001113  2.144314  0.001  -0.319366  -0.545497  0.001484  2.158754  0.001
O  O97  1  0.94916008  0.83027437  0.93301328  1  -0.558624  -0.02531  2.183734  -0.046  -0.511019  -0.023692  2.43647  -0.041  -0.536133  -0.018706  2.425619  -0.033  -0.396143  -0.491372  -0.029296  2.441975  -0.05
O  O98  1  0.05083880  0.16972353  0.06698658  1  -0.558534  -0.025309  2.183627  -0.046  -0.510982  -0.023692  2.436441  -0.041  -0.536095  -0.018706  2.42559  -0.033  -0.396128  -0.491329  -0.029296  2.44193  -0.05
