# generated using pymatgen
data_AgH6C8N3
_symmetry_space_group_name_H-M   'P 1'
_cell_length_a   6.42018617
_cell_length_b   8.54207758
_cell_length_c   13.67270560
_cell_angle_alpha   89.99857887
_cell_angle_beta   90.00167013
_cell_angle_gamma   95.49892598
_symmetry_Int_Tables_number   1
_chemical_formula_structural   AgH6C8N3
_chemical_formula_sum   'Ag4 H24 C32 N12'
_cell_volume   746.38406271
_cell_formula_units_Z   4
loop_
 _symmetry_equiv_pos_site_id
 _symmetry_equiv_pos_as_xyz
  1  'x, y, z'
loop_
 _atom_site_type_symbol
 _atom_site_label
 _atom_site_symmetry_multiplicity
 _atom_site_fract_x
 _atom_site_fract_y
 _atom_site_fract_z
 _atom_site_occupancy
 _atom_site_hle17_bader_spin_density
 _atom_site_hle17_ddec_charge
 _atom_site_hle17_ddec_spin_density
 _atom_site_hle17_ddec_sum_bond_order
 _atom_site_hle17_magmom
 _atom_site_hse06_10hf_bader_spin_density
 _atom_site_hse06_10hf_ddec_charge
 _atom_site_hse06_10hf_ddec_spin_density
 _atom_site_hse06_10hf_ddec_sum_bond_order
 _atom_site_hse06_10hf_magmom
 _atom_site_hse06_bader_spin_density
 _atom_site_hse06_ddec_charge
 _atom_site_hse06_ddec_spin_density
 _atom_site_hse06_ddec_sum_bond_order
 _atom_site_hse06_magmom
 _atom_site_pbe_bader_spin_density
 _atom_site_pbe_cm5_charge
 _atom_site_pbe_ddec_charge
 _atom_site_pbe_ddec_spin_density
 _atom_site_pbe_ddec_sum_bond_order
 _atom_site_pbe_magmom
Ag  Ag0  1  0.15763708  0.73139395  0.45890897  1  0  0.468548  0  1.577216  0  0  0.331622  0  2.013232  0  0  0.356616  0  1.977348  0  0  0.47963  0.31303  0  2.038539  0
Ag  Ag1  1  0.34240440  0.76858874  0.95890171  1  0  0.468528  0  1.577284  0  0  0.331583  0  2.013276  0  0  0.356563  0  1.977435  0  0  0.47958  0.312987  0  2.038567  0
Ag  Ag2  1  0.84238887  0.26859291  0.54110066  1  0  0.468528  0  1.577281  0  0  0.331586  0  2.01326  0  0  0.356593  0  1.977372  0  0  0.479606  0.312995  0  2.038562  0
Ag  Ag3  1  0.65756223  0.23140971  0.04108890  1  0  0.468454  0  1.577225  0  0  0.331468  0  2.013211  0  0  0.356468  0  1.977344  0  0  0.479535  0.312866  0  2.038506  0
H  H4  1  0.89336037  0.89580094  0.61108822  1  0  0.083188  0  0.996025  0  0  0.092183  0  1.063575  0  0  0.093749  0  1.063746  0  0  0.102833  0.091155  0  1.063468  0
H  H5  1  0.60670670  0.60420241  0.11111455  1  0  0.083379  0  0.995758  0  0  0.092369  0  1.063253  0  0  0.093933  0  1.063426  0  0  0.102898  0.091341  0  1.063139  0
H  H6  1  0.10665721  0.10418120  0.38891702  1  0  0.083249  0  0.995921  0  0  0.092204  0  1.063522  0  0  0.093769  0  1.063696  0  0  0.102822  0.091176  0  1.063411  0
H  H7  1  0.39325767  0.39580308  0.88887680  1  0  0.083386  0  0.995777  0  0  0.092329  0  1.06331  0  0  0.093892  0  1.063487  0  0  0.102868  0.091303  0  1.063195  0
H  H8  1  0.46613667  0.91347295  0.60070959  1  0  0.090786  0  0.952933  0  0  0.10404  0  1.010782  0  0  0.105682  0  1.010737  0  0  0.109346  0.102963  0  1.01081  0
H  H9  1  0.03392959  0.58651599  0.10071763  1  0  0.090802  0  0.953129  0  0  0.104175  0  1.010731  0  0  0.105821  0  1.01068  0  0  0.10938  0.103097  0  1.010753  0
H  H10  1  0.53389269  0.08651627  0.39929053  1  0  0.090786  0  0.952779  0  0  0.104063  0  1.01061  0  0  0.105708  0  1.01056  0  0  0.109317  0.102984  0  1.010637  0
H  H11  1  0.96602740  0.41348008  0.89928249  1  0  0.090819  0  0.9533  0  0  0.104194  0  1.010898  0  0  0.10584  0  1.010849  0  0  0.109405  0.103118  0  1.010916  0
H  H12  1  0.31136916  0.37101014  0.20137388  1  0  0.066482  0  0.95162  0  0  0.075056  0  1.016092  0  0  0.077413  0  1.014404  0  0  0.105519  0.073262  0  1.017493  0
H  H13  1  0.18862092  0.12899180  0.70136615  1  0  0.0665  0  0.951614  0  0  0.075106  0  1.016049  0  0  0.077464  0  1.014359  0  0  0.105551  0.073311  0  1.017454  0
H  H14  1  0.68866746  0.62900026  0.79862625  1  0  0.066283  0  0.951791  0  0  0.074948  0  1.016199  0  0  0.077305  0  1.014507  0  0  0.105505  0.073156  0  1.0176  0
H  H15  1  0.81133745  0.87099016  0.29861495  1  0  0.06637  0  0.95164  0  0  0.075054  0  1.016016  0  0  0.077414  0  1.014324  0  0  0.105483  0.073253  0  1.017418  0
H  H16  1  0.31110231  0.57217582  0.33154531  1  0  0.087154  0  1.006504  0  0  0.09602  0  1.079827  0  0  0.100291  0  1.075814  0  0  0.090992  0.092988  0  1.082784  0
H  H17  1  0.18891275  0.92783065  0.83154548  1  0  0.087017  0  1.006456  0  0  0.095894  0  1.079791  0  0  0.100153  0  1.075811  0  0  0.09094  0.092869  0  1.082726  0
H  H18  1  0.68892595  0.42782986  0.66845847  1  0  0.087136  0  1.006509  0  0  0.095995  0  1.079792  0  0  0.100231  0  1.075881  0  0  0.091009  0.092971  0  1.082719  0
H  H19  1  0.81107214  0.07216432  0.16844001  1  0  0.087139  0  1.006372  0  0  0.095989  0  1.079732  0  0  0.100252  0  1.075743  0  0  0.091012  0.092957  0  1.082675  0
H  H20  1  0.96253031  0.50643911  0.38202264  1  0  0.078522  0  1.022309  0  0  0.083767  0  1.105476  0  0  0.08909  0  1.098708  0  0  0.08493  0.079806  0  1.110759  0
H  H21  1  0.53748291  0.99355351  0.88202095  1  0  0.078596  0  1.022331  0  0  0.083886  0  1.10536  0  0  0.089209  0  1.098587  0  0  0.08495  0.079925  0  1.110639  0
H  H22  1  0.03750233  0.49356423  0.61797602  1  0  0.078592  0  1.022332  0  0  0.083903  0  1.105325  0  0  0.08923  0  1.098545  0  0  0.084996  0.079942  0  1.110607  0
H  H23  1  0.46251123  0.00646618  0.11798795  1  0  0.078619  0  1.022314  0  0  0.083887  0  1.105375  0  0  0.089207  0  1.098603  0  0  0.084984  0.079924  0  1.110662  0
H  H24  1  0.93495425  0.31072298  0.24911266  1  0  0.064368  0  0.957905  0  0  0.073279  0  1.023722  0  0  0.075138  0  1.022919  0  0  0.105154  0.071912  0  1.024375  0
H  H25  1  0.56503061  0.18927694  0.74910868  1  0  0.064471  0  0.957731  0  0  0.073397  0  1.023525  0  0  0.075256  0  1.02272  0  0  0.105224  0.072029  0  1.024176  0
H  H26  1  0.06506748  0.68928033  0.75088746  1  0  0.064372  0  0.957902  0  0  0.073305  0  1.023717  0  0  0.075167  0  1.022908  0  0  0.105196  0.071932  0  1.024362  0
H  H27  1  0.43493119  0.81072032  0.25088193  1  0  0.06442  0  0.957923  0  0  0.073311  0  1.023767  0  0  0.07517  0  1.022965  0  0  0.105228  0.071943  0  1.024415  0
C  C28  1  0.65173890  0.67820391  0.44659281  1  0  0.258238  0  3.787931  0  0  0.236862  0  4.042263  0  0  0.244752  0  4.064288  0  0  0.180129  0.231346  0  4.027048  0
C  C29  1  0.84827862  0.82179264  0.94660079  1  0  0.257971  0  3.787973  0  0  0.236646  0  4.04234  0  0  0.244545  0  4.064358  0  0  0.180006  0.231107  0  4.027147  0
C  C30  1  0.34828281  0.32178647  0.55340951  1  0  0.2578  0  3.788382  0  0  0.236454  0  4.04275  0  0  0.244346  0  4.064771  0  0  0.179898  0.230936  0  4.027552  0
C  C31  1  0.15169770  0.17823405  0.05341177  1  0  0.25778  0  3.788991  0  0  0.236378  0  4.043436  0  0  0.24427  0  4.065467  0  0  0.179927  0.230844  0  4.028229  0
C  C32  1  0.77877435  0.83566178  0.56249550  1  0  -0.027748  0  3.7928  0  0  -0.057613  0  4.05123  0  0  -0.057517  0  4.075032  0  0  -0.02149  -0.057686  0  4.034795  0
C  C33  1  0.72128253  0.66434537  0.06250485  1  0  -0.028219  0  3.79372  0  0  -0.058085  0  4.05225  0  0  -0.057991  0  4.076052  0  0  -0.021701  -0.058157  0  4.035808  0
C  C34  1  0.22125714  0.16433216  0.43751339  1  0  -0.027781  0  3.793316  0  0  -0.057608  0  4.051703  0  0  -0.057515  0  4.075511  0  0  -0.02145  -0.057677  0  4.035262  0
C  C35  1  0.27867676  0.33566951  0.93748868  1  0  -0.027985  0  3.793273  0  0  -0.057805  0  4.051782  0  0  -0.057711  0  4.07559  0  0  -0.021481  -0.05788  0  4.035343  0
C  C36  1  0.56479956  0.84447852  0.55720526  1  0  -0.00138  0  3.788315  0  0  -0.034109  0  4.048461  0  0  -0.033279  0  4.072589  0  0  -0.013681  -0.034647  0  4.031771  0
C  C37  1  0.93523279  0.65552166  0.05721709  1  0  -0.001221  0  3.788787  0  0  -0.033984  0  4.048935  0  0  -0.03315  0  4.073068  0  0  -0.013468  -0.034519  0  4.032238  0
C  C38  1  0.43520969  0.15551182  0.44280145  1  0  -0.001418  0  3.788586  0  0  -0.03416  0  4.048717  0  0  -0.033331  0  4.072855  0  0  -0.013613  -0.034691  0  4.032016  0
C  C39  1  0.06471955  0.34448732  0.94278961  1  0  -0.001477  0  3.789246  0  0  -0.034253  0  4.049394  0  0  -0.033421  0  4.073529  0  0  -0.013669  -0.034791  0  4.032698  0
C  C40  1  0.45368891  0.40442472  0.24323245  1  0  0.116943  0  3.751065  0  0  0.093875  0  4.000783  0  0  0.100867  0  4.01814  0  0  0.034193  0.089212  0  3.988976  0
C  C41  1  0.04631552  0.09557247  0.74322766  1  0  0.116952  0  3.751112  0  0  0.093841  0  4.000835  0  0  0.100834  0  4.018187  0  0  0.034097  0.089177  0  3.989035  0
C  C42  1  0.54633934  0.59558096  0.75676987  1  0  0.117253  0  3.750761  0  0  0.094062  0  4.000518  0  0  0.101066  0  4.017856  0  0  0.034233  0.089392  0  3.988715  0
C  C43  1  0.95368198  0.90442372  0.25676515  1  0  0.116867  0  3.751316  0  0  0.093722  0  4.000997  0  0  0.100712  0  4.018357  0  0  0.034146  0.089066  0  3.989183  0
C  C44  1  0.45448331  0.51756622  0.31632233  1  0  -0.152186  0  3.700984  0  0  -0.167579  0  3.942382  0  0  -0.175028  0  3.962236  0  0  -0.091466  -0.162789  0  3.929275  0
C  C45  1  0.04550653  0.98243241  0.81632094  1  0  -0.152071  0  3.700769  0  0  -0.167388  0  3.942217  0  0  -0.174836  0  3.962065  0  0  -0.091296  -0.162598  0  3.929108  0
C  C46  1  0.54554706  0.48243124  0.68367779  1  0  -0.152205  0  3.701066  0  0  -0.167508  0  3.94258  0  0  -0.174969  0  3.96241  0  0  -0.091416  -0.162699  0  3.929474  0
C  C47  1  0.95445600  0.01757073  0.18367406  1  0  -0.151952  0  3.701098  0  0  -0.167282  0  3.942573  0  0  -0.174731  0  3.962424  0  0  -0.091359  -0.162486  0  3.929465  0
C  C48  1  0.63941507  0.56112040  0.36911238  1  0  0.065519  0  3.776289  0  0  0.074616  0  4.012007  0  0  0.080525  0  4.031382  0  0  0.009474  0.070591  0  3.999077  0
C  C49  1  0.86059178  0.93887730  0.86911481  1  0  0.065763  0  3.775967  0  0  0.074672  0  4.011908  0  0  0.080577  0  4.031288  0  0  0.009424  0.070657  0  3.998965  0
C  C50  1  0.36061569  0.43886765  0.63089359  1  0  0.065562  0  3.776582  0  0  0.074519  0  4.012463  0  0  0.080433  0  4.03184  0  0  0.009293  0.070466  0  3.999579  0
C  C51  1  0.13938154  0.06113763  0.13088970  1  0  0.065623  0  3.776348  0  0  0.074532  0  4.012311  0  0  0.08044  0  4.031686  0  0  0.009334  0.07051  0  3.999372  0
C  C52  1  0.81446663  0.48226055  0.34343763  1  0  -0.161655  0  3.750378  0  0  -0.179367  0  4.001947  0  0  -0.185617  0  4.018899  0  0  -0.095691  -0.17537  0  3.990967  0
C  C53  1  0.68554342  0.01773423  0.84343548  1  0  -0.161807  0  3.750546  0  0  -0.179474  0  4.002209  0  0  -0.185716  0  4.019151  0  0  -0.095706  -0.175478  0  3.991228  0
C  C54  1  0.18557196  0.51774045  0.65656176  1  0  -0.161667  0  3.750655  0  0  -0.17936  0  4.002316  0  0  -0.185605  0  4.019253  0  0  -0.095653  -0.175368  0  3.991369  0
C  C55  1  0.31444336  0.98228896  0.15656538  1  0  -0.161569  0  3.750059  0  0  -0.179182  0  4.001638  0  0  -0.185423  0  4.018579  0  0  -0.095584  -0.175194  0  3.990676  0
C  C56  1  0.79906204  0.37165081  0.26894555  1  0  0.113976  0  3.757962  0  0  0.092943  0  4.001976  0  0  0.099455  0  4.019361  0  0  0.032525  0.088594  0  3.990135  0
C  C57  1  0.70093396  0.12834149  0.76894094  1  0  0.113767  0  3.757912  0  0  0.092714  0  4.001944  0  0  0.099228  0  4.01932  0  0  0.032389  0.088368  0  3.990102  0
C  C58  1  0.20096151  0.62834192  0.73105237  1  0  0.113876  0  3.758212  0  0  0.092819  0  4.002223  0  0  0.099331  0  4.019604  0  0  0.032483  0.088488  0  3.990363  0
C  C59  1  0.29905095  0.87166642  0.23105772  1  0  0.113709  0  3.758149  0  0  0.092681  0  4.002177  0  0  0.099192  0  4.019561  0  0  0.032339  0.088332  0  3.990334  0
N  N60  1  0.48559167  0.74625998  0.48439188  1  0  -0.402441  0  3.342411  0  0  -0.316349  0  3.628597  0  0  -0.337355  0  3.648731  0  0  -0.384765  -0.300833  0  3.613863  0
N  N61  1  0.01444997  0.75373723  0.98439701  1  0  -0.402247  0  3.342074  0  0  -0.316205  0  3.628298  0  0  -0.337208  0  3.648414  0  0  -0.384705  -0.30068  0  3.613558  0
N  N62  1  0.51443160  0.25373041  0.51560971  1  0  -0.402139  0  3.342434  0  0  -0.31605  0  3.628583  0  0  -0.337051  0  3.648707  0  0  -0.384608  -0.300529  0  3.613835  0
N  N63  1  0.98555009  0.24626720  0.01560896  1  0  -0.402188  0  3.342697  0  0  -0.316112  0  3.628889  0  0  -0.337123  0  3.649031  0  0  -0.384721  -0.30059  0  3.614152  0
N  N64  1  0.83307428  0.73133664  0.49312576  1  0  -0.405508  0  3.335058  0  0  -0.317448  0  3.615991  0  0  -0.338522  0  3.635859  0  0  -0.387191  -0.301861  0  3.601537  0
N  N65  1  0.66697544  0.76867152  0.99314086  1  0  -0.40545  0  3.335864  0  0  -0.317377  0  3.616762  0  0  -0.338449  0  3.636627  0  0  -0.387209  -0.30179  0  3.602308  0
N  N66  1  0.16695932  0.26864907  0.50688168  1  0  -0.405538  0  3.335604  0  0  -0.317477  0  3.616509  0  0  -0.338551  0  3.636379  0  0  -0.387209  -0.301897  0  3.602068  0
N  N67  1  0.33299461  0.23134222  0.00686365  1  0  -0.405443  0  3.335729  0  0  -0.317278  0  3.616536  0  0  -0.338356  0  3.636417  0  0  -0.387161  -0.30168  0  3.602065  0
N  N68  1  0.62255896  0.33141964  0.21817562  1  0  -0.342754  0  3.206377  0  0  -0.281775  0  3.480153  0  0  -0.296237  0  3.494615  0  0  -0.340403  -0.271644  0  3.469964  0
N  N69  1  0.87744428  0.16856717  0.71817136  1  0  -0.342688  0  3.206381  0  0  -0.281695  0  3.480161  0  0  -0.296154  0  3.494617  0  0  -0.34036  -0.271576  0  3.469988  0
N  N70  1  0.37746673  0.66857781  0.78182304  1  0  -0.34274  0  3.20645  0  0  -0.281769  0  3.480317  0  0  -0.29623  0  3.494775  0  0  -0.3404  -0.271643  0  3.47013  0
N  N71  1  0.12254301  0.83142193  0.28182072  1  0  -0.342617  0  3.206772  0  0  -0.281658  0  3.480572  0  0  -0.296119  0  3.495037  0  0  -0.340326  -0.271531  0  3.47038  0
