# generated using pymatgen
data_CuH16C10N16(ClO3)2
_symmetry_space_group_name_H-M   'P 1'
_cell_length_a   6.81010754
_cell_length_b   8.11892883
_cell_length_c   10.15713755
_cell_angle_alpha   107.55580207
_cell_angle_beta   101.04698301
_cell_angle_gamma   90.93806667
_symmetry_Int_Tables_number   1
_chemical_formula_structural   CuH16C10N16(ClO3)2
_chemical_formula_sum   'Cu1 H16 C10 N16 Cl2 O6'
_cell_volume   523.86413356
_cell_formula_units_Z   1
loop_
 _symmetry_equiv_pos_site_id
 _symmetry_equiv_pos_as_xyz
  1  'x, y, z'
loop_
 _atom_site_type_symbol
 _atom_site_label
 _atom_site_symmetry_multiplicity
 _atom_site_fract_x
 _atom_site_fract_y
 _atom_site_fract_z
 _atom_site_occupancy
 _atom_site_hle17_ddec_charge
 _atom_site_hle17_ddec_spin_density
 _atom_site_hle17_ddec_sum_bond_order
 _atom_site_hle17_magmom
 _atom_site_hse06_10hf_ddec_charge
 _atom_site_hse06_10hf_ddec_spin_density
 _atom_site_hse06_10hf_ddec_sum_bond_order
 _atom_site_hse06_10hf_magmom
 _atom_site_hse06_ddec_charge
 _atom_site_hse06_ddec_spin_density
 _atom_site_hse06_ddec_sum_bond_order
 _atom_site_hse06_magmom
 _atom_site_pbe_cm5_charge
 _atom_site_pbe_ddec_charge
 _atom_site_pbe_ddec_spin_density
 _atom_site_pbe_ddec_sum_bond_order
 _atom_site_pbe_magmom
Cu  Cu0  1  0.49999600  0.99999931  0.50000093  1  0.794463  0.719236  1.916696  0.557  0.744186  0.789426  2.308107  0.651  0.819283  0.845452  2.256192  0.725  0.807679  0.69739  0.748761  2.343772  0.6
H  H1  1  0.67799572  0.40247145  0.56290533  1  0.145096  -0.000242  0.969526  0.0  0.147109  -0.000111  1.039995  0.0  0.150542  -8.1e-05  1.035512  0.0  0.145594  0.14464  -0.000137  1.0429  0.0
H  H2  1  0.32200816  0.59752496  0.43709492  1  0.145074  -0.00024  0.969601  0.0  0.147085  -0.000111  1.040065  0.0  0.150518  -8.2e-05  1.035579  0.0  0.145584  0.144611  -0.000138  1.042971  0.0
H  H3  1  0.84153274  0.67739582  0.74300000  1  0.096197  -1.8e-05  0.939371  0.0  0.104063  2.2e-05  1.011501  0.0  0.105212  1.8e-05  1.010362  0.0  0.116619  0.10382  3e-05  1.011128  0.0
H  H4  1  0.15846505  0.32259929  0.25699521  1  0.096193  -1.7e-05  0.93939  0.0  0.104064  2.2e-05  1.011539  0.0  0.105212  1.8e-05  1.0104  0.0  0.116621  0.103816  3e-05  1.011166  0.0
H  H5  1  0.02900174  0.63580857  0.87566142  1  0.093252  0.000104  0.949036  0.0  0.093794  7.6e-05  1.036448  0.0  0.095406  4.9e-05  1.03447  0.0  0.112387  0.092406  0.000131  1.038183  0.0
H  H6  1  0.97099959  0.36419303  0.12433584  1  0.093205  9.9e-05  0.949056  0.0  0.093775  7.6e-05  1.036437  0.0  0.095389  4.9e-05  1.034459  0.0  0.112356  0.092386  0.000131  1.038177  0.0
H  H7  1  0.82532227  0.87542201  0.97882344  1  0.097929  0.000132  0.923755  0.0  0.113547  7.1e-05  0.983838  0.0  0.114694  4.8e-05  0.983772  0.0  0.104503  0.112549  0.000109  0.984122  0.0
H  H8  1  0.17468045  0.12457831  0.02117368  1  0.097928  0.000123  0.923783  0.0  0.113565  7.1e-05  0.983853  0.0  0.114712  4.8e-05  0.983789  0.0  0.104507  0.112562  0.000109  0.984145  0.0
H  H9  1  0.81453229  0.70084104  0.04715383  1  0.105575  5.4e-05  0.955004  0.0  0.11623  4e-05  1.024173  0.0  0.117926  2.4e-05  1.023625  0.0  0.100823  0.115271  4.9e-05  1.024078  0.0
H  H10  1  0.18547192  0.29915929  0.95284349  1  0.105574  4.4e-05  0.954939  0.0  0.116195  4e-05  1.024167  0.0  0.117903  2.4e-05  1.023607  0.0  0.100818  0.115238  4.9e-05  1.024075  0.0
H  H11  1  0.48278669  0.78841165  0.01602569  1  0.100865  0.000291  0.929572  0.0  0.109038  0.000202  0.999906  0.0  0.110254  0.00013  0.999332  0.0  0.120574  0.108099  0.000257  1.000433  0.0
H  H12  1  0.51721569  0.21158475  0.98397436  1  0.100868  0.000288  0.929581  0.0  0.109039  0.000202  0.999901  0.0  0.110259  0.00013  0.999325  0.0  0.120573  0.1081  0.000257  1.000435  0.0
H  H13  1  0.47423222  0.58993969  0.87980754  1  0.106279  -0.000252  0.929604  0.0  0.115705  -0.000128  0.995665  0.0  0.117102  -0.00013  0.994984  0.0  0.11685  0.11455  -0.000134  0.99637  0.0
H  H14  1  0.52577177  0.41005802  0.12019206  1  0.106302  -0.000258  0.929622  0.0  0.115711  -0.000128  0.995689  0.0  0.117093  -0.00013  0.995027  0.0  0.116842  0.114569  -0.000134  0.996385  0.0
H  H15  1  0.11372653  0.97762036  0.65553458  1  0.130218  -0.000211  0.931212  0.0  0.134842  -8.6e-05  0.991805  0.0  0.137526  -5.6e-05  0.988756  0.0  0.141825  0.132704  -0.000107  0.994281  0.0
H  H16  1  0.88627202  0.02238377  0.34447179  1  0.130212  -0.000208  0.93125  0.0  0.134841  -8.6e-05  0.99183  0.0  0.137525  -5.6e-05  0.988784  0.0  0.141809  0.132706  -0.000107  0.994299  0.0
C  C17  1  0.70378746  0.35411571  0.65311739  1  0.157368  -0.006184  3.619618  -0.002  0.070803  -0.001691  3.906743  0.001  0.085171  -0.003  3.918691  -0.001  0.173943  0.061922  -0.000608  3.898598  0.002
C  C18  1  0.29621503  0.64588197  0.34688496  1  0.157292  -0.006197  3.619614  -0.002  0.07075  -0.001691  3.906731  0.001  0.08512  -0.002999  3.918672  -0.001  0.17394  0.061872  -0.000608  3.898585  0.002
C  C19  1  0.86727904  0.63168612  0.83540118  1  -0.0273  0.000567  3.617949  0.001  -0.106152  0.000411  3.880519  0.0  -0.102654  0.000311  3.891524  0.0  -0.053108  -0.108093  0.000587  3.872425  0.001
C  C20  1  0.13272207  0.36831288  0.16459640  1  -0.027339  0.000565  3.618066  0.001  -0.106211  0.000412  3.880756  0.0  -0.102719  0.000311  3.891771  0.0  -0.053126  -0.108145  0.000587  3.87264  0.001
C  C21  1  0.76769365  0.73960966  0.95192421  1  -0.154244  0.000158  3.676609  0.0  -0.197549  0.000171  3.939118  0.0  -0.200379  9.8e-05  3.953066  0.0  -0.159723  -0.195361  0.000252  3.929014  0.0
C  C22  1  0.23230746  0.26038935  0.04807337  1  -0.154108  0.000203  3.676681  0.0  -0.197397  0.000171  3.939192  0.0  -0.200238  9.8e-05  3.953137  0.0  -0.159656  -0.195193  0.000252  3.929067  0.0
C  C23  1  0.53917739  0.72535253  0.92040022  1  -0.050656  0.000656  3.573303  0.001  -0.108387  0.000472  3.834796  0.001  -0.106131  0.000347  3.845296  0.0  -0.045271  -0.109824  0.000667  3.827875  0.001
C  C24  1  0.46082671  0.27464648  0.07959970  1  -0.050805  0.000664  3.573432  0.001  -0.108503  0.00047  3.834934  0.001  -0.106241  0.000348  3.845443  0.0  -0.045283  -0.109951  0.000667  3.82802  0.001
C  C25  1  0.24628000  0.92337075  0.69789359  1  0.192503  -0.004095  3.630142  0.0  0.140792  -0.000413  3.918635  0.002  0.15151  -0.00165  3.93068  0.0  0.167135  0.133638  0.000579  3.910928  0.003
C  C26  1  0.75372110  0.07662822  0.30211086  1  0.19238  -0.004136  3.630224  0.0  0.140669  -0.000412  3.918718  0.002  0.15139  -0.001653  3.930758  0.0  0.167094  0.13351  0.000579  3.911014  0.003
N  N27  1  0.78907732  0.44988245  0.78455117  1  0.034512  0.002068  3.525308  0.003  0.159016  0.001164  3.708843  0.002  0.147575  0.000999  3.730783  0.001  -0.117277  0.164988  0.001239  3.696296  0.002
N  N28  1  0.21092529  0.55011654  0.21544955  1  0.034614  0.002075  3.525172  0.003  0.159055  0.001161  3.708819  0.002  0.147621  0.001002  3.730744  0.001  -0.11729  0.165025  0.001239  3.696271  0.002
N  N29  1  0.79684477  0.35021246  0.87095403  1  -0.066931  0.006392  2.839241  0.009  -0.074546  0.003298  3.113094  0.005  -0.074213  0.001806  3.12222  0.003  -0.05163  -0.074261  0.004915  3.106938  0.007
N  N30  1  0.20315656  0.64978912  0.12904814  1  -0.066951  0.00641  2.839321  0.009  -0.074518  0.003298  3.113162  0.005  -0.074185  0.001805  3.122285  0.003  -0.051596  -0.074233  0.004915  3.106994  0.007
N  N31  1  0.71857606  0.19709943  0.79334858  1  -0.03532  -0.003117  2.905154  -0.001  -0.038031  -0.000257  3.216275  0.001  -0.032961  -0.001069  3.2265  0.0  -0.067879  -0.041126  0.000374  3.209518  0.001
N  N32  1  0.28142365  0.80290082  0.20665503  1  -0.035478  -0.003147  2.905305  -0.001  -0.038223  -0.000256  3.216445  0.001  -0.033153  -0.001071  3.226667  0.0  -0.067993  -0.041318  0.000374  3.209683  0.001
N  N33  1  0.66024394  0.19561085  0.65709473  1  -0.248659  0.072776  3.25173  0.097  -0.22227  0.050456  3.598596  0.071  -0.251842  0.040688  3.617908  0.061  -0.250469  -0.203933  0.056874  3.586604  0.076
N  N34  1  0.33975716  0.80438812  0.34290874  1  -0.248477  0.072782  3.251731  0.097  -0.222052  0.050461  3.598527  0.071  -0.251623  0.040689  3.617836  0.061  -0.250398  -0.203723  0.056879  3.586537  0.076
N  N35  1  0.26604340  0.86367834  0.80795763  1  -0.24895  0.006906  2.802045  0.009  -0.232161  0.003207  3.07148  0.004  -0.240171  0.002459  3.083207  0.003  -0.18721  -0.226797  0.003936  3.063818  0.005
N  N36  1  0.73395803  0.13632451  0.19204684  1  -0.248917  0.006924  2.802003  0.009  -0.232139  0.003207  3.07144  0.004  -0.240149  0.00246  3.083169  0.003  -0.18722  -0.226779  0.003937  3.063778  0.005
N  N37  1  0.45142759  0.80967198  0.81647959  1  0.234014  0.001112  3.508502  0.003  0.281841  0.001542  3.788053  0.003  0.279627  0.00065  3.807496  0.002  0.007985  0.283003  0.002235  3.775223  0.004
N  N38  1  0.54857202  0.19032701  0.18351976  1  0.234044  0.00107  3.508535  0.003  0.281867  0.001549  3.788088  0.003  0.279652  0.000643  3.807528  0.002  0.007969  0.283028  0.002235  3.775262  0.004
N  N39  1  0.54386233  0.83112274  0.71983225  1  -0.044294  -0.004954  2.835917  -0.004  -0.044795  -0.000764  3.120557  0.0  -0.038487  -0.002208  3.130899  -0.002  -0.048366  -0.048752  0.000343  3.113824  0.001
N  N40  1  0.45613407  0.16887364  0.28016605  1  -0.04427  -0.004922  2.835958  -0.004  -0.044772  -0.000767  3.1206  0.0  -0.038465  -0.002204  3.130942  -0.002  -0.048306  -0.048731  0.000344  3.113864  0.001
N  N41  1  0.41489736  0.90417248  0.64394311  1  -0.232873  0.070389  3.261256  0.095  -0.202565  0.050453  3.591333  0.071  -0.229263  0.04077  3.610635  0.061  -0.228243  -0.186153  0.056467  3.57959  0.076
N  N42  1  0.58509776  0.09582648  0.35605664  1  -0.23278  0.07041  3.261322  0.095  -0.202477  0.050452  3.591391  0.071  -0.229165  0.040772  3.610671  0.061  -0.228229  -0.186064  0.05647  3.579648  0.076
Cl  Cl43  1  0.16766391  0.34212134  0.60221203  1  0.968975  -0.000434  4.64591  0.0  0.915203  -0.000589  5.18282  0.0  0.958235  -0.00051  5.158787  0.0  0.540503  0.885621  -0.000596  5.197515  0.0
Cl  Cl44  1  0.83233315  0.65788284  0.39778432  1  0.969047  -0.000439  4.645847  0.0  0.915281  -0.000588  5.182764  0.0  0.958309  -0.000514  5.158732  0.0  0.54056  0.88571  -0.000596  5.197441  0.0
O  O45  1  0.19353908  0.16554646  0.50488889  1  -0.602055  -0.00156  1.871072  0.0  -0.572601  -0.001741  2.163379  0.0  -0.592771  -0.001903  2.145835  0.0  -0.348711  -0.558601  -0.001463  2.174827  0.0
O  O46  1  0.80646524  0.83445514  0.49511170  1  -0.602099  -0.001559  1.871037  0.0  -0.572632  -0.00174  2.163329  0.0  -0.592807  -0.001904  2.145809  0.0  -0.348736  -0.558642  -0.001463  2.174777  0.0
O  O47  1  0.30054862  0.47290745  0.57542834  1  -0.578467  -0.000132  1.858059  0.0  -0.541958  -0.000298  2.133146  0.0  -0.560943  -0.000293  2.120309  0.0  -0.347493  -0.52868  -0.000254  2.14071  0.0
O  O48  1  0.69944972  0.52709415  0.42456754  1  -0.578441  -0.000129  1.858108  0.0  -0.541933  -0.0003  2.133157  0.0  -0.560934  -0.000285  2.12037  0.0  -0.347474  -0.528667  -0.000254  2.140728  0.0
O  O49  1  0.24431614  0.34270822  0.75112662  1  -0.570246  -2.7e-05  1.80884  0.0  -0.533065  -0.000222  2.071632  0.0  -0.5506  -0.000223  2.059295  0.0  -0.347169  -0.520325  -0.000132  2.078813  0.0
O  O50  1  0.75567388  0.65730111  0.24887009  1  -0.570319  -2.2e-05  1.808794  0.0  -0.533126  -0.000224  2.071534  0.0  -0.550673  -0.000223  2.059235  0.0  -0.347233  -0.520384  -0.000132  2.078701  0.0
