# generated using pymatgen
data_AgH10C9NO2
_symmetry_space_group_name_H-M   'P 1'
_cell_length_a   5.25888852
_cell_length_b   7.33691680
_cell_length_c   12.21508638
_cell_angle_alpha   73.39716274
_cell_angle_beta   90.00135663
_cell_angle_gamma   90.00009198
_symmetry_Int_Tables_number   1
_chemical_formula_structural   AgH10C9NO2
_chemical_formula_sum   'Ag2 H20 C18 N2 O4'
_cell_volume   451.65768876
_cell_formula_units_Z   2
loop_
 _symmetry_equiv_pos_site_id
 _symmetry_equiv_pos_as_xyz
  1  'x, y, z'
loop_
 _atom_site_type_symbol
 _atom_site_label
 _atom_site_symmetry_multiplicity
 _atom_site_fract_x
 _atom_site_fract_y
 _atom_site_fract_z
 _atom_site_occupancy
 _atom_site_pbe_bader_charge
 _atom_site_pbe_bader_spin_density
 _atom_site_pbe_cm5_charge
 _atom_site_pbe_ddec_charge
 _atom_site_pbe_ddec_spin_density
 _atom_site_pbe_ddec_sum_bond_order
 _atom_site_pbe_magmom
Ag  Ag0  1  0.33244876  0.43675652  0.13208457  1  0.509449  0  0.429392  0.350058  0  1.805152  0
Ag  Ag1  1  0.83244776  0.56325054  0.86791209  1  0.50945  0  0.42938  0.350068  0  1.805081  0
H  H2  1  0.47078092  0.78789490  0.02816284  1  0.481781  0  0.282708  0.279381  0  1.009163  0
H  H3  1  0.97079193  0.21210929  0.97183729  1  0.481654  0  0.282699  0.279329  0  1.009196  0
H  H4  1  0.15297815  0.78168436  0.03054836  1  0.467615  0  0.284135  0.275208  0  0.999865  0
H  H5  1  0.65298701  0.21831426  0.96945183  1  0.467682  0  0.284167  0.27526  0  0.999759  0
H  H6  1  0.48210522  0.78508616  0.22500848  1  0.06466  0  0.113484  0.07852  0  0.976541  0
H  H7  1  0.98209789  0.21491948  0.77499382  1  0.064706  0  0.113474  0.078551  0  0.976458  0
H  H8  1  0.07343846  0.86950035  0.30415352  1  0.067106  0  0.100659  0.11255  0  0.994623  0
H  H9  1  0.57342844  0.13050397  0.69584420  1  0.0671  0  0.10062  0.112471  0  0.994667  0
H  H10  1  0.90692111  0.81860098  0.19009047  1  0.057557  0  0.099129  0.116993  0  0.989282  0
H  H11  1  0.40691752  0.18140033  0.80990539  1  0.057571  0  0.099158  0.116992  0  0.989289  0
H  H12  1  0.73431530  0.50694925  0.22527474  1  0.054708  0  0.079099  0.067884  0  1.102602  0
H  H13  1  0.23430971  0.49306062  0.77471673  1  0.054561  0  0.07912  0.067871  0  1.102608  0
H  H14  1  0.71359409  0.16995718  0.33745725  1  0.08815  0  0.098043  0.103972  0  1.02491  0
H  H15  1  0.21359440  0.83005259  0.66252692  1  0.088221  0  0.09807  0.103968  0  1.025045  0
H  H16  1  0.03472386  0.03787774  0.49200233  1  0.044964  0  0.096958  0.091477  0  1.041803  0
H  H17  1  0.53472554  0.96211650  0.50798744  1  0.0448  0  0.096952  0.091451  0  1.041938  0
H  H18  1  0.37778975  0.24989630  0.52678815  1  0.046245  0  0.096031  0.090136  0  1.037373  0
H  H19  1  0.87777991  0.75009082  0.47321192  1  0.046553  0  0.09599  0.090044  0  1.037422  0
H  H20  1  0.39360698  0.58654514  0.41630031  1  0.086404  0  0.095002  0.098657  0  1.043535  0
H  H21  1  0.89359485  0.41344066  0.58370733  1  0.086267  0  0.095078  0.098739  0  1.043453  0
C  C22  1  0.33152077  0.05001526  0.12388232  1  1.555975  0  0.200694  0.549657  0  4.156361  0
C  C23  1  0.83151793  0.94998902  0.87611974  1  1.555982  0  0.200686  0.549677  0  4.156441  0
C  C24  1  0.31363114  0.83256470  0.17107119  1  0.335973  0  0.000857  0.062264  0  3.828071  0
C  C25  1  0.81362625  0.16743810  0.82892708  1  0.335982  0  0.000843  0.062144  0  3.827867  0
C  C26  1  0.07399172  0.77945645  0.24596264  1  -0.04416  0  -0.157942  -0.241939  0  3.901754  0
C  C27  1  0.57398378  0.22054503  0.75403559  1  -0.044189  0  -0.15792  -0.241803  0  3.901593  0
C  C28  1  0.06371531  0.57221339  0.31290162  1  -0.068093  0  -0.023525  0.103731  0  3.994931  0
C  C29  1  0.56369691  0.42779517  0.68709293  1  -0.068221  0  -0.023451  0.103804  0  3.995034  0
C  C30  1  0.87532807  0.45074674  0.29231685  1  -0.090532  0  -0.104039  -0.152888  0  4.013741  0
C  C31  1  0.37532231  0.54925739  0.70767613  1  -0.084778  0  -0.10411  -0.152937  0  4.013732  0
C  C32  1  0.86325456  0.25963761  0.35603763  1  -0.063409  0  -0.095601  -0.077927  0  4.007233  0
C  C33  1  0.36324242  0.74037504  0.64395305  1  -0.068864  0  -0.095692  -0.077923  0  4.006908  0
C  C34  1  0.04309760  0.18634316  0.44120281  1  -0.022752  0  -0.096547  -0.094135  0  4.002772  0
C  C35  1  0.54310439  0.81366108  0.55878763  1  -0.022688  0  -0.096469  -0.094144  0  4.002612  0
C  C36  1  0.23455227  0.30493057  0.46128334  1  -0.030372  0  -0.093096  -0.074906  0  4.011476  0
C  C37  1  0.73454622  0.69505522  0.53871893  1  -0.031001  0  -0.093058  -0.074703  0  4.01169  0
C  C38  1  0.24434397  0.49603435  0.39827331  1  -0.059514  0  -0.095747  -0.139901  0  3.960786  0
C  C39  1  0.74433280  0.50396144  0.60173045  1  -0.059094  0  -0.095854  -0.140095  0  3.961106  0
N  N40  1  0.31421464  0.73906522  0.07899700  1  -1.13091  0  -0.649189  -0.546557  0  3.487204  0
N  N41  1  0.81421790  0.26093762  0.92100372  1  -1.130833  0  -0.649156  -0.546534  0  3.487092  0
O  O42  1  0.30033503  0.12895043  0.01850094  1  -1.218872  0  -0.324323  -0.555008  0  2.230735  0
O  O43  1  0.80032738  0.87105524  0.98149768  1  -1.218959  0  -0.324314  -0.555005  0  2.230759  0
O  O44  1  0.37591910  0.13727237  0.19899509  1  -1.131988  0  -0.336179  -0.497214  0  2.352263  0
O  O45  1  0.87591974  0.86273336  0.80100989  1  -1.131888  0  -0.336217  -0.497235  0  2.352299  0
