# generated using pymatgen
data_CdH11C15N4ClO2
_symmetry_space_group_name_H-M   'P 1'
_cell_length_a   6.33141114
_cell_length_b   11.97094826
_cell_length_c   22.81402169
_cell_angle_alpha   96.72705413
_cell_angle_beta   89.98096084
_cell_angle_gamma   105.32670135
_symmetry_Int_Tables_number   1
_chemical_formula_structural   CdH11C15N4ClO2
_chemical_formula_sum   'Cd4 H44 C60 N16 Cl4 O8'
_cell_volume   1655.31682266
_cell_formula_units_Z   4
loop_
 _symmetry_equiv_pos_site_id
 _symmetry_equiv_pos_as_xyz
  1  'x, y, z'
loop_
 _atom_site_type_symbol
 _atom_site_label
 _atom_site_symmetry_multiplicity
 _atom_site_fract_x
 _atom_site_fract_y
 _atom_site_fract_z
 _atom_site_occupancy
 _atom_site_pbe_bader_charge
 _atom_site_pbe_bader_spin_density
 _atom_site_pbe_cm5_charge
 _atom_site_pbe_ddec_charge
 _atom_site_pbe_ddec_spin_density
 _atom_site_pbe_ddec_sum_bond_order
 _atom_site_pbe_magmom
Cd  Cd0  1  0.35010611  0.84317715  0.46657433  1  1.1916  0  0.67982  0.797146  0  2.314079  0
Cd  Cd1  1  0.50638547  0.15668007  0.03342059  1  1.192046  0  0.679752  0.796703  0  2.314404  0
Cd  Cd2  1  0.64992621  0.15683432  0.53341826  1  1.191433  0  0.679833  0.797123  0  2.314184  0
Cd  Cd3  1  0.49360259  0.84332186  0.96657977  1  1.192098  0  0.679678  0.796496  0  2.314599  0
H  H4  1  0.57741612  0.11997963  0.25408973  1  0.075415  0  0.10498  0.106475  0  1.013476  0
H  H5  1  0.45670480  0.87996108  0.24591323  1  0.068996  0  0.104767  0.10583  0  1.013128  0
H  H6  1  0.42262123  0.88000402  0.74591436  1  0.07552  0  0.104911  0.106283  0  1.013688  0
H  H7  1  0.54324132  0.12008016  0.75409342  1  0.068647  0  0.104879  0.105978  0  1.013077  0
H  H8  1  0.43354998  0.14120483  0.35730181  1  0.122277  0  0.104158  0.123386  0  1.019269  0
H  H9  1  0.29146439  0.85883049  0.14274132  1  0.116877  0  0.104094  0.123085  0  1.01971  0
H  H10  1  0.56649173  0.85878754  0.64270324  1  0.122345  0  0.104163  0.1235  0  1.018988  0
H  H11  1  0.70849035  0.14119326  0.85725902  1  0.116812  0  0.104116  0.123143  0  1.019753  0
H  H12  1  0.97199141  0.30953631  0.29346170  1  0.085269  0  0.10886  0.119132  0  0.985861  0
H  H13  1  0.66195753  0.69009123  0.20673061  1  0.080707  0  0.108697  0.118807  0  0.987333  0
H  H14  1  0.02803470  0.69044382  0.70653912  1  0.084388  0  0.108856  0.119208  0  0.986173  0
H  H15  1  0.33800368  0.30991070  0.79326844  1  0.080561  0  0.108653  0.118644  0  0.987372  0
H  H16  1  0.10239570  0.27877021  0.19076004  1  0.115925  0  0.107832  0.112207  0  1.024369  0
H  H17  1  0.82336698  0.72067466  0.30937040  1  0.110857  0  0.10794  0.112476  0  1.024723  0
H  H18  1  0.89761810  0.72119161  0.80924144  1  0.11614  0  0.107922  0.112341  0  1.024283  0
H  H19  1  0.17659489  0.27934124  0.69062948  1  0.111064  0  0.107946  0.112511  0  1.024682  0
H  H20  1  0.92798219  0.99121430  0.39154437  1  0.10589  0  0.103962  0.176707  0  0.978414  0
H  H21  1  0.93597785  0.00869888  0.10856725  1  0.107458  0  0.103859  0.176611  0  0.977388  0
H  H22  1  0.07203231  0.00877102  0.60845017  1  0.105654  0  0.103928  0.176584  0  0.97846  0
H  H23  1  0.06398090  0.99130130  0.89143081  1  0.107577  0  0.103856  0.176669  0  0.977303  0
H  H24  1  0.82196758  0.05127350  0.33414000  1  0.049726  0  0.100021  0.151129  0  0.986443  0
H  H25  1  0.76972870  0.94862901  0.16595899  1  0.047841  0  0.099978  0.150955  0  0.986696  0
H  H26  1  0.17807215  0.94872752  0.66585548  1  0.049809  0  0.099968  0.151088  0  0.986476  0
H  H27  1  0.23023143  0.05138341  0.83404243  1  0.04792  0  0.100043  0.151029  0  0.986943  0
H  H28  1  0.67044043  0.02308154  0.39894221  1  0.113641  0  0.093558  0.147085  0  1.061432  0
H  H29  1  0.64660899  0.97678870  0.10113290  1  0.111252  0  0.093972  0.147857  0  1.061056  0
H  H30  1  0.32957298  0.97691423  0.60105077  1  0.113778  0  0.093561  0.147037  0  1.061552  0
H  H31  1  0.35336064  0.02320797  0.89886276  1  0.111602  0  0.094  0.147967  0  1.060936  0
H  H32  1  0.58603190  0.37516102  0.38122175  1  0.089855  0  0.106373  0.10783  0  1.008645  0
H  H33  1  0.21017127  0.62458242  0.11888464  1  0.0945  0  0.105986  0.107049  0  1.009012  0
H  H34  1  0.41398955  0.62482874  0.61878358  1  0.089805  0  0.106303  0.107736  0  1.008675  0
H  H35  1  0.78980625  0.37543003  0.88112073  1  0.094776  0  0.105991  0.107024  0  1.008883  0
H  H36  1  0.86011543  0.57016448  0.37836928  1  0.105553  0  0.109737  0.116832  0  0.999521  0
H  H37  1  0.28871399  0.42947225  0.12185495  1  0.09977  0  0.109995  0.117654  0  0.998949  0
H  H38  1  0.13988809  0.42983046  0.62162847  1  0.105449  0  0.109738  0.116876  0  0.999424  0
H  H39  1  0.71128194  0.57054543  0.87815073  1  0.099944  0  0.109959  0.117598  0  0.998919  0
H  H40  1  0.76166414  0.74991841  0.41861585  1  0.167239  0  0.119427  0.10363  0  1.010428  0
H  H41  1  0.01062055  0.24988268  0.08156924  1  0.12905  0  0.11914  0.103517  0  1.010849  0
H  H42  1  0.23832427  0.25007475  0.58137654  1  0.167138  0  0.119446  0.103667  0  1.010324  0
H  H43  1  0.98938567  0.75012716  0.91843773  1  0.128759  0  0.119115  0.10339  0  1.010934  0
H  H44  1  0.14665979  0.56264737  0.46511467  1  0.174974  0  0.112676  0.077526  0  1.074409  0
H  H45  1  0.58371132  0.43739282  0.03485135  1  0.132995  0  0.112963  0.078246  0  1.073428  0
H  H46  1  0.85333592  0.43734142  0.53487746  1  0.17418  0  0.112661  0.077464  0  1.074367  0
H  H47  1  0.41627631  0.56260825  0.96515028  1  0.133031  0  0.112974  0.078226  0  1.073358  0
C  C48  1  0.43377796  0.18555201  0.15524203  1  1.55678  0  0.186616  0.545873  0  4.25317  0
C  C49  1  0.24816186  0.81420134  0.34475181  1  1.585971  0  0.1861  0.545623  0  4.250784  0
C  C50  1  0.56625874  0.81444297  0.84476098  1  1.556198  0  0.186626  0.545732  0  4.252185  0
C  C51  1  0.75179876  0.18582153  0.65524717  1  1.586393  0  0.186089  0.54548  0  4.250899  0
C  C52  1  0.35191120  0.20055152  0.21686315  1  0.025577  0  -0.012882  -0.02244  0  3.948279  0
C  C53  1  0.15092825  0.79914252  0.28318201  1  0.025029  0  -0.012241  -0.021363  0  3.945812  0
C  C54  1  0.64812140  0.79943212  0.78314006  1  0.025575  0  -0.012893  -0.022414  0  3.947832  0
C  C55  1  0.84902882  0.20086376  0.71681555  1  0.0244  0  -0.012342  -0.021367  0  3.946093  0
C  C56  1  0.44495922  0.16131649  0.26357626  1  -0.063633  0  -0.079532  -0.081759  0  3.970072  0
C  C57  1  0.28297727  0.83856126  0.23643937  1  -0.040691  0  -0.079579  -0.081084  0  3.968472  0
C  C58  1  0.55507942  0.83866976  0.73642623  1  -0.063141  0  -0.079515  -0.08159  0  3.969588  0
C  C59  1  0.71698264  0.16146334  0.76355839  1  -0.039596  0  -0.07964  -0.081312  0  3.968559  0
C  C60  1  0.36816537  0.17414088  0.32063474  1  -0.022472  0  -0.087656  -0.163142  0  3.960947  0
C  C61  1  0.19320136  0.82583116  0.17941840  1  -0.061849  0  -0.087168  -0.162734  0  3.96257  0
C  C62  1  0.63187583  0.82584098  0.67936530  1  -0.021653  0  -0.087762  -0.163366  0  3.960816  0
C  C63  1  0.80676340  0.17418736  0.82058252  1  -0.062186  0  -0.087176  -0.162839  0  3.962633  0
C  C64  1  0.20098331  0.22970850  0.33054242  1  0.273557  0  0.089997  0.174274  0  4.031063  0
C  C65  1  0.97049195  0.77012077  0.16956154  1  0.327466  0  0.089473  0.173588  0  4.031814  0
C  C66  1  0.79905649  0.77027689  0.66946221  1  0.272249  0  0.090007  0.174203  0  4.031736  0
C  C67  1  0.02946224  0.22988292  0.83043980  1  0.327337  0  0.08932  0.173599  0  4.031905  0
C  C68  1  0.10506969  0.26839059  0.28449653  1  -0.015389  0  -0.087426  -0.168471  0  3.992761  0
C  C69  1  0.83615013  0.73127395  0.21563966  1  -0.009799  0  -0.087379  -0.167483  0  3.993533  0
C  C70  1  0.89496257  0.73158605  0.71550364  1  -0.014626  0  -0.087498  -0.168843  0  3.993305  0
C  C71  1  0.16381179  0.26872626  0.78436323  1  -0.009155  0  -0.087321  -0.167279  0  3.993195  0
C  C72  1  0.17917667  0.25237301  0.22753859  1  -0.063818  0  -0.077079  -0.068987  0  3.954254  0
C  C73  1  0.92640566  0.74725252  0.27256745  1  -0.100724  0  -0.077722  -0.070854  0  3.955096  0
C  C74  1  0.82084035  0.74759843  0.77246565  1  -0.064055  0  -0.077018  -0.068771  0  3.953566  0
C  C75  1  0.07355877  0.25275903  0.72743524  1  -0.100962  0  -0.077617  -0.070854  0  3.954864  0
C  C76  1  0.83491909  0.05314365  0.38222861  1  -0.047888  0  -0.237231  -0.477132  0  3.941259  0
C  C77  1  0.78095441  0.94673232  0.11787419  1  -0.045363  0  -0.237662  -0.47757  0  3.941205  0
C  C78  1  0.16511714  0.94685039  0.61776733  1  -0.047654  0  -0.237214  -0.476911  0  3.941255  0
C  C79  1  0.21902144  0.05327047  0.88212360  1  -0.045833  0  -0.237813  -0.477989  0  3.941105  0
C  C80  1  0.94399992  0.17129077  0.41083643  1  0.990441  0  0.235187  0.358891  0  3.959895  0
C  C81  1  0.77217948  0.82863187  0.08924535  1  0.965678  0  0.235006  0.357287  0  3.957988  0
C  C82  1  0.05603282  0.82869630  0.58915910  1  0.989922  0  0.235241  0.358668  0  3.959543  0
C  C83  1  0.22780636  0.17138141  0.91075612  1  0.965655  0  0.235065  0.357546  0  3.957857  0
C  C84  1  0.17118505  0.34700456  0.42843617  1  0.931162  0  0.224893  0.221319  0  4.021534  0
C  C85  1  0.82396254  0.65298475  0.07158564  1  0.969137  0  0.224289  0.221191  0  4.019909  0
C  C86  1  0.82884728  0.65298168  0.57156589  1  0.931106  0  0.225027  0.221351  0  4.02134  0
C  C87  1  0.17603417  0.34702500  0.92840992  1  0.968387  0  0.224222  0.221136  0  4.019588  0
C  C88  1  0.34274007  0.45365931  0.42298715  1  -0.028653  0  -0.004764  -0.019925  0  4.023346  0
C  C89  1  0.88858071  0.54625092  0.07704198  1  -0.028349  0  -0.004923  -0.020508  0  4.022693  0
C  C90  1  0.65728399  0.54633567  0.57701674  1  -0.028708  0  -0.004861  -0.019931  0  4.022926  0
C  C91  1  0.11140463  0.45375189  0.92295932  1  -0.028518  0  -0.004809  -0.020346  0  4.022613  0
C  C92  1  0.54651695  0.45596369  0.39810107  1  0.008186  0  -0.067549  -0.071246  0  3.935823  0
C  C93  1  0.08988134  0.54383019  0.10200614  1  0.000866  0  -0.066806  -0.069699  0  3.934848  0
C  C94  1  0.45350623  0.54402953  0.60190097  1  0.008969  0  -0.067497  -0.071152  0  3.935569  0
C  C95  1  0.91011022  0.45617876  0.89799859  1  0.000351  0  -0.066854  -0.069607  0  3.93465  0
C  C96  1  0.69843845  0.56323599  0.39642656  1  -0.048604  0  -0.079437  -0.115538  0  3.973426  0
C  C97  1  0.13426160  0.43652860  0.10373365  1  -0.039299  0  -0.080241  -0.117816  0  3.972923  0
C  C98  1  0.30157367  0.43675722  0.60357284  1  -0.049007  0  -0.079467  -0.115651  0  3.973209  0
C  C99  1  0.86573013  0.56348384  0.89627260  1  -0.039305  0  -0.080216  -0.117996  0  3.972994  0
C  C100  1  0.64484789  0.66507214  0.41945168  1  0.483591  0  0.053498  0.103045  0  3.920484  0
C  C101  1  0.97876255  0.33473935  0.08067144  1  0.503883  0  0.054678  0.104673  0  3.920268  0
C  C102  1  0.35514483  0.33492016  0.58054285  1  0.48364  0  0.053574  0.103109  0  3.920263  0
C  C103  1  0.02122254  0.66526613  0.91933571  1  0.504739  0  0.054728  0.10503  0  3.920174  0
C  C104  1  0.30251631  0.56017815  0.44522365  1  0.47665  0  0.049823  0.060066  0  3.902041  0
C  C105  1  0.74188861  0.43982329  0.05479076  1  0.525587  0  0.050338  0.06031  0  3.901763  0
C  C106  1  0.69748229  0.43981328  0.55477170  1  0.476859  0  0.04989  0.060238  0  3.90166  0
C  C107  1  0.25810251  0.56018478  0.94521347  1  0.525598  0  0.050229  0.060159  0  3.901551  0
N  N108  1  0.11901972  0.24673358  0.38854569  1  -1.218965  0  -0.216541  -0.129356  0  3.707095  0
N  N109  1  0.87148822  0.75311829  0.11156723  1  -1.247693  0  -0.216387  -0.12852  0  3.701915  0
N  N110  1  0.88101446  0.75325004  0.61145621  1  -1.219356  0  -0.216397  -0.128935  0  3.706602  0
N  N111  1  0.12847686  0.24688190  0.88843216  1  -1.247541  0  -0.216193  -0.128448  0  3.701753  0
N  N112  1  0.89414457  0.22405652  0.46141370  1  -0.762883  0  -0.243966  -0.247692  0  3.424915  0
N  N113  1  0.67025703  0.77604045  0.03857287  1  -0.750018  0  -0.243201  -0.246065  0  3.424548  0
N  N114  1  0.10588916  0.77592619  0.53858289  1  -0.762749  0  -0.243925  -0.247571  0  3.424849  0
N  N115  1  0.32974653  0.22396405  0.96142107  1  -0.749596  0  -0.243266  -0.246138  0  3.424606  0
N  N116  1  0.03533749  0.33341250  0.47270363  1  -0.686982  0  -0.217104  -0.22916  0  3.231749  0
N  N117  1  0.70230713  0.66672608  0.02724378  1  -0.69062  0  -0.216875  -0.229204  0  3.231305  0
N  N118  1  0.96470186  0.66657200  0.52729876  1  -0.686598  0  -0.217248  -0.229364  0  3.231981  0
N  N119  1  0.29770624  0.33328541  0.97275189  1  -0.690464  0  -0.216994  -0.229426  0  3.230933  0
N  N120  1  0.45009779  0.66314643  0.44344727  1  -1.233348  0  -0.323305  -0.229811  0  3.496807  0
N  N121  1  0.78625270  0.33676860  0.05660775  1  -1.221714  0  -0.324498  -0.231142  0  3.496568  0
N  N122  1  0.54988456  0.33684408  0.55654189  1  -1.232915  0  -0.32337  -0.229981  0  3.496767  0
N  N123  1  0.21374230  0.66323776  0.94340120  1  -1.222219  0  -0.324441  -0.231081  0  3.49614  0
Cl  Cl124  1  0.69921660  0.93958875  0.52827704  1  -0.63023  0  -0.29516  -0.483645  0  1.27995  0
Cl  Cl125  1  0.75979028  0.06060576  0.97171868  1  -0.630115  0  -0.295349  -0.483727  0  1.279643  0
Cl  Cl126  1  0.30081430  0.06042619  0.47171314  1  -0.630274  0  -0.295126  -0.4836  0  1.279984  0
Cl  Cl127  1  0.24016960  0.93939354  0.02827758  1  -0.629983  0  -0.295332  -0.483691  0  1.279495  0
O  O128  1  0.32103384  0.20934574  0.11379011  1  -1.154905  0  -0.334318  -0.548063  0  2.251347  0
O  O129  1  0.11195262  0.79022895  0.38627900  1  -1.167542  0  -0.333938  -0.548007  0  2.252185  0
O  O130  1  0.67897683  0.79064140  0.88621507  1  -1.154448  0  -0.334108  -0.547767  0  2.251167  0
O  O131  1  0.88802499  0.20977735  0.61372206  1  -1.167458  0  -0.333928  -0.547896  0  2.252401  0
O  O132  1  0.60406576  0.15083347  0.14691013  1  -1.165765  0  -0.327219  -0.545815  0  2.166024  0
O  O133  1  0.45315299  0.84916455  0.35297720  1  -1.161986  0  -0.327269  -0.545947  0  2.162854  0
O  O134  1  0.39598912  0.84917892  0.85308998  1  -1.165331  0  -0.327424  -0.545961  0  2.165325  0
O  O135  1  0.54681187  0.15087311  0.64701740  1  -1.162452  0  -0.327283  -0.545872  0  2.162671  0
