# generated using pymatgen
data_CuH7C8N3Cl2
_symmetry_space_group_name_H-M   'P 1'
_cell_length_a   3.87724308
_cell_length_b   15.54101058
_cell_length_c   15.43654971
_cell_angle_alpha   89.99877990
_cell_angle_beta   94.54427474
_cell_angle_gamma   90.00029910
_symmetry_Int_Tables_number   1
_chemical_formula_structural   CuH7C8N3Cl2
_chemical_formula_sum   'Cu4 H28 C32 N12 Cl8'
_cell_volume   927.22498560
_cell_formula_units_Z   4
loop_
 _symmetry_equiv_pos_site_id
 _symmetry_equiv_pos_as_xyz
  1  'x, y, z'
loop_
 _atom_site_type_symbol
 _atom_site_label
 _atom_site_symmetry_multiplicity
 _atom_site_fract_x
 _atom_site_fract_y
 _atom_site_fract_z
 _atom_site_occupancy
 _atom_site_hle17_ddec_charge
 _atom_site_hle17_ddec_spin_density
 _atom_site_hle17_ddec_sum_bond_order
 _atom_site_hle17_magmom
 _atom_site_hse06_10hf_ddec_charge
 _atom_site_hse06_10hf_ddec_spin_density
 _atom_site_hse06_10hf_ddec_sum_bond_order
 _atom_site_hse06_10hf_magmom
 _atom_site_hse06_ddec_charge
 _atom_site_hse06_ddec_spin_density
 _atom_site_hse06_ddec_sum_bond_order
 _atom_site_hse06_magmom
 _atom_site_pbe_cm5_charge
 _atom_site_pbe_ddec_charge
 _atom_site_pbe_ddec_spin_density
 _atom_site_pbe_ddec_sum_bond_order
 _atom_site_pbe_magmom
Cu  Cu0  1  0.99800070  0.71035651  0.74856955  1  0.736925  0.629441  1.948533  0.457  0.721918  0.73196  2.357939  0.576  0.813677  0.799947  2.281601  0.661  0.582278  0.671696  0.689636  2.405334  0.526
Cu  Cu1  1  0.50201546  0.21035715  0.75143237  1  0.736853  0.629448  1.948623  0.457  0.721916  0.731963  2.358016  0.576  0.813601  0.799956  2.281725  0.661  0.58224  0.671636  0.689641  2.405423  0.526
Cu  Cu2  1  0.00199398  0.28964327  0.25142830  1  0.736917  0.62944  1.94855  0.457  0.721967  0.731965  2.357961  0.576  0.813673  0.799955  2.281634  0.661  0.582268  0.671703  0.689641  2.405362  0.526
Cu  Cu3  1  0.49800508  0.78964391  0.24856859  1  0.736957  0.629436  1.948484  0.457  0.721965  0.731961  2.357871  0.576  0.813714  0.799955  2.281549  0.661  0.582274  0.671748  0.68964  2.405273  0.526
H  H4  1  0.86026137  0.00977612  0.84621299  1  0.304974  0.000152  0.919474  0.001  0.287002  0.000413  0.983779  0.001  0.296255  0.000293  0.975419  0.001  0.28798  0.280528  0.000505  0.989562  0.001
H  H5  1  0.63972851  0.50978216  0.65379015  1  0.304948  0.000151  0.919474  0.001  0.287046  0.000413  0.9837  0.001  0.296304  0.000293  0.975329  0.001  0.287943  0.280573  0.000505  0.989485  0.001
H  H6  1  0.13970742  0.99022108  0.15378757  1  0.30506  0.000151  0.919386  0.001  0.287133  0.000413  0.983605  0.001  0.296388  0.000293  0.975241  0.001  0.288013  0.28066  0.000505  0.989388  0.001
H  H7  1  0.36028685  0.49021826  0.34621200  1  0.304967  0.000152  0.919445  0.001  0.287045  0.000413  0.983678  0.001  0.296301  0.000294  0.975313  0.001  0.287955  0.280567  0.000505  0.989468  0.001
H  H8  1  0.24548279  0.95662656  0.97741036  1  0.109404  0.002095  0.967496  0.001  0.119926  0.002029  1.029233  0.001  0.123051  0.001548  1.027049  0.001  0.114134  0.117676  0.002388  1.030863  0.001
H  H9  1  0.25450112  0.45663874  0.52259365  1  0.109177  0.002096  0.96735  0.001  0.119713  0.002029  1.029131  0.001  0.122838  0.001549  1.026948  0.001  0.11407  0.117463  0.002389  1.030765  0.001
H  H10  1  0.75447566  0.04337065  0.02258805  1  0.109293  0.002095  0.967337  0.001  0.119824  0.00203  1.02911  0.001  0.122948  0.001549  1.026927  0.001  0.11409  0.117575  0.002389  1.030739  0.001
H  H11  1  0.74549870  0.54336425  0.47741078  1  0.109154  0.002097  0.967343  0.001  0.119701  0.00203  1.029112  0.001  0.122826  0.001549  1.026927  0.001  0.114063  0.117453  0.002389  1.030739  0.001
H  H12  1  0.37018769  0.78395288  0.94438661  1  0.110776  3.8e-05  0.95153  0.001  0.120518  0.000252  1.0106  0.001  0.122644  0.000162  1.009592  0.001  0.116773  0.118957  0.000331  1.011251  0.001
H  H13  1  0.12983509  0.28395650  0.55561156  1  0.110805  3.8e-05  0.951281  0.001  0.120468  0.000253  1.010476  0.001  0.122604  0.000163  1.009456  0.001  0.116785  0.118905  0.000332  1.011126  0.001
H  H14  1  0.62980698  0.21605140  0.05561383  1  0.110751  3.9e-05  0.95134  0.001  0.120451  0.000252  1.010477  0.001  0.122588  0.000162  1.009455  0.001  0.11673  0.118885  0.000331  1.011127  0.001
H  H15  1  0.87018286  0.71604457  0.44439130  1  0.110756  3.8e-05  0.95128  0.001  0.120438  0.000253  1.010449  0.001  0.122594  0.000163  1.009403  0.001  0.116758  0.118872  0.000332  1.011093  0.001
H  H16  1  0.51949799  0.01194971  0.70432277  1  0.117146  0.000687  0.979891  0.001  0.123795  0.000813  1.047126  0.001  0.127859  0.000574  1.044453  0.001  0.094493  0.120814  0.001007  1.049172  0.001
H  H17  1  0.98050231  0.51195449  0.79567535  1  0.117102  0.000688  0.979922  0.001  0.123707  0.000813  1.047208  0.001  0.127774  0.000574  1.04453  0.001  0.094428  0.120724  0.001007  1.049255  0.001
H  H18  1  0.48049670  0.98804750  0.29567443  1  0.117113  0.000688  0.979896  0.001  0.123746  0.000813  1.047161  0.001  0.127814  0.000574  1.044477  0.001  0.094438  0.12076  0.001007  1.049206  0.001
H  H19  1  0.01953635  0.48804529  0.20432597  1  0.117076  0.000687  0.979943  0.001  0.123726  0.000813  1.047177  0.001  0.127794  0.000574  1.044498  0.001  0.094433  0.120743  0.001007  1.049224  0.001
H  H20  1  0.21884999  0.99134875  0.55812243  1  0.093967  0.000291  0.945922  0.0  0.106913  0.000155  1.003196  0.0  0.109525  6.8e-05  1.001364  0.0  0.104088  0.105042  0.000236  1.004516  0.0
H  H21  1  0.28114224  0.49135090  0.94187127  1  0.093849  0.00029  0.946076  0.0  0.106798  0.000155  1.003363  0.0  0.109412  6.8e-05  1.001527  0.0  0.104024  0.104929  0.000236  1.004692  0.0
H  H22  1  0.78113952  0.00864974  0.44187402  1  0.093925  0.000291  0.945951  0.0  0.106851  0.000155  1.003274  0.0  0.109468  6.8e-05  1.001433  0.0  0.104031  0.104983  0.000236  1.004595  0.0
H  H23  1  0.71887571  0.50864566  0.05812899  1  0.09391  0.000291  0.945969  0.0  0.106849  0.000155  1.00327  0.0  0.109467  6.8e-05  1.001424  0.0  0.104052  0.104982  0.000236  1.0046  0.0
H  H24  1  0.23606372  0.84530817  0.48607185  1  0.109722  0.00134  0.972873  0.001  0.119722  0.001264  1.035318  0.001  0.123874  0.000944  1.033188  0.0  0.095208  0.116796  0.001498  1.036883  0.001
H  H25  1  0.26395428  0.34531283  0.01392552  1  0.109638  0.001341  0.973007  0.001  0.119679  0.001264  1.035414  0.001  0.123837  0.000944  1.033281  0.0  0.095214  0.11675  0.001498  1.036981  0.001
H  H26  1  0.76392838  0.15469032  0.51392271  1  0.10977  0.001341  0.972866  0.001  0.119757  0.001264  1.035322  0.001  0.123949  0.000944  1.03313  0.0  0.095237  0.116835  0.001498  1.036892  0.001
H  H27  1  0.73604556  0.65468888  0.98607567  1  0.109675  0.00134  0.972883  0.001  0.119691  0.001264  1.035327  0.001  0.123872  0.000944  1.03317  0.0  0.095229  0.116773  0.001498  1.036892  0.001
H  H28  1  0.54493500  0.72442088  0.57010338  1  0.078181  0.00061  0.986583  0.002  0.08404  0.000728  1.056931  0.002  0.086667  0.000471  1.054706  0.001  0.10231  0.0822  0.000953  1.058405  0.002
H  H29  1  0.95508912  0.22442029  0.92989968  1  0.078174  0.000608  0.986756  0.002  0.084044  0.000728  1.057022  0.002  0.086668  0.000471  1.054806  0.001  0.10232  0.082205  0.000952  1.058499  0.002
H  H30  1  0.45504158  0.27557696  0.42989151  1  0.078021  0.000609  0.986672  0.002  0.0839  0.000728  1.056959  0.002  0.086528  0.000471  1.054727  0.001  0.102235  0.082063  0.000953  1.058439  0.002
H  H31  1  0.04492105  0.77558013  0.07010560  1  0.078144  0.000609  0.986761  0.002  0.083997  0.000727  1.057056  0.002  0.086622  0.000471  1.054838  0.001  0.102287  0.082162  0.000952  1.058532  0.002
C  C32  1  0.89228189  0.88204298  0.79602570  1  0.275969  -0.004494  3.765407  -0.002  0.2476  -0.00112  4.025564  0.0  0.260311  -0.002541  4.043365  -0.001  0.211191  0.239554  -7.5e-05  4.013733  0.001
C  C33  1  0.60771355  0.38204346  0.70397143  1  0.275671  -0.004496  3.765669  -0.002  0.247398  -0.001123  4.025733  0.0  0.26008  -0.002541  4.043575  -0.001  0.211183  0.239352  -7.5e-05  4.013907  0.001
C  C34  1  0.10768434  0.11795616  0.20396898  1  0.275806  -0.0045  3.765658  -0.002  0.247428  -0.001122  4.025847  0.0  0.260142  -0.002541  4.04365  -0.001  0.211198  0.239381  -7.5e-05  4.014014  0.001
C  C35  1  0.39229923  0.61795761  0.29602808  1  0.275743  -0.004488  3.765597  -0.002  0.247423  -0.001121  4.0257  0.0  0.260101  -0.002542  4.043548  -0.001  0.211204  0.239379  -7.5e-05  4.013873  0.001
C  C36  1  0.15793195  0.91659364  0.92276310  1  0.01419  0.00564  3.652324  0.005  -0.027229  0.004104  3.915117  0.004  -0.024451  0.00336  3.931127  0.003  0.008421  -0.028924  0.004674  3.904084  0.004
C  C37  1  0.34207723  0.41659192  0.57724293  1  0.014634  0.005631  3.652687  0.005  -0.026825  0.004101  3.915472  0.004  -0.024048  0.003357  3.931489  0.003  0.008568  -0.028516  0.004671  3.904438  0.004
C  C38  1  0.84205496  0.08341321  0.07723654  1  0.014526  0.005646  3.652535  0.005  -0.026933  0.004101  3.915318  0.004  -0.024157  0.003359  3.931336  0.003  0.00858  -0.02863  0.004672  3.904281  0.004
C  C39  1  0.65794073  0.58341429  0.42275733  1  0.014739  0.005627  3.652697  0.005  -0.026727  0.0041  3.915466  0.004  -0.023951  0.003357  3.931486  0.003  0.008639  -0.028423  0.004671  3.904429  0.004
C  C40  1  0.21651504  0.83065027  0.90639215  1  0.024472  -0.002455  3.697261  -0.001  -0.003318  0.000413  3.962007  0.001  0.000105  -0.000517  3.982962  0.0  0.006813  -0.005192  0.001095  3.948085  0.001
C  C41  1  0.28352911  0.33066423  0.59360997  1  0.024312  -0.00244  3.697739  -0.001  -0.003429  0.000416  3.962497  0.001  -2e-05  -0.000515  3.983451  0.0  0.006768  -0.0053  0.001096  3.948573  0.001
C  C42  1  0.78349776  0.16934564  0.09360477  1  0.024402  -0.002459  3.697656  -0.001  -0.00332  0.000415  3.962411  0.001  9e-05  -0.000515  3.983361  0.0  0.006785  -0.005192  0.001096  3.948479  0.001
C  C43  1  0.71649143  0.66933748  0.40638969  1  0.0243  -0.002439  3.697915  -0.001  -0.003452  0.000415  3.962684  0.001  -5.4e-05  -0.000514  3.983625  0.0  0.006751  -0.005317  0.001096  3.948749  0.001
C  C44  1  0.69745528  0.87982637  0.71244229  1  0.158403  -0.003844  3.792634  -0.002  0.157089  -0.000418  4.039166  0.0  0.164431  -0.001821  4.060007  -0.001  0.116074  0.152108  0.000611  4.025799  0.001
C  C45  1  0.80254787  0.37982599  0.78756087  1  0.158609  -0.003823  3.792154  -0.002  0.157197  -0.000418  4.038798  0.0  0.164546  -0.001823  4.059649  -0.001  0.116021  0.152221  0.000611  4.025424  0.001
C  C46  1  0.30252646  0.12017341  0.28755659  1  0.158615  -0.003831  3.792433  -0.002  0.157295  -0.000419  4.038992  0.0  0.164632  -0.001822  4.059833  -0.001  0.116134  0.152317  0.00061  4.025621  0.001
C  C47  1  0.19746232  0.62017250  0.21244053  1  0.158678  -0.00385  3.792375  -0.002  0.157286  -0.000418  4.038975  0.0  0.164638  -0.001822  4.05982  -0.001  0.116122  0.152312  0.000611  4.025598  0.001
C  C48  1  0.52397756  0.94957054  0.67225334  1  -0.121997  0.00522  3.669528  0.005  -0.140133  0.002839  3.910936  0.003  -0.144969  0.002444  3.927386  0.003  -0.08158  -0.136815  0.003187  3.89973  0.003
C  C49  1  0.97602146  0.44957275  0.82774563  1  -0.122105  0.005197  3.669231  0.005  -0.140177  0.00284  3.910664  0.003  -0.145017  0.002444  3.927117  0.003  -0.081526  -0.136856  0.003187  3.899454  0.003
C  C50  1  0.47600418  0.05042860  0.32774554  1  -0.122125  0.005207  3.669408  0.005  -0.140251  0.002839  3.910846  0.003  -0.145087  0.002444  3.927299  0.003  -0.081557  -0.136928  0.003187  3.899629  0.003
C  C51  1  0.02400424  0.55042574  0.17225737  1  -0.122066  0.005224  3.669223  0.005  -0.140163  0.002839  3.910617  0.003  -0.145001  0.002445  3.927064  0.003  -0.081505  -0.136843  0.003187  3.899407  0.003
C  C52  1  0.35553970  0.93732241  0.59009283  1  0.005087  -0.008297  3.707742  -0.006  -0.01041  -0.0033  3.950955  -0.002  -0.005631  -0.003982  3.967006  -0.002  -0.065174  -0.013417  -0.002815  3.93982  -0.002
C  C53  1  0.14445427  0.43732506  0.90991180  1  0.005304  -0.008266  3.707401  -0.006  -0.010196  -0.0033  3.950613  -0.002  -0.005415  -0.003984  3.966667  -0.002  -0.065106  -0.013207  -0.002815  3.939482  -0.002
C  C54  1  0.64445496  0.06267479  0.40990891  1  0.005298  -0.008279  3.707399  -0.006  -0.010194  -0.0033  3.950587  -0.002  -0.005415  -0.003983  3.966644  -0.002  -0.065093  -0.013204  -0.002815  3.939459  -0.002
C  C55  1  0.85555849  0.56267214  0.09009224  1  0.005263  -0.008303  3.707172  -0.006  -0.010251  -0.0033  3.950384  -0.002  -0.005471  -0.003985  3.966442  -0.002  -0.065183  -0.013266  -0.002815  3.939264  -0.002
C  C56  1  0.36289896  0.85657197  0.55074312  1  -0.117288  0.007508  3.693651  0.008  -0.128153  0.004177  3.937688  0.005  -0.134882  0.003505  3.956422  0.004  -0.086617  -0.123734  0.004759  3.925024  0.006
C  C57  1  0.13710159  0.35656864  0.94925821  1  -0.117227  0.007482  3.693818  0.008  -0.128142  0.004175  3.937845  0.005  -0.134881  0.003504  3.956578  0.004  -0.086664  -0.123717  0.004757  3.925186  0.006
C  C58  1  0.63708537  0.14343103  0.44925387  1  -0.117503  0.007491  3.693833  0.008  -0.128388  0.004176  3.937899  0.005  -0.135142  0.003505  3.956628  0.004  -0.086697  -0.123976  0.004758  3.925259  0.006
C  C59  1  0.86290858  0.64343050  0.05074643  1  -0.117253  0.007508  3.693652  0.008  -0.12816  0.004175  3.937701  0.005  -0.134918  0.003505  3.956421  0.004  -0.086629  -0.123746  0.004757  3.925054  0.006
C  C60  1  0.53593188  0.78950646  0.59598378  1  0.131982  -0.008009  3.706647  -0.006  0.101037  -0.001991  3.967653  -0.001  0.11027  -0.003631  3.986127  -0.002  0.045029  0.094931  -0.000742  3.956325  0.0
C  C61  1  0.96410095  0.28950707  0.90402259  1  0.131844  -0.007976  3.706778  -0.006  0.101021  -0.001988  3.967691  -0.001  0.110251  -0.00363  3.986162  -0.002  0.045065  0.094912  -0.00074  3.956368  0.0
C  C62  1  0.46407314  0.21049203  0.40401428  1  0.132138  -0.007988  3.707031  -0.006  0.101249  -0.001989  3.96797  -0.001  0.110479  -0.00363  3.986449  -0.002  0.045039  0.095136  -0.000741  3.95666  0.0
C  C63  1  0.03590922  0.71049207  0.09598140  1  0.131968  -0.008008  3.706951  -0.006  0.10115  -0.001989  3.967827  -0.001  0.110379  -0.00363  3.986304  -0.002  0.045106  0.095043  -0.00074  3.956513  0.0
N  N64  1  0.04984505  0.81041743  0.82749222  1  -0.378903  0.070416  3.338111  0.089  -0.335122  0.055227  3.642433  0.073  -0.368338  0.046284  3.665681  0.066  -0.375503  -0.316149  0.05982  3.629089  0.076
N  N65  1  0.45016778  0.31042093  0.67250517  1  -0.378761  0.070405  3.33845  0.089  -0.335003  0.05522  3.642688  0.073  -0.368194  0.046277  3.665933  0.066  -0.375523  -0.316019  0.05981  3.629332  0.076
N  N66  1  0.95013671  0.18958170  0.17250278  1  -0.378829  0.070413  3.338471  0.089  -0.335104  0.055225  3.64282  0.073  -0.368308  0.04628  3.666051  0.066  -0.375543  -0.316124  0.059818  3.629466  0.076
N  N67  1  0.54985794  0.68957949  0.32749589  1  -0.378771  0.070408  3.338444  0.089  -0.334996  0.055222  3.64268  0.073  -0.368199  0.046278  3.665946  0.066  -0.375519  -0.316024  0.059813  3.629338  0.076
N  N68  1  0.95699761  0.94772541  0.85246741  1  -0.29632  -0.000307  3.451689  0.0  -0.228173  0.00068  3.668211  0.001  -0.243023  3.7e-05  3.681267  0.0  -0.366506  -0.218126  0.001147  3.659015  0.001
N  N69  1  0.54298846  0.44772764  0.64753004  1  -0.296339  -0.000304  3.452051  0.0  -0.228261  0.000682  3.668468  0.001  -0.243104  3.7e-05  3.68153  0.0  -0.366498  -0.218212  0.001148  3.659276  0.001
N  N70  1  0.04297121  0.05227436  0.14752732  1  -0.296558  -0.000307  3.451994  0.0  -0.228402  0.000682  3.668449  0.001  -0.243252  3.7e-05  3.681503  0.0  -0.366597  -0.218352  0.001147  3.659251  0.001
N  N71  1  0.45702690  0.55227471  0.35247211  1  -0.296393  -0.000306  3.451821  0.0  -0.228286  0.000681  3.668284  0.001  -0.243126  3.7e-05  3.681349  0.0  -0.366566  -0.218235  0.001147  3.659095  0.001
N  N72  1  0.70101918  0.80083641  0.67468018  1  -0.337356  0.068534  3.307047  0.087  -0.295096  0.055534  3.604144  0.075  -0.327326  0.045358  3.628878  0.067  -0.333801  -0.276721  0.061554  3.59062  0.079
N  N73  1  0.79898278  0.30083395  0.82532661  1  -0.337268  0.068506  3.306458  0.087  -0.295091  0.055526  3.603695  0.075  -0.327291  0.045353  3.628381  0.067  -0.333762  -0.27671  0.061542  3.590177  0.079
N  N74  1  0.29897291  0.19916337  0.32531891  1  -0.337325  0.068519  3.30715  0.087  -0.295087  0.05553  3.604209  0.075  -0.327306  0.045355  3.62893  0.067  -0.333705  -0.276699  0.061547  3.590666  0.079
N  N75  1  0.20101963  0.69916326  0.17467852  1  -0.337535  0.068523  3.306893  0.087  -0.295325  0.055526  3.604038  0.075  -0.327547  0.045352  3.628755  0.067  -0.333873  -0.276956  0.061541  3.590523  0.079
Cl  Cl76  1  0.99329889  0.61559162  0.63785890  1  -0.514306  0.105377  1.040116  0.127  -0.508944  0.065305  1.337831  0.083  -0.539461  0.048568  1.315974  0.067  -0.288297  -0.490354  0.075567  1.353015  0.091
Cl  Cl77  1  0.50670810  0.11558931  0.86214294  1  -0.514348  0.105379  1.040174  0.127  -0.508944  0.065315  1.337856  0.083  -0.539439  0.048573  1.315998  0.067  -0.288294  -0.49033  0.075579  1.353031  0.091
Cl  Cl78  1  0.00670355  0.38441073  0.36213975  1  -0.514295  0.105389  1.040085  0.127  -0.508971  0.065312  1.337816  0.083  -0.539472  0.04857  1.315952  0.067  -0.288289  -0.490365  0.075572  1.352993  0.091
Cl  Cl79  1  0.49329950  0.88441046  0.13785841  1  -0.514352  0.105371  1.040129  0.127  -0.508944  0.065309  1.337801  0.083  -0.539455  0.048569  1.315947  0.067  -0.288305  -0.490353  0.07557  1.352985  0.091
Cl  Cl80  1  0.45280813  0.64156897  0.82540391  1  -0.504997  0.130047  1.01615  0.159  -0.512957  0.080934  1.321352  0.106  -0.550572  0.058928  1.296365  0.084  -0.287291  -0.490856  0.094662  1.339089  0.117
Cl  Cl81  1  0.04719439  0.14157385  0.67460017  1  -0.50492  0.130064  1.016118  0.159  -0.512945  0.080939  1.321327  0.106  -0.550542  0.05893  1.296356  0.084  -0.287276  -0.490816  0.09467  1.339061  0.117
Cl  Cl82  1  0.54717877  0.35842952  0.17459702  1  -0.50497  0.130048  1.016147  0.159  -0.512945  0.080932  1.321353  0.106  -0.550543  0.058926  1.296369  0.084  -0.287287  -0.490826  0.094664  1.339073  0.117
Cl  Cl83  1  0.95282357  0.85843107  0.32540073  1  -0.504973  0.13007  1.016123  0.159  -0.512969  0.080941  1.321311  0.106  -0.550588  0.058931  1.296343  0.084  -0.287306  -0.490873  0.094677  1.339042  0.117
