# generated using pymatgen
data_CuH12C7(NO2)2
_symmetry_space_group_name_H-M   'P 1'
_cell_length_a   5.86081575
_cell_length_b   9.19190180
_cell_length_c   17.71072551
_cell_angle_alpha   90.00025163
_cell_angle_beta   89.99976524
_cell_angle_gamma   107.50163995
_symmetry_Int_Tables_number   1
_chemical_formula_structural   CuH12C7(NO2)2
_chemical_formula_sum   'Cu4 H48 C28 N8 O16'
_cell_volume   909.94549383
_cell_formula_units_Z   4
loop_
 _symmetry_equiv_pos_site_id
 _symmetry_equiv_pos_as_xyz
  1  'x, y, z'
loop_
 _atom_site_type_symbol
 _atom_site_label
 _atom_site_symmetry_multiplicity
 _atom_site_fract_x
 _atom_site_fract_y
 _atom_site_fract_z
 _atom_site_occupancy
 _atom_site_hle17_ddec_charge
 _atom_site_hle17_ddec_spin_density
 _atom_site_hle17_ddec_sum_bond_order
 _atom_site_hle17_magmom
 _atom_site_hse06_10hf_ddec_charge
 _atom_site_hse06_10hf_ddec_spin_density
 _atom_site_hse06_10hf_ddec_sum_bond_order
 _atom_site_hse06_10hf_magmom
 _atom_site_hse06_ddec_charge
 _atom_site_hse06_ddec_spin_density
 _atom_site_hse06_ddec_sum_bond_order
 _atom_site_hse06_magmom
 _atom_site_pbe_cm5_charge
 _atom_site_pbe_ddec_charge
 _atom_site_pbe_ddec_spin_density
 _atom_site_pbe_ddec_sum_bond_order
 _atom_site_pbe_magmom
Cu  Cu0  1  0.93662434  0.24303565  0.28832381  1  0.843448  0.664403  1.776926  0.491  0.827857  0.758317  2.158422  0.605  0.914659  0.822183  2.09394  0.689  0.720442  0.77528  0.715829  2.203308  0.554
Cu  Cu1  1  0.06337930  0.25695967  0.78833103  1  0.843469  0.664434  1.776833  0.491  0.827861  0.758329  2.158418  0.605  0.914692  0.822203  2.093909  0.689  0.720464  0.775269  0.715853  2.203339  0.554
Cu  Cu2  1  0.06337337  0.75696261  0.71167467  1  0.843446  0.664412  1.776944  0.491  0.827828  0.758315  2.1585  0.605  0.914649  0.822185  2.094003  0.689  0.720454  0.775222  0.715838  2.203419  0.554
Cu  Cu3  1  0.93661660  0.74304201  0.21166914  1  0.843394  0.664431  1.776918  0.491  0.82784  0.758343  2.158493  0.605  0.914649  0.822206  2.093998  0.689  0.720461  0.775222  0.715852  2.203433  0.554
H  H4  1  0.11953990  0.15598051  0.40185433  1  0.271561  -0.001665  0.946745  -0.002  0.259153  -0.000201  1.007692  -0.001  0.266925  -0.00055  1.003556  -0.001  0.289163  0.253553  0.000142  1.010935  0.0
H  H5  1  0.88045168  0.34402124  0.90185727  1  0.271456  -0.00166  0.946852  -0.002  0.259071  -0.0002  1.007789  -0.001  0.266842  -0.000549  1.003654  -0.001  0.289139  0.253473  0.000142  1.011026  0.0
H  H6  1  0.88045152  0.84401888  0.59814697  1  0.27146  -0.00166  0.9469  -0.002  0.25909  -0.0002  1.007821  -0.001  0.266862  -0.000549  1.003685  -0.001  0.289152  0.253488  0.000142  1.011059  0.0
H  H7  1  0.11954774  0.65597702  0.09814516  1  0.271472  -0.001659  0.946926  -0.002  0.259096  -0.000201  1.007849  -0.001  0.266867  -0.000549  1.003716  -0.001  0.289148  0.253494  0.000142  1.011086  0.0
H  H8  1  0.39350935  0.32941175  0.28940328  1  0.309615  -0.001216  0.922047  -0.001  0.298123  -3e-05  0.982664  0.0  0.306135  -0.000383  0.977346  -0.001  0.287806  0.292495  0.000282  0.986637  0.0
H  H9  1  0.60649428  0.17058358  0.78940675  1  0.309611  -0.001209  0.921923  -0.001  0.29811  -3.1e-05  0.982561  0.0  0.306124  -0.000383  0.977238  -0.001  0.287823  0.292485  0.000281  0.986537  0.0
H  H10  1  0.60648964  0.67058196  0.71059633  1  0.30963  -0.001214  0.921951  -0.001  0.298139  -3.1e-05  0.982566  0.0  0.306154  -0.000383  0.977242  -0.001  0.287834  0.29251  0.000281  0.986543  0.0
H  H11  1  0.39350631  0.82941355  0.21059398  1  0.30964  -0.001209  0.921924  -0.001  0.298176  -3.1e-05  0.982495  0.0  0.30619  -0.000384  0.977171  -0.001  0.287834  0.292551  0.000281  0.986475  0.0
H  H12  1  0.29244684  0.43312098  0.22781310  1  0.302873  -0.001357  0.885948  -0.001  0.295383  9.3e-05  0.941114  0.0  0.300513  -0.000287  0.940194  0.0  0.3005  0.291593  0.000369  0.942302  0.0
H  H13  1  0.70756079  0.06687396  0.72781733  1  0.302751  -0.00135  0.885923  -0.001  0.29539  9.3e-05  0.940933  0.0  0.30052  -0.000287  0.940009  0.0  0.300488  0.291599  0.000368  0.94212  0.0
H  H14  1  0.70754874  0.56687273  0.77218707  1  0.302806  -0.001358  0.886025  -0.001  0.295321  9.3e-05  0.941195  0.0  0.300454  -0.000287  0.940269  0.0  0.300485  0.291534  0.000369  0.942382  0.0
H  H15  1  0.29244257  0.93312546  0.27218227  1  0.302742  -0.00135  0.885941  -0.001  0.295377  9.3e-05  0.94096  0.0  0.300506  -0.000288  0.940038  0.0  0.300488  0.291588  0.000368  0.94215  0.0
H  H16  1  0.58453523  0.85009565  0.42125549  1  0.117911  -0.000291  0.917849  0.0  0.134522  -7e-06  0.974254  0.0  0.137249  -9.9e-05  0.973017  0.0  0.108652  0.132632  9.3e-05  0.97506  0.0
H  H17  1  0.41545319  0.64991491  0.92126256  1  0.117973  -0.000288  0.917762  0.0  0.1346  -7e-06  0.974151  0.0  0.137328  -9.9e-05  0.97291  0.0  0.108679  0.13271  9.3e-05  0.974966  0.0
H  H18  1  0.41545598  0.14991058  0.57874298  1  0.117894  -0.000286  0.917893  0.0  0.134533  -7e-06  0.97426  0.0  0.137262  -9.9e-05  0.973018  0.0  0.10864  0.132637  9.2e-05  0.975073  0.0
H  H19  1  0.58455594  0.35008223  0.07873818  1  0.117977  -0.000287  0.91781  0.0  0.134568  -7e-06  0.974246  0.0  0.137299  -9.9e-05  0.973006  0.0  0.108644  0.132678  9.3e-05  0.975058  0.0
H  H20  1  0.88846052  0.90186144  0.44729494  1  0.122446  -0.00035  0.927086  0.0  0.13804  4e-06  0.985151  0.0  0.14165  -1.3e-05  0.982917  0.0  0.106823  0.135497  4.3e-05  0.98678  0.0
H  H21  1  0.11152264  0.59814586  0.94730173  1  0.122558  -0.000353  0.926914  0.0  0.138109  4e-06  0.985039  0.0  0.141721  -1.3e-05  0.982801  0.0  0.106855  0.135566  4.4e-05  0.986669  0.0
H  H22  1  0.11152503  0.09814364  0.55270523  1  0.122435  -0.000355  0.927085  0.0  0.137991  4e-06  0.985203  0.0  0.141602  -1.3e-05  0.982973  0.0  0.106805  0.135448  4.3e-05  0.986831  0.0
H  H23  1  0.88848287  0.40185812  0.05269731  1  0.122555  -0.000355  0.926965  0.0  0.138106  4e-06  0.985071  0.0  0.14172  -1.3e-05  0.982836  0.0  0.106845  0.135559  4.4e-05  0.986699  0.0
H  H24  1  0.72856336  0.10100988  0.48405264  1  0.077435  0.003202  0.933316  0.004  0.084184  0.002285  1.001332  0.003  0.086626  0.001625  0.999147  0.002  0.110511  0.082283  0.002787  1.003132  0.003
H  H25  1  0.27141592  0.39899695  0.98405821  1  0.077339  0.0032  0.933359  0.004  0.084093  0.002285  1.00137  0.003  0.086532  0.001625  0.999189  0.002  0.110482  0.082181  0.002787  1.003183  0.003
H  H26  1  0.27142336  0.89899407  0.51594753  1  0.077421  0.003206  0.933281  0.004  0.084163  0.002285  1.001327  0.003  0.086605  0.001625  0.999142  0.002  0.110508  0.082242  0.002788  1.003151  0.003
H  H27  1  0.72857774  0.60100358  0.01594365  1  0.077383  0.003207  0.933347  0.004  0.084091  0.002285  1.001388  0.003  0.086531  0.001625  0.999202  0.002  0.11048  0.082199  0.002787  1.003185  0.003
H  H28  1  0.03990885  0.32679034  0.50187872  1  0.061211  0.006384  0.916261  0.008  0.077851  0.004435  0.978301  0.005  0.077364  0.003067  0.978427  0.004  0.100974  0.077939  0.005402  0.97837  0.006
H  H29  1  0.96008459  0.17321562  0.00188373  1  0.061195  0.006379  0.916344  0.008  0.077829  0.004434  0.978353  0.005  0.077342  0.003067  0.978481  0.004  0.100991  0.077916  0.005401  0.978422  0.006
H  H30  1  0.96008811  0.67321362  0.49812202  1  0.061198  0.006383  0.916333  0.008  0.077843  0.004434  0.978352  0.005  0.077358  0.003066  0.978476  0.004  0.100992  0.077935  0.005401  0.978422  0.006
H  H31  1  0.03991942  0.82678151  0.99811588  1  0.061171  0.006383  0.916321  0.008  0.077821  0.004435  0.978333  0.005  0.077334  0.003067  0.978459  0.004  0.100976  0.077908  0.005402  0.978402  0.006
H  H32  1  0.90430506  0.40578410  0.42890437  1  0.065618  0.001044  0.920023  0.002  0.081721  0.000839  0.984581  0.002  0.08117  0.000528  0.985066  0.001  0.106125  0.081668  0.00111  0.98476  0.002
H  H33  1  0.09569630  0.09422468  0.92891004  1  0.065662  0.001039  0.920063  0.002  0.081765  0.000839  0.984558  0.002  0.081213  0.000528  0.985046  0.001  0.106129  0.08171  0.00111  0.984733  0.002
H  H34  1  0.09569810  0.59422215  0.57109580  1  0.065642  0.001043  0.920053  0.002  0.08174  0.000839  0.984586  0.002  0.081189  0.000528  0.985072  0.001  0.106141  0.081686  0.00111  0.984762  0.002
H  H35  1  0.90430707  0.90577473  0.07108843  1  0.06566  0.001038  0.920048  0.002  0.081753  0.000839  0.984576  0.002  0.081198  0.000528  0.985069  0.001  0.106137  0.081697  0.00111  0.984754  0.002
H  H36  1  0.33382914  0.55429162  0.45561811  1  0.071375  -0.000496  0.940322  0.0  0.090895  -0.000181  1.000422  0.0  0.091029  -0.000173  1.001559  0.0  0.096375  0.090676  -0.000162  0.999805  0.0
H  H37  1  0.66617517  0.94571006  0.95562383  1  0.071464  -0.000501  0.940233  0.0  0.090953  -0.000181  1.000376  0.0  0.091086  -0.000173  1.001515  0.0  0.096406  0.090735  -0.000162  0.999761  0.0
H  H38  1  0.66617476  0.44570893  0.54438036  1  0.071432  -0.000496  0.940302  0.0  0.090939  -0.000181  1.0004  0.0  0.091071  -0.000173  1.001536  0.0  0.096418  0.090719  -0.000162  0.999784  0.0
H  H39  1  0.33382703  0.05429049  0.04437577  1  0.071451  -0.000503  0.940228  0.0  0.090942  -0.000181  1.000345  0.0  0.091075  -0.000173  1.001483  0.0  0.09639  0.09072  -0.000161  0.999727  0.0
H  H40  1  0.42430428  0.39600097  0.42822374  1  0.074776  -0.000153  0.936143  0.0  0.093863  -8.3e-05  0.993405  0.0  0.094688  -6e-05  0.994008  0.0  0.094784  0.093102  -9e-05  0.993302  0.0
H  H41  1  0.57569121  0.10399526  0.92822710  1  0.07469  -0.000156  0.936008  0.0  0.093803  -8.3e-05  0.993277  0.0  0.094629  -6e-05  0.993879  0.0  0.094747  0.093044  -9e-05  0.993176  0.0
H  H42  1  0.57569236  0.60399501  0.57177700  1  0.07471  -0.00015  0.93589  0.0  0.093776  -8.3e-05  0.9932  0.0  0.094599  -6e-05  0.9938  0.0  0.094729  0.093016  -9e-05  0.993096  0.0
H  H43  1  0.42431162  0.89600302  0.07177308  1  0.074789  -0.00016  0.9362  0.0  0.093878  -8.3e-05  0.993433  0.0  0.094705  -6e-05  0.994036  0.0  0.094792  0.093115  -9e-05  0.99333  0.0
H  H44  1  0.17777436  0.57383656  0.32600074  1  0.068566  0.000417  0.929585  0.001  0.082564  0.00022  0.995861  0.001  0.082171  1.7e-05  0.995204  0.001  0.103563  0.082319  0.000357  0.996811  0.001
H  H45  1  0.82223747  0.92616315  0.82600790  1  0.068638  0.000418  0.929549  0.001  0.082591  0.000219  0.995849  0.001  0.082203  1.7e-05  0.995182  0.001  0.103542  0.08234  0.000356  0.996802  0.001
H  H46  1  0.82222687  0.42615829  0.67399830  1  0.068618  0.000416  0.929528  0.001  0.08258  0.00022  0.995825  0.001  0.082192  1.7e-05  0.995159  0.001  0.103572  0.082334  0.000356  0.996773  0.001
H  H47  1  0.17776312  0.07383398  0.17399227  1  0.068613  0.000421  0.929575  0.001  0.082568  0.000219  0.995878  0.001  0.082179  1.7e-05  0.995212  0.001  0.103549  0.082317  0.000356  0.996835  0.001
H  H48  1  0.49054187  0.59392398  0.32852727  1  0.076631  0.006145  0.948412  0.009  0.090114  0.003988  1.010194  0.005  0.089363  0.002771  1.011633  0.004  0.101609  0.090372  0.004885  1.009451  0.006
H  H49  1  0.50946663  0.90607232  0.82853198  1  0.076593  0.006143  0.948528  0.009  0.090104  0.003988  1.010233  0.005  0.089326  0.002771  1.011704  0.004  0.101617  0.090361  0.004885  1.00949  0.006
H  H50  1  0.50945819  0.40607200  0.67147234  1  0.076563  0.006149  0.948467  0.009  0.09008  0.003988  1.010188  0.005  0.089296  0.002772  1.011668  0.004  0.1016  0.09034  0.004885  1.009441  0.006
H  H51  1  0.49053450  0.09392595  0.17146763  1  0.076594  0.006154  0.948523  0.009  0.09008  0.003987  1.010259  0.005  0.089315  0.002771  1.011715  0.004  0.101595  0.090336  0.004884  1.009517  0.006
C  C52  1  0.82889355  0.89735247  0.32850198  1  0.685625  -0.009414  3.836071  -0.008  0.646577  -0.00348  4.139298  -0.004  0.684443  -0.00387  4.130993  -0.004  0.200381  0.62099  -0.003109  4.143679  -0.004
C  C53  1  0.17110609  0.60265408  0.82850814  1  0.685997  -0.009426  3.835922  -0.008  0.646991  -0.00348  4.139085  -0.004  0.684857  -0.003873  4.130763  -0.004  0.200526  0.621406  -0.00311  4.143468  -0.004
C  C54  1  0.17111078  0.10265265  0.67149875  1  0.685786  -0.009397  3.836062  -0.008  0.646892  -0.003481  4.139051  -0.004  0.684757  -0.003872  4.130738  -0.004  0.200557  0.621304  -0.00311  4.143424  -0.004
C  C55  1  0.82892107  0.39734879  0.17148977  1  0.686107  -0.009405  3.836071  -0.008  0.647134  -0.00348  4.139194  -0.004  0.685008  -0.003871  4.130871  -0.004  0.200541  0.621542  -0.00311  4.143586  -0.004
C  C56  1  0.76197530  0.92954827  0.40837570  1  -0.290309  0.0062  3.650884  0.007  -0.334348  0.00397  3.897748  0.004  -0.340238  0.002728  3.902546  0.003  -0.158734  -0.330144  0.005118  3.893943  0.005
C  C57  1  0.23800811  0.57046220  0.90838169  1  -0.290615  0.006208  3.65067  0.007  -0.334693  0.00397  3.897605  0.004  -0.340579  0.00273  3.902383  0.003  -0.158814  -0.330496  0.005118  3.89381  0.005
C  C58  1  0.23801302  0.07045910  0.59162391  1  -0.290304  0.006199  3.650793  0.007  -0.334369  0.00397  3.897624  0.004  -0.340267  0.002729  3.902435  0.003  -0.158725  -0.33016  0.005118  3.893813  0.005
C  C59  1  0.76200145  0.42953950  0.09161848  1  -0.290681  0.006201  3.650914  0.007  -0.334735  0.00397  3.897789  0.004  -0.340639  0.002728  3.902585  0.003  -0.158766  -0.330526  0.005118  3.893979  0.005
C  C60  1  0.75505466  0.09243898  0.42271125  1  0.023242  -0.000958  3.62526  -0.003  0.001163  0.001839  3.875099  0.0  0.001557  0.000345  3.889623  -0.001  -0.007366  0.000912  0.002998  3.865755  0.0
C  C61  1  0.24493193  0.40757088  0.92271858  1  0.023618  -0.000961  3.624709  -0.003  0.001625  0.001839  3.874434  0.0  0.002026  0.000342  3.888946  -0.001  -0.007228  0.001383  0.002998  3.865083  0.0
C  C62  1  0.24493025  0.90756838  0.57728836  1  0.023453  -0.000962  3.624948  -0.003  0.001379  0.001839  3.874798  0.0  0.001773  0.000343  3.889329  -0.001  -0.007258  0.001147  0.002997  3.865441  0.0
C  C63  1  0.75506685  0.59242966  0.07728329  1  0.023529  -0.000975  3.624866  -0.003  0.001648  0.001838  3.874344  0.0  0.002048  0.000346  3.888869  -0.001  -0.007209  0.001386  0.002998  3.864988  0.0
C  C64  1  0.53998071  0.12152467  0.38266507  1  0.620163  -0.000191  3.879179  0.0  0.570997  0.001636  4.191506  0.002  0.60409  0.000801  4.185507  0.001  0.19976  0.548341  0.002569  4.194862  0.003
C  C65  1  0.46000753  0.37848037  0.88267317  1  0.619793  -0.000182  3.879634  0.001  0.570655  0.001636  4.191917  0.002  0.603744  0.000802  4.185925  0.001  0.199658  0.548003  0.00257  4.195261  0.003
C  C66  1  0.46000377  0.87847813  0.61733340  1  0.61994  -0.000178  3.879547  0.001  0.570824  0.001636  4.191815  0.002  0.603914  0.000802  4.185822  0.001  0.199699  0.548169  0.002569  4.195154  0.003
C  C67  1  0.53999039  0.62151106  0.11732982  1  0.619857  -0.000188  3.879615  0.0  0.570789  0.001636  4.191776  0.002  0.603876  0.0008  4.185785  0.001  0.199702  0.548133  0.002569  4.195125  0.003
C  C68  1  0.04290234  0.35006018  0.44056448  1  0.030789  -0.006534  3.647776  -0.006  -0.029719  -0.001814  3.928348  -0.003  -0.023623  -0.002882  3.942443  -0.003  -0.071875  -0.033313  -0.00079  3.918859  -0.002
C  C69  1  0.95708888  0.14994182  0.94057026  1  0.030695  -0.00651  3.64783  -0.006  -0.02968  -0.001814  3.928281  -0.003  -0.023586  -0.00288  3.942374  -0.003  -0.071856  -0.03326  -0.000791  3.918777  -0.002
C  C70  1  0.95709634  0.64994378  0.55943512  1  0.030754  -0.006528  3.647851  -0.006  -0.029677  -0.001814  3.92833  -0.003  -0.023584  -0.002882  3.942424  -0.003  -0.07186  -0.033273  -0.000792  3.918834  -0.002
C  C71  1  0.04291225  0.85005645  0.05942991  1  0.030766  -0.006522  3.64787  -0.006  -0.029662  -0.001814  3.928371  -0.003  -0.023568  -0.002881  3.942465  -0.003  -0.071862  -0.03325  -0.000791  3.918863  -0.002
C  C72  1  0.28874708  0.45474801  0.41785899  1  -0.147994  0.000936  3.678047  0.002  -0.186739  0.000649  3.938147  0.001  -0.189229  0.000357  3.95226  0.001  -0.160063  -0.184932  0.000905  3.928358  0.001
C  C73  1  0.71125470  0.04525044  0.91786090  1  -0.148029  0.000939  3.678241  0.002  -0.186858  0.000649  3.938363  0.001  -0.189343  0.000357  3.952461  0.001  -0.160106  -0.185058  0.000905  3.928582  0.001
C  C74  1  0.71125575  0.54525026  0.58214118  1  -0.148024  0.000932  3.677949  0.002  -0.186773  0.000649  3.938019  0.001  -0.189248  0.000357  3.952104  0.001  -0.160089  -0.184963  0.000905  3.928228  0.001
C  C75  1  0.28874706  0.95474555  0.08213870  1  -0.148199  0.000958  3.678385  0.002  -0.186942  0.000648  3.938412  0.001  -0.189428  0.000358  3.952514  0.001  -0.160124  -0.185122  0.000905  3.928613  0.001
C  C76  1  0.31056651  0.51354988  0.33682227  1  0.067656  -0.003416  3.615899  -0.004  0.015051  0.000158  3.887152  -0.001  0.02127  -0.001071  3.900528  -0.002  -0.079246  0.011442  0.001271  3.878353  0.0
C  C77  1  0.68944020  0.98644647  0.83682805  1  0.067652  -0.003407  3.616168  -0.004  0.015128  0.000157  3.887281  -0.001  0.021371  -0.001072  3.900646  -0.002  -0.079159  0.011511  0.001271  3.878483  0.0
C  C78  1  0.68943472  0.48644497  0.66317621  1  0.067774  -0.003415  3.615769  -0.004  0.015191  0.000157  3.886939  -0.001  0.021434  -0.001073  3.900301  -0.002  -0.079164  0.011579  0.00127  3.878127  0.0
C  C79  1  0.31056317  0.01355294  0.16317268  1  0.067731  -0.003449  3.616028  -0.004  0.015181  0.000159  3.887155  -0.001  0.021414  -0.001074  3.900522  -0.002  -0.079136  0.01157  0.001271  3.878339  0.0
N  N80  1  0.98078523  0.20505742  0.39856710  1  -0.40775  0.108566  3.280915  0.138  -0.367862  0.072451  3.558008  0.097  -0.401836  0.057124  3.57601  0.083  -0.502217  -0.347246  0.080723  3.547204  0.103
N  N81  1  0.01920521  0.29494545  0.89857165  1  -0.407572  0.108557  3.280387  0.138  -0.367824  0.072449  3.557546  0.097  -0.4018  0.05712  3.575545  0.083  -0.502223  -0.347219  0.080716  3.546776  0.103
N  N82  1  0.01920661  0.79494653  0.60143307  1  -0.407614  0.108542  3.280763  0.138  -0.367862  0.072445  3.557991  0.097  -0.401831  0.057118  3.575978  0.083  -0.502268  -0.347259  0.080716  3.547219  0.103
N  N83  1  0.98079475  0.70505396  0.10142852  1  -0.407535  0.108561  3.280569  0.138  -0.367801  0.072453  3.557714  0.097  -0.401773  0.057122  3.575702  0.083  -0.502205  -0.347186  0.080725  3.546941  0.103
N  N84  1  0.26993168  0.38814048  0.28113386  1  -0.594376  0.102762  3.123801  0.132  -0.580184  0.067256  3.407185  0.091  -0.612221  0.052994  3.407215  0.079  -0.641401  -0.561358  0.074677  3.409176  0.096
N  N85  1  0.73007822  0.11185709  0.78113873  1  -0.594218  0.102727  3.1236  0.132  -0.580221  0.067254  3.407037  0.091  -0.612257  0.052991  3.407047  0.079  -0.641414  -0.561393  0.074674  3.409022  0.096
N  N86  1  0.73006837  0.61185551  0.71886518  1  -0.594368  0.102755  3.123701  0.132  -0.580209  0.067257  3.407097  0.091  -0.612242  0.052996  3.4071  0.079  -0.641451  -0.561376  0.074678  3.409078  0.096
N  N87  1  0.26992515  0.88814232  0.21886144  1  -0.594279  0.102726  3.123634  0.132  -0.580278  0.067248  3.406974  0.091  -0.612315  0.05299  3.40699  0.079  -0.641436  -0.561446  0.074668  3.408968  0.096
O  O88  1  0.33414991  0.05486099  0.40797353  1  -0.606331  0.00789  1.954585  0.011  -0.555889  0.005053  2.181366  0.007  -0.580008  0.002772  2.173581  0.004  -0.320608  -0.538249  0.007493  2.185766  0.01
O  O89  1  0.66583372  0.44513851  0.90798094  1  -0.606214  0.007888  1.954706  0.011  -0.555729  0.005054  2.181403  0.007  -0.579844  0.002774  2.173622  0.004  -0.320564  -0.53809  0.007494  2.185807  0.01
O  O90  1  0.66583180  0.94513953  0.59202551  1  -0.606301  0.007886  1.954722  0.011  -0.55588  0.005054  2.181465  0.007  -0.580005  0.002774  2.173703  0.004  -0.320653  -0.538241  0.007494  2.185864  0.01
O  O91  1  0.33416527  0.55485519  0.09202149  1  -0.606241  0.007891  1.954843  0.011  -0.555829  0.005055  2.181533  0.007  -0.579959  0.002774  2.173777  0.004  -0.3206  -0.538193  0.007496  2.185936  0.01
O  O92  1  0.58439816  0.21112127  0.32545857  1  -0.620512  0.030764  2.065009  0.043  -0.574874  0.023495  2.326186  0.035  -0.607758  0.018252  2.315815  0.029  -0.325265  -0.552862  0.026918  2.333526  0.037
O  O93  1  0.41559745  0.28888340  0.82546596  1  -0.620442  0.03078  2.065258  0.043  -0.574892  0.023505  2.326507  0.035  -0.60778  0.018259  2.316141  0.029  -0.32532  -0.552873  0.026928  2.333839  0.038
O  O94  1  0.41560329  0.78888497  0.67454104  1  -0.620479  0.030774  2.065189  0.043  -0.574856  0.023501  2.326342  0.035  -0.607737  0.018256  2.315968  0.029  -0.325285  -0.552829  0.026925  2.333658  0.038
O  O95  1  0.58439833  0.71110346  0.17453817  1  -0.620425  0.030787  2.065184  0.043  -0.574915  0.02351  2.3264  0.035  -0.607804  0.018263  2.31604  0.029  -0.325349  -0.55288  0.026935  2.333709  0.038
O  O96  1  0.84372349  0.99172375  0.27560024  1  -0.625893  0.010281  2.014664  0.017  -0.592627  0.007075  2.281173  0.013  -0.622654  0.00354  2.266281  0.009  -0.32399  -0.571927  0.010771  2.291235  0.017
O  O97  1  0.15627889  0.50828359  0.77560620  1  -0.626185  0.010273  2.014741  0.017  -0.592899  0.007071  2.281154  0.013  -0.622969  0.003537  2.266337  0.009  -0.324091  -0.5722  0.010766  2.291227  0.017
O  O98  1  0.15627454  0.00828249  0.72439993  1  -0.626024  0.01027  2.01477  0.017  -0.592775  0.007074  2.281143  0.013  -0.62283  0.003538  2.266302  0.009  -0.324097  -0.572072  0.010769  2.291202  0.017
O  O99  1  0.84378168  0.49172503  0.22439228  1  -0.626071  0.010271  2.014612  0.017  -0.593  0.007068  2.281278  0.013  -0.623014  0.003535  2.266338  0.009  -0.324122  -0.572297  0.010763  2.291356  0.017
O  O100  1  0.86459890  0.76702626  0.31918994  1  -0.597812  0.077026  2.011385  0.103  -0.565774  0.052022  2.280931  0.074  -0.6033  0.040272  2.269363  0.062  -0.336713  -0.541004  0.059395  2.288841  0.081
O  O101  1  0.13537190  0.73297676  0.81919362  1  -0.597832  0.077038  2.011203  0.103  -0.565849  0.052028  2.28079  0.074  -0.603368  0.040278  2.269214  0.062  -0.336735  -0.541078  0.059401  2.288695  0.081
O  O102  1  0.13539636  0.23297770  0.68081080  1  -0.59789  0.077031  2.01133  0.103  -0.565931  0.052026  2.280833  0.074  -0.603446  0.040275  2.269256  0.062  -0.33678  -0.541167  0.059403  2.288741  0.081
O  O103  1  0.86462079  0.26701807  0.18080260  1  -0.597966  0.077029  2.01131  0.103  -0.565936  0.052023  2.280815  0.074  -0.60346  0.040274  2.269241  0.062  -0.336753  -0.541172  0.059398  2.288723  0.081
