# generated using pymatgen
data_Cu2H3C4SN2Cl
_symmetry_space_group_name_H-M   'P 1'
_cell_length_a   3.81103056
_cell_length_b   7.94458690
_cell_length_c   10.25432994
_cell_angle_alpha   97.02349058
_cell_angle_beta   91.38137365
_cell_angle_gamma   96.39981156
_symmetry_Int_Tables_number   1
_chemical_formula_structural   Cu2H3C4SN2Cl
_chemical_formula_sum   'Cu4 H6 C8 S2 N4 Cl2'
_cell_volume   305.99679244
_cell_formula_units_Z   2
loop_
 _symmetry_equiv_pos_site_id
 _symmetry_equiv_pos_as_xyz
  1  'x, y, z'
loop_
 _atom_site_type_symbol
 _atom_site_label
 _atom_site_symmetry_multiplicity
 _atom_site_fract_x
 _atom_site_fract_y
 _atom_site_fract_z
 _atom_site_occupancy
 _atom_site_pbe_bader_spin_density
 _atom_site_pbe_cm5_charge
 _atom_site_pbe_ddec_charge
 _atom_site_pbe_ddec_spin_density
 _atom_site_pbe_ddec_sum_bond_order
 _atom_site_pbe_magmom
Cu  Cu0  1  0.15052560  0.60760809  0.88721966  1  0  0.401385  0.370614  0  2.619154  0
Cu  Cu1  1  0.84947515  0.39239793  0.11277571  1  0  0.401405  0.370663  0  2.619168  0
Cu  Cu2  1  0.58150852  0.93252115  0.88119628  1  0  0.370161  0.282217  0  2.458601  0
Cu  Cu3  1  0.41847613  0.06748343  0.11881246  1  0  0.370195  0.282195  0  2.458677  0
H  H4  1  0.73352496  0.50776553  0.39092946  1  0  0.109585  0.092009  0  1.017194  0
H  H5  1  0.26646380  0.49223272  0.60906604  1  0  0.109578  0.092015  0  1.017222  0
H  H6  1  0.43020410  0.74891972  0.51258298  1  0  0.094206  0.123875  0  1.065383  0
H  H7  1  0.56982129  0.25107766  0.48740597  1  0  0.09412  0.123626  0  1.065261  0
H  H8  1  0.28032901  0.98348959  0.37947571  1  0  0.108633  0.092618  0  1.019313  0
H  H9  1  0.71967860  0.01651143  0.62053097  1  0  0.108678  0.09263  0  1.019353  0
C  C10  1  0.62510635  0.73499260  0.14981300  1  0  0.221817  0.374292  0  3.945126  0
C  C11  1  0.37486212  0.26502325  0.85018493  1  0  0.221976  0.374568  0  3.944901  0
C  C12  1  0.65110890  0.61291009  0.34301130  1  0  0.059493  0.1457  0  3.897381  0
C  C13  1  0.34888033  0.38709071  0.65698737  1  0  0.059534  0.145604  0  3.897487  0
C  C14  1  0.48874093  0.74510685  0.40885971  1  0  -0.096332  -0.196216  0  3.958792  0
C  C15  1  0.51126733  0.25489802  0.59116195  1  0  -0.096336  -0.195973  0  3.958915  0
C  C16  1  0.40599243  0.87357367  0.33713075  1  0  0.055441  0.14247  0  3.87458  0
C  C17  1  0.59403294  0.12642372  0.66286210  1  0  0.055474  0.142598  0  3.874697  0
S  S18  1  0.69686372  0.72067694  0.98250299  1  0  -0.281094  -0.429103  0  3.965229  0
S  S19  1  0.30311974  0.27932126  0.01750026  1  0  -0.281126  -0.429179  0  3.965092  0
N  N20  1  0.47643864  0.87051762  0.20863688  1  0  -0.372638  -0.249433  0  3.600434  0
N  N21  1  0.52355299  0.12948193  0.79135975  1  0  -0.372693  -0.249722  0  3.599917  0
N  N22  1  0.71651095  0.60617529  0.21412896  1  0  -0.363775  -0.277656  0  3.578826  0
N  N23  1  0.28349904  0.39381047  0.78587240  1  0  -0.363793  -0.277605  0  3.579009  0
Cl  Cl24  1  0.00613030  0.76716211  0.70616337  1  0  -0.306948  -0.471415  0  1.394636  0
Cl  Cl25  1  0.99387877  0.23283255  0.29383590  1  0  -0.306948  -0.47139  0  1.394618  0
