# generated using pymatgen
data_ZnH20C16N3O5
_symmetry_space_group_name_H-M   'P 1'
_cell_length_a   8.83382047
_cell_length_b   9.60047964
_cell_length_c   10.89699056
_cell_angle_alpha   88.05088762
_cell_angle_beta   79.26899853
_cell_angle_gamma   70.83344020
_symmetry_Int_Tables_number   1
_chemical_formula_structural   ZnH20C16N3O5
_chemical_formula_sum   'Zn2 H40 C32 N6 O10'
_cell_volume   857.30194315
_cell_formula_units_Z   2
loop_
 _symmetry_equiv_pos_site_id
 _symmetry_equiv_pos_as_xyz
  1  'x, y, z'
loop_
 _atom_site_type_symbol
 _atom_site_label
 _atom_site_symmetry_multiplicity
 _atom_site_fract_x
 _atom_site_fract_y
 _atom_site_fract_z
 _atom_site_occupancy
 _atom_site_hle17_bader_spin_density
 _atom_site_hle17_ddec_charge
 _atom_site_hle17_ddec_spin_density
 _atom_site_hle17_ddec_sum_bond_order
 _atom_site_hle17_magmom
 _atom_site_hse06_10hf_bader_spin_density
 _atom_site_hse06_10hf_ddec_charge
 _atom_site_hse06_10hf_ddec_spin_density
 _atom_site_hse06_10hf_ddec_sum_bond_order
 _atom_site_hse06_10hf_magmom
 _atom_site_hse06_bader_spin_density
 _atom_site_hse06_ddec_charge
 _atom_site_hse06_ddec_spin_density
 _atom_site_hse06_ddec_sum_bond_order
 _atom_site_hse06_magmom
 _atom_site_pbe_bader_spin_density
 _atom_site_pbe_cm5_charge
 _atom_site_pbe_ddec_charge
 _atom_site_pbe_ddec_spin_density
 _atom_site_pbe_ddec_sum_bond_order
 _atom_site_pbe_magmom
Zn  Zn0  1  0.81169796  0.31520867  0.74722705  1  0  0.996917  0  1.854135  0  0  0.801249  0  2.322779  0  0  0.851833  0  2.265673  0  0  0.686519  0.765406  0  2.362545  0
Zn  Zn1  1  0.18830379  0.68478985  0.25277363  1  0  0.996885  0  1.854115  0  0  0.801262  0  2.322769  0  0  0.851843  0  2.26566  0  0  0.686505  0.765416  0  2.362539  0
H  H2  1  0.98343279  0.46248030  0.91373892  1  0  0.07496  0  0.939905  0  0  0.085646  0  1.002471  0  0  0.087792  0  1.000698  0  0  0.120187  0.084268  0  1.003595  0
H  H3  1  0.01656626  0.53751934  0.08626307  1  0  0.074974  0  0.93996  0  0  0.085661  0  1.002518  0  0  0.08781  0  1.000742  0  0  0.120184  0.08429  0  1.003626  0
H  H4  1  0.23382811  0.54095538  0.88237049  1  0  0.116722  0  0.938646  0  0  0.127009  0  0.996051  0  0  0.130263  0  0.994939  0  0  0.116285  0.12438  0  0.997493  0
H  H5  1  0.76617056  0.45904536  0.11763245  1  0  0.11676  0  0.938629  0  0  0.127044  0  0.996037  0  0  0.130298  0  0.994925  0  0  0.116307  0.124415  0  0.997479  0
H  H6  1  0.40564181  0.51169977  0.66736489  1  0  0.111324  0  0.958604  0  0  0.122017  0  1.014135  0  0  0.12467  0  1.012662  0  0  0.110992  0.120278  0  1.014818  0
H  H7  1  0.59435840  0.48829986  0.33263784  1  0  0.111303  0  0.958626  0  0  0.121998  0  1.014149  0  0  0.124651  0  1.012678  0  0  0.110995  0.120258  0  1.014832  0
H  H8  1  0.32113540  0.40447564  0.49359737  1  0  0.136973  0  0.98202  0  0  0.143968  0  1.044857  0  0  0.147968  0  1.042845  0  0  0.112558  0.141624  0  1.045417  0
H  H9  1  0.67886559  0.59552508  0.50640520  1  0  0.137008  0  0.981945  0  0  0.143993  0  1.044796  0  0  0.147992  0  1.042784  0  0  0.11255  0.141648  0  1.04536  0
H  H10  1  0.13192922  0.28155821  0.42659618  1  0  0.112281  0  0.906923  0  0  0.12238  0  0.969308  0  0  0.125974  0  0.965638  0  0  0.13129  0.119704  0  0.971841  0
H  H11  1  0.86807175  0.71844252  0.57340456  1  0  0.112259  0  0.906942  0  0  0.12237  0  0.969331  0  0  0.125963  0  0.965662  0  0  0.131285  0.119694  0  0.971864  0
H  H12  1  0.55703036  0.20967148  0.41363336  1  0  0.120469  0  0.941047  0  0  0.132189  0  1.007497  0  0  0.135085  0  1.005816  0  0  0.105783  0.130058  0  1.008194  0
H  H13  1  0.44297060  0.79032927  0.58636555  1  0  0.120476  0  0.941045  0  0  0.132194  0  1.007494  0  0  0.13509  0  1.005812  0  0  0.105788  0.130062  0  1.008193  0
H  H14  1  0.73505848  0.05361979  0.39085579  1  0  0.107463  0  0.932483  0  0  0.122891  0  0.988127  0  0  0.125207  0  0.987656  0  0  0.102969  0.120948  0  0.98868  0
H  H15  1  0.26494249  0.94638094  0.60914495  1  0  0.107475  0  0.932474  0  0  0.122899  0  0.988117  0  0  0.125215  0  0.987647  0  0  0.102967  0.120956  0  0.98867  0
H  H16  1  0.45136242  0.10440599  0.61563895  1  0  0.068747  0  0.934887  0  0  0.086401  0  0.994072  0  0  0.087307  0  0.99482  0  0  0.089721  0.085445  0  0.993788  0
H  H17  1  0.54863778  0.89559366  0.38436102  1  0  0.068743  0  0.934889  0  0  0.086395  0  0.994078  0  0  0.087301  0  0.994828  0  0  0.089718  0.08544  0  0.993795  0
H  H18  1  0.62384961  0.94475842  0.58765004  1  0  0.060364  0  0.934357  0  0  0.078596  0  0.996427  0  0  0.079192  0  0.996806  0  0  0.088167  0.078181  0  0.996229  0
H  H19  1  0.37615174  0.05524121  0.41234975  1  0  0.060366  0  0.934374  0  0  0.0786  0  0.996443  0  0  0.079197  0  0.996821  0  0  0.088175  0.078185  0  0.996244  0
H  H20  1  0.92774216  0.14891486  0.40526816  1  0  0.307024  0  0.945748  0  0  0.283061  0  1.015956  0  0  0.293572  0  1.008097  0  0  0.305391  0.275479  0  1.021822  0
H  H21  1  0.07225996  0.85108586  0.59473148  1  0  0.306988  0  0.945792  0  0  0.283029  0  1.015996  0  0  0.29354  0  1.008138  0  0  0.305389  0.275448  0  1.021862  0
H  H22  1  0.04400842  0.78094648  0.82323116  1  0  0.076178  0  0.969334  0  0  0.090411  0  1.035247  0  0  0.091462  0  1.036292  0  0  0.085324  0.08917  0  1.035655  0
H  H23  1  0.95599215  0.21905207  0.17676786  1  0  0.076174  0  0.969332  0  0  0.090417  0  1.035239  0  0  0.091469  0  1.036286  0  0  0.085326  0.089175  0  1.035647  0
H  H24  1  0.05937395  0.89532184  0.94161005  1  0  0.113547  0  0.95217  0  0  0.126259  0  1.015702  0  0  0.128685  0  1.014903  0  0  0.100537  0.1236  0  1.018147  0
H  H25  1  0.94062509  0.10467782  0.05838918  1  0  0.113538  0  0.952127  0  0  0.126269  0  1.015647  0  0  0.128698  0  1.01485  0  0  0.10054  0.123609  0  1.018095  0
H  H26  1  0.86480527  0.77646146  0.03287924  1  0  0.05287  0  0.95969  0  0  0.072037  0  1.023562  0  0  0.072279  0  1.024809  0  0  0.082921  0.071641  0  1.022869  0
H  H27  1  0.13519453  0.22353930  0.96711985  1  0  0.052868  0  0.959702  0  0  0.072032  0  1.023573  0  0  0.072274  0  1.024818  0  0  0.082916  0.071637  0  1.022879  0
H  H28  1  0.75682165  0.96469511  0.02031214  1  0  0.066222  0  0.939094  0  0  0.085667  0  1.000025  0  0  0.086343  0  1.000604  0  0  0.090884  0.085312  0  0.999446  0
H  H29  1  0.24317853  0.03530454  0.97968600  1  0  0.0662  0  0.93912  0  0  0.085642  0  1.000054  0  0  0.086315  0  1.000632  0  0  0.090871  0.085287  0  0.999476  0
H  H30  1  0.79213833  0.72620962  0.82656764  1  0  0.047901  0  0.954394  0  0  0.067263  0  1.019861  0  0  0.067234  0  1.021482  0  0  0.079876  0.067144  0  1.01896  0
H  H31  1  0.20786341  0.27378892  0.17343121  1  0  0.047909  0  0.954357  0  0  0.067236  0  1.019885  0  0  0.067206  0  1.021504  0  0  0.079849  0.067116  0  1.018984  0
H  H32  1  0.66443269  0.91106757  0.82994551  1  0  0.059744  0  0.93215  0  0  0.080395  0  0.991166  0  0  0.081301  0  0.991421  0  0  0.08597  0.079888  0  0.990963  0
H  H33  1  0.33556750  0.08893208  0.17005354  1  0  0.05973  0  0.932206  0  0  0.080394  0  0.991219  0  0  0.081298  0  0.991474  0  0  0.085979  0.079887  0  0.991016  0
H  H34  1  0.63066062  0.69004768  0.03564059  1  0  0.059314  0  0.956972  0  0  0.077151  0  1.021464  0  0  0.077664  0  1.022482  0  0  0.085346  0.076664  0  1.020848  0
H  H35  1  0.36933996  0.30995086  0.96435935  1  0  0.05932  0  0.95699  0  0  0.07716  0  1.021464  0  0  0.077672  0  1.022485  0  0  0.085347  0.076672  0  1.020849  0
H  H36  1  0.49573042  0.87106264  0.03292056  1  0  0.068571  0  0.93723  0  0  0.089052  0  0.995498  0  0  0.089661  0  0.996329  0  0  0.091001  0.088664  0  0.99475  0
H  H37  1  0.50426977  0.12893701  0.96707850  1  0  0.068579  0  0.937259  0  0  0.089068  0  0.995505  0  0  0.089677  0  0.996336  0  0  0.091009  0.088682  0  0.994756  0
H  H38  1  0.41472002  0.80795148  0.83938841  1  0  0.086137  0  0.934766  0  0  0.103372  0  0.99272  0  0  0.105152  0  0.992224  0  0  0.089915  0.101815  0  0.99382  0
H  H39  1  0.58527901  0.19204818  0.16061083  1  0  0.086136  0  0.934747  0  0  0.103357  0  0.99272  0  0  0.105136  0  0.992227  0  0  0.089906  0.101801  0  0.993821  0
H  H40  1  0.39024326  0.68388262  0.96198997  1  0  0.116886  0  0.944647  0  0  0.128975  0  1.009536  0  0  0.132141  0  1.007543  0  0  0.099334  0.126196  0  1.012394  0
H  H41  1  0.60975808  0.31611702  0.03800891  1  0  0.116858  0  0.944621  0  0  0.128972  0  1.009495  0  0  0.132139  0  1.007501  0  0  0.099346  0.126192  0  1.012353  0
C  C42  1  0.06499015  0.44922500  0.82334574  1  0  0.140006  0  3.73003  0  0  0.105887  0  3.993424  0  0  0.113447  0  4.009963  0  0  0.055558  0.100583  0  3.980963  0
C  C43  1  0.93500967  0.55077573  0.17665609  1  0  0.139969  0  3.730188  0  0  0.105861  0  3.993553  0  0  0.113422  0  4.010089  0  0  0.055569  0.10056  0  3.981091  0
C  C44  1  0.20247370  0.49431637  0.80471705  1  0  -0.119878  0  3.704372  0  0  -0.136391  0  3.96368  0  0  -0.142244  0  3.982075  0  0  -0.076965  -0.129904  0  3.949898  0
C  C45  1  0.79752651  0.50568326  0.19528476  1  0  -0.119899  0  3.704362  0  0  -0.136418  0  3.963678  0  0  -0.142273  0  3.982074  0  0  -0.076972  -0.129934  0  3.949895  0
C  C46  1  0.29784195  0.47719222  0.68528170  1  0  0.024663  0  3.670634  0  0  0.003146  0  3.926536  0  0  0.00845  0  3.942134  0  0  -0.059621  -0.000863  0  3.915511  0
C  C47  1  0.70215787  0.52280851  0.31472105  1  0  0.024738  0  3.67054  0  0  0.003232  0  3.926436  0  0  0.008536  0  3.942033  0  0  -0.059591  -0.000777  0  3.915412  0
C  C48  1  0.25351520  0.41545775  0.58924019  1  0  -0.138758  0  3.655702  0  0  -0.162825  0  3.908653  0  0  -0.169524  0  3.929089  0  0  -0.076597  -0.16068  0  3.895672  0
C  C49  1  0.74648308  0.58454410  0.41076277  1  0  -0.138851  0  3.655602  0  0  -0.162922  0  3.908583  0  0  -0.169619  0  3.929013  0  0  -0.076629  -0.160777  0  3.895605  0
C  C50  1  0.11600506  0.37039189  0.61637759  1  0  0.194492  0  3.813356  0  0  0.198471  0  4.05701  0  0  0.202601  0  4.080215  0  0  0.114271  0.195284  0  4.041955  0
C  C51  1  0.88399399  0.62960776  0.38362439  1  0  0.194597  0  3.81331  0  0  0.198598  0  4.05697  0  0  0.202728  0  4.080171  0  0  0.114316  0.195399  0  4.041927  0
C  C52  1  0.06027226  0.30486171  0.52149811  1  0  0.038535  0  3.599676  0  0  -0.01082  0  3.868456  0  0  -0.002154  0  3.876814  0  0  0.072974  -0.01645  0  3.863066  0
C  C53  1  0.93972795  0.69513792  0.47850369  1  0  0.038551  0  3.599643  0  0  -0.010851  0  3.868476  0  0  -0.002185  0  3.876832  0  0  0.072955  -0.016478  0  3.863087  0
C  C54  1  0.71152713  0.19863257  0.54237514  1  0  0.590878  0  3.710479  0  0  0.543207  0  4.001338  0  0  0.572386  0  4.002553  0  0  0.256876  0.524915  0  3.998844  0
C  C55  1  0.28847267  0.80136818  0.45762395  1  0  0.59085  0  3.710536  0  0  0.543184  0  4.001386  0  0  0.572361  0  4.002602  0  0  0.256881  0.524907  0  3.998868  0
C  C56  1  0.63814663  0.12281483  0.46360180  1  0  -0.267394  0  3.686388  0  0  -0.304197  0  3.935625  0  0  -0.310344  0  3.945203  0  0  -0.160075  -0.299529  0  3.927845  0
C  C57  1  0.36185241  0.87718483  0.53639744  1  0  -0.267423  0  3.686433  0  0  -0.304222  0  3.935667  0  0  -0.310367  0  3.945244  0  0  -0.160073  -0.299557  0  3.927883  0
C  C58  1  0.54179892  0.03323371  0.54053826  1  0  -0.078116  0  3.691859  0  0  -0.119081  0  3.953687  0  0  -0.119538  0  3.968517  0  0  -0.164004  -0.118885  0  3.943759  0
C  C59  1  0.45820127  0.96676594  0.45946171  1  0  -0.078105  0  3.691875  0  0  -0.119083  0  3.953709  0  0  -0.119541  0  3.968539  0  0  -0.164007  -0.118889  0  3.943782  0
C  C60  1  0.93624954  0.01167212  0.79830354  1  0  0.706508  0  3.828331  0  0  0.662398  0  4.123341  0  0  0.695838  0  4.116411  0  0  0.211726  0.639742  0  4.126367  0
C  C61  1  0.06375065  0.98832753  0.20169552  1  0  0.706454  0  3.828434  0  0  0.66236  0  4.123446  0  0  0.695803  0  4.116518  0  0  0.2117  0.639704  0  4.126472  0
C  C62  1  0.97750534  0.88072276  0.88212128  1  0  -0.282199  0  3.692896  0  0  -0.320005  0  3.942112  0  0  -0.326277  0  3.950854  0  0  -0.174033  -0.315321  0  3.937333  0
C  C63  1  0.02249485  0.11927689  0.11787777  1  0  -0.282171  0  3.692874  0  0  -0.319993  0  3.942061  0  0  -0.326278  0  3.95082  0  0  -0.174022  -0.315307  0  3.937282  0
C  C64  1  0.82536828  0.86210813  0.96508590  1  0  -0.076699  0  3.689156  0  0  -0.117814  0  3.950937  0  0  -0.117991  0  3.965429  0  0  -0.16499  -0.117482  0  3.940789  0
C  C65  1  0.17463229  0.13789041  0.03491313  1  0  -0.076754  0  3.689219  0  0  -0.11784  0  3.951004  0  0  -0.118002  0  3.965472  0  0  -0.164997  -0.117509  0  3.940855  0
C  C66  1  0.71584966  0.81999383  0.89057508  1  0  -0.115016  0  3.700701  0  0  -0.155523  0  3.966694  0  0  -0.157069  0  3.982358  0  0  -0.171786  -0.154417  0  3.955841  0
C  C67  1  0.28415207  0.18000470  0.10942377  1  0  -0.114911  0  3.700646  0  0  -0.155447  0  3.966662  0  0  -0.156987  0  3.982315  0  0  -0.171754  -0.15434  0  3.955807  0
C  C68  1  0.57876187  0.77704864  0.97250073  1  0  -0.080844  0  3.683158  0  0  -0.120714  0  3.94332  0  0  -0.120922  0  3.957566  0  0  -0.164714  -0.120035  0  3.932699  0
C  C69  1  0.42123832  0.22295101  0.02749832  1  0  -0.080933  0  3.683176  0  0  -0.120776  0  3.943334  0  0  -0.120987  0  3.957579  0  0  -0.164738  -0.120098  0  3.932715  0
C  C70  1  0.47967559  0.72042984  0.89682128  1  0  -0.269451  0  3.676902  0  0  -0.310468  0  3.932044  0  0  -0.31678  0  3.940751  0  0  -0.170377  -0.306063  0  3.926862  0
C  C71  1  0.52032498  0.27956871  0.10317775  1  0  -0.26933  0  3.676768  0  0  -0.310381  0  3.931874  0  0  -0.316693  0  3.940583  0  0  -0.170315  -0.305977  0  3.926692  0
C  C72  1  0.58923471  0.59078770  0.81142542  1  0  0.692258  0  3.857983  0  0  0.64821  0  4.155864  0  0  0.680924  0  4.150292  0  0  0.202068  0.625873  0  4.158465  0
C  C73  1  0.41076664  0.40921194  0.18857346  1  0  0.692297  0  3.857963  0  0  0.648348  0  4.155714  0  0  0.68106  0  4.15014  0  0  0.202098  0.62601  0  4.158317  0
N  N74  1  0.02365827  0.38746115  0.73253957  1  0  -0.365893  0  3.266383  0  0  -0.299748  0  3.534692  0  0  -0.317202  0  3.550418  0  0  -0.320095  -0.285561  0  3.522551  0
N  N75  1  0.97634194  0.61253849  0.26746224  1  0  -0.365986  0  3.266534  0  0  -0.299853  0  3.534846  0  0  -0.317307  0  3.550568  0  0  -0.320143  -0.285662  0  3.522708  0
N  N76  1  0.92421361  0.27962121  0.55745310  1  0  -0.131484  0  3.416944  0  0  -0.076444  0  3.70856  0  0  -0.083432  0  3.722466  0  0  -0.210335  -0.072204  0  3.701132  0
N  N77  1  0.07578659  0.72037843  0.44254779  1  0  -0.131553  0  3.417033  0  0  -0.076489  0  3.708642  0  0  -0.083476  0  3.722547  0  0  -0.210349  -0.072245  0  3.701213  0
N  N78  1  0.85599465  0.21750595  0.48486738  1  0  -0.306864  0  3.343786  0  0  -0.254648  0  3.587219  0  0  -0.278601  0  3.603361  0  0  -0.279418  -0.24094  0  3.578341  0
N  N79  1  0.14400439  0.78249371  0.51513277  1  0  -0.306751  0  3.343846  0  0  -0.254551  0  3.587283  0  0  -0.2785  0  3.603425  0  0  -0.279399  -0.240853  0  3.578408  0
O  O80  1  0.64628033  0.24539781  0.65128760  1  0  -0.534477  0  2.006046  0  0  -0.473381  0  2.248123  0  0  -0.498393  0  2.239609  0  0  -0.267448  -0.458067  0  2.253089  0
O  O81  1  0.35371716  0.75460296  0.34871184  1  0  -0.534469  0  2.006132  0  0  -0.473352  0  2.248175  0  0  -0.498374  0  2.239682  0  0  -0.26745  -0.458042  0  2.253131  0
O  O82  1  0.86685775  0.13919875  0.85360118  1  0  -0.632109  0  2.018971  0  0  -0.550884  0  2.276823  0  0  -0.581144  0  2.263645  0  0  -0.32116  -0.528819  0  2.284945  0
O  O83  1  0.13314128  0.86080091  0.14639806  1  0  -0.632035  0  2.018904  0  0  -0.550895  0  2.276833  0  0  -0.581154  0  2.263653  0  0  -0.321167  -0.52883  0  2.284956  0
O  O84  1  0.96907070  0.99337708  0.68068154  1  0  -0.638522  0  1.994351  0  0  -0.591641  0  2.223124  0  0  -0.616467  0  2.216091  0  0  -0.325834  -0.57376  0  2.227182  0
O  O85  1  0.03093104  0.00662145  0.31931822  1  0  -0.638511  0  1.994403  0  0  -0.591625  0  2.223166  0  0  -0.61645  0  2.216132  0  0  -0.325816  -0.573744  0  2.227223  0
O  O86  1  0.60600068  0.59997334  0.69449026  1  0  -0.663448  0  1.938896  0  0  -0.618304  0  2.175497  0  0  -0.641771  0  2.165483  0  0  -0.334498  -0.60045  0  2.180955  0
O  O87  1  0.39400182  0.40002629  0.30550844  1  0  -0.663496  0  1.938823  0  0  -0.618387  0  2.175393  0  0  -0.641848  0  2.165372  0  0  -0.33452  -0.600535  0  2.18086  0
O  O88  1  0.66456586  0.47345325  0.86656068  1  0  -0.646812  0  2.009121  0  0  -0.564406  0  2.26888  0  0  -0.594558  0  2.255619  0  0  -0.332494  -0.542817  0  2.277011  0
O  O89  1  0.33543356  0.52654530  0.13343852  1  0  -0.646822  0  2.009174  0  0  -0.564504  0  2.268965  0  0  -0.594667  0  2.255728  0  0  -0.332528  -0.542914  0  2.277094  0
