# generated using pymatgen
data_CdH24C33(NO3)2
_symmetry_space_group_name_H-M   'P 1'
_cell_length_a   8.53014710
_cell_length_b   12.35958680
_cell_length_c   13.76106447
_cell_angle_alpha   67.13423235
_cell_angle_beta   83.89028185
_cell_angle_gamma   83.74424479
_symmetry_Int_Tables_number   1
_chemical_formula_structural   CdH24C33(NO3)2
_chemical_formula_sum   'Cd2 H48 C66 N4 O12'
_cell_volume   1325.59070565
_cell_formula_units_Z   2
loop_
 _symmetry_equiv_pos_site_id
 _symmetry_equiv_pos_as_xyz
  1  'x, y, z'
loop_
 _atom_site_type_symbol
 _atom_site_label
 _atom_site_symmetry_multiplicity
 _atom_site_fract_x
 _atom_site_fract_y
 _atom_site_fract_z
 _atom_site_occupancy
 _atom_site_hle17_bader_spin_density
 _atom_site_hle17_ddec_charge
 _atom_site_hle17_ddec_spin_density
 _atom_site_hle17_ddec_sum_bond_order
 _atom_site_hle17_magmom
 _atom_site_hse06_10hf_bader_spin_density
 _atom_site_hse06_10hf_ddec_charge
 _atom_site_hse06_10hf_ddec_spin_density
 _atom_site_hse06_10hf_ddec_sum_bond_order
 _atom_site_hse06_10hf_magmom
 _atom_site_hse06_bader_spin_density
 _atom_site_hse06_ddec_charge
 _atom_site_hse06_ddec_spin_density
 _atom_site_hse06_ddec_sum_bond_order
 _atom_site_hse06_magmom
 _atom_site_pbe_bader_spin_density
 _atom_site_pbe_cm5_charge
 _atom_site_pbe_ddec_charge
 _atom_site_pbe_ddec_spin_density
 _atom_site_pbe_ddec_sum_bond_order
 _atom_site_pbe_magmom
Cd  Cd0  1  0.46703719  0.35337507  0.50149802  1  0  1.136022  0  1.711392  0  0  0.945306  0  2.163496  0  0  1.002545  0  2.110154  0  0  0.774048  0.904675  0  2.199969  0
Cd  Cd1  1  0.53296579  0.64662607  0.49850220  1  0  1.135993  0  1.711423  0  0  0.945268  0  2.163545  0  0  1.002506  0  2.110203  0  0  0.774045  0.904641  0  2.200024  0
H  H2  1  0.34514409  0.62091338  0.91812674  1  0  0.079872  0  0.984142  0  0  0.086551  0  1.058662  0  0  0.089433  0  1.056166  0  0  0.096499  0.084441  0  1.060496  0
H  H3  1  0.65485435  0.37908599  0.08187299  1  0  0.079891  0  0.984158  0  0  0.086576  0  1.058676  0  0  0.089458  0  1.056179  0  0  0.096507  0.084467  0  1.060512  0
H  H4  1  0.10635260  0.63430663  0.03529098  1  0  0.104106  0  0.963108  0  0  0.114249  0  1.027565  0  0  0.117363  0  1.026736  0  0  0.10136  0.11208  0  1.028227  0
H  H5  1  0.89364593  0.36569186  0.96470904  1  0  0.104067  0  0.963122  0  0  0.114221  0  1.027578  0  0  0.117336  0  1.026746  0  0  0.101354  0.112053  0  1.028238  0
H  H6  1  0.81209430  0.68514480  0.78133129  1  0  0.111053  0  0.978091  0  0  0.120838  0  1.041263  0  0  0.124409  0  1.039635  0  0  0.102529  0.118257  0  1.042563  0
H  H7  1  0.18790295  0.31485457  0.21866852  1  0  0.111054  0  0.978138  0  0  0.120863  0  1.041281  0  0  0.124429  0  1.039657  0  0  0.102524  0.118288  0  1.042572  0
H  H8  1  0.05053929  0.67114025  0.66791129  1  0  0.099037  0  0.957417  0  0  0.10784  0  1.021122  0  0  0.111361  0  1.017924  0  0  0.103569  0.105263  0  1.023471  0
H  H9  1  0.94945889  0.32886176  0.33208897  1  0  0.099036  0  0.95741  0  0  0.107842  0  1.021115  0  0  0.111363  0  1.017916  0  0  0.103566  0.105265  0  1.023459  0
H  H10  1  0.63452012  0.61488354  0.93596797  1  0  0.063547  0  0.930392  0  0  0.075531  0  0.9995  0  0  0.07616  0  0.997678  0  0  0.102819  0.074997  0  1.000971  0
H  H11  1  0.36547868  0.38511231  0.06403369  1  0  0.063554  0  0.930424  0  0  0.075546  0  0.999535  0  0  0.076175  0  0.997716  0  0  0.102819  0.075019  0  1.000999  0
H  H12  1  0.66200937  0.76826866  0.87278294  1  0  0.053754  0  0.9455  0  0  0.066977  0  1.013085  0  0  0.067126  0  1.012418  0  0  0.100242  0.066888  0  1.013551  0
H  H13  1  0.33798710  0.23172720  0.12722034  1  0  0.053723  0  0.945567  0  0  0.066969  0  1.013131  0  0  0.067122  0  1.012463  0  0  0.10024  0.066881  0  1.013602  0
H  H14  1  0.44792800  0.55016189  0.09109684  1  0  0.092299  0  0.966409  0  0  0.101415  0  1.033223  0  0  0.104262  0  1.031579  0  0  0.09886  0.099318  0  1.034556  0
H  H15  1  0.55207092  0.44983309  0.90890730  1  0  0.092218  0  0.966388  0  0  0.101349  0  1.033195  0  0  0.104198  0  1.03155  0  0  0.098833  0.099254  0  1.034524  0
H  H16  1  0.25934413  0.59698969  0.21829809  1  0  0.095762  0  0.97743  0  0  0.107681  0  1.036047  0  0  0.11034  0  1.035184  0  0  0.102591  0.105706  0  1.036855  0
H  H17  1  0.74065343  0.40300705  0.78170553  1  0  0.095784  0  0.97744  0  0  0.10767  0  1.036084  0  0  0.110326  0  1.035226  0  0  0.102607  0.105694  0  1.036893  0
H  H18  1  0.45489752  0.93305304  0.12687160  1  0  0.078461  0  0.991115  0  0  0.087162  0  1.061049  0  0  0.089388  0  1.060785  0  0  0.093719  0.085644  0  1.061143  0
H  H19  1  0.54510115  0.06694368  0.87312686  1  0  0.078574  0  0.990988  0  0  0.087237  0  1.060995  0  0  0.089453  0  1.060759  0  0  0.093745  0.085729  0  1.061051  0
H  H20  1  0.63323836  0.88950785  0.99281369  1  0  0.083094  0  0.960006  0  0  0.096466  0  1.021055  0  0  0.099233  0  1.019351  0  0  0.096346  0.094418  0  1.022435  0
H  H21  1  0.36675806  0.11048799  0.00718597  1  0  0.08304  0  0.960075  0  0  0.096415  0  1.02111  0  0  0.0992  0  1.019384  0  0  0.096316  0.09435  0  1.022516  0
H  H22  1  0.02269565  0.67972996  0.50070350  1  0  0.105763  0  0.947889  0  0  0.117976  0  1.006939  0  0  0.120811  0  1.005165  0  0  0.10723  0.115841  0  1.008406  0
H  H23  1  0.97730727  0.32027208  0.49929787  1  0  0.105717  0  0.947927  0  0  0.117975  0  1.006918  0  0  0.120815  0  1.005141  0  0  0.107222  0.115838  0  1.008386  0
H  H24  1  0.93059895  0.88934404  0.45879137  1  0  0.088576  0  0.944778  0  0  0.103331  0  0.998767  0  0  0.106252  0  0.997441  0  0  0.1003  0.101228  0  0.999795  0
H  H25  1  0.06940267  0.11065886  0.54120761  1  0  0.088572  0  0.94478  0  0  0.10331  0  0.998788  0  0  0.106234  0  0.997458  0  0  0.100286  0.101205  0  0.999822  0
H  H26  1  0.03194597  0.04381342  0.28872489  1  0  0.086873  0  0.950812  0  0  0.099216  0  1.007548  0  0  0.101445  0  1.00764  0  0  0.097073  0.097611  0  1.007541  0
H  H27  1  0.96805345  0.95618771  0.71127342  1  0  0.086874  0  0.950849  0  0  0.099214  0  1.007588  0  0  0.101441  0  1.007682  0  0  0.097085  0.097606  0  1.007583  0
H  H28  1  0.21481905  0.98456069  0.16427299  1  0  0.080569  0  0.962975  0  0  0.092963  0  1.024763  0  0  0.096116  0  1.022775  0  0  0.093996  0.090684  0  1.026283  0
H  H29  1  0.78517828  0.01543779  0.83572567  1  0  0.080526  0  0.962993  0  0  0.092985  0  1.024697  0  0  0.096145  0  1.022701  0  0  0.094005  0.090703  0  1.026218  0
H  H30  1  0.68057831  0.11727214  0.49466287  1  0  0.079042  0  0.927964  0  0  0.08869  0  0.98813  0  0  0.090711  0  0.987055  0  0  0.117779  0.087068  0  0.989046  0
H  H31  1  0.31942229  0.88272900  0.50533535  1  0  0.079018  0  0.927937  0  0  0.088697  0  0.98808  0  0  0.090722  0  0.986993  0  0  0.117788  0.087078  0  0.988999  0
H  H32  1  0.68094615  0.89517907  0.58780627  1  0  0.117675  0  0.947834  0  0  0.129348  0  1.003745  0  0  0.13277  0  1.002418  0  0  0.109577  0.126787  0  1.004958  0
H  H33  1  0.31905445  0.10482206  0.41219195  1  0  0.117688  0  0.947852  0  0  0.129363  0  1.003759  0  0  0.132775  0  1.002446  0  0  0.109583  0.126805  0  1.004969  0
H  H34  1  0.49326977  0.81246673  0.74481053  1  0  0.108918  0  0.982447  0  0  0.118244  0  1.043807  0  0  0.121163  0  1.042079  0  0  0.108091  0.116065  0  1.045182  0
H  H35  1  0.50673314  0.18753530  0.25519011  1  0  0.108929  0  0.982452  0  0  0.11828  0  1.043785  0  0  0.121202  0  1.042053  0  0  0.108083  0.116101  0  1.045158  0
H  H36  1  0.28613351  0.84800539  0.87641920  1  0  0.098949  0  0.969346  0  0  0.109938  0  1.030478  0  0  0.111657  0  1.031841  0  0  0.102092  0.108647  0  1.02966  0
H  H37  1  0.71387073  0.15199488  0.12358052  1  0  0.098945  0  0.969395  0  0  0.109942  0  1.03052  0  0  0.111655  0  1.031883  0  0  0.102097  0.108652  0  1.029698  0
H  H38  1  0.11198419  0.98793462  0.93519919  1  0  0.088087  0  0.945819  0  0  0.101038  0  1.005722  0  0  0.103872  0  1.004298  0  0  0.101008  0.098945  0  1.006866  0
H  H39  1  0.88801760  0.01206652  0.06479967  1  0  0.088062  0  0.945833  0  0  0.101022  0  1.005732  0  0  0.103849  0  1.004313  0  0  0.101001  0.098929  0  1.006873  0
H  H40  1  0.01698725  0.19604691  0.90933823  1  0  0.092778  0  0.932924  0  0  0.105932  0  0.992725  0  0  0.108551  0  0.990841  0  0  0.107095  0.104028  0  0.994112  0
H  H41  1  0.98301325  0.80395510  0.09065897  1  0  0.092769  0  0.932939  0  0  0.105908  0  0.99275  0  0  0.108543  0  0.990835  0  0  0.107083  0.104005  0  0.994138  0
H  H42  1  0.03790813  0.41233978  0.80335288  1  0  0.103563  0  0.951284  0  0  0.113389  0  1.014109  0  0  0.115927  0  1.013446  0  0  0.108905  0.111545  0  1.014772  0
H  H43  1  0.96209001  0.58766223  0.19664376  1  0  0.103545  0  0.951261  0  0  0.113364  0  1.014097  0  0  0.115902  0  1.013434  0  0  0.108885  0.11152  0  1.014762  0
H  H44  1  0.22217954  0.47526339  0.64207047  1  0  0.090027  0  0.94967  0  0  0.097465  0  1.013834  0  0  0.099863  0  1.011505  0  0  0.118662  0.095593  0  1.015689  0
H  H45  1  0.77782224  0.52473774  0.35792766  1  0  0.090103  0  0.949615  0  0  0.097501  0  1.01382  0  0  0.099904  0  1.011492  0  0  0.118682  0.095628  0  1.015678  0
H  H46  1  0.36032113  0.33467808  0.33855266  1  0  0.399185  0  0.921667  0  0  0.36768  0  0.98774  0  0  0.379511  0  0.9707  0  0  0.272241  0.359376  0  0.999659  0
H  H47  1  0.63967706  0.66532394  0.66144833  1  0  0.399163  0  0.921696  0  0  0.367667  0  0.987753  0  0  0.379498  0  0.970713  0  0  0.272241  0.359358  0  0.999681  0
H  H48  1  0.21416015  0.38506551  0.39557528  1  0  0.401457  0  0.915916  0  0  0.370554  0  0.981297  0  0  0.381912  0  0.964935  0  0  0.275487  0.362592  0  0.992716  0
H  H49  1  0.78583813  0.61493563  0.60442601  1  0  0.401466  0  0.915915  0  0  0.370575  0  0.98127  0  0  0.381934  0  0.964907  0  0  0.2755  0.362611  0  0.992694  0
C  C50  1  0.35878624  0.64102480  0.71508146  1  0  0.647687  0  3.921346  0  0  0.596845  0  4.215791  0  0  0.632304  0  4.207851  0  0  0.203633  0.572868  0  4.220329  0
C  C51  1  0.64121085  0.35897633  0.28491846  1  0  0.647673  0  3.92123  0  0  0.596835  0  4.215662  0  0  0.632295  0  4.207719  0  0  0.203628  0.572865  0  4.220193  0
C  C52  1  0.21385179  0.64553004  0.78510530  1  0  -0.106045  0  3.789404  0  0  -0.087377  0  4.028363  0  0  -0.098472  0  4.052259  0  0  -0.03745  -0.080266  0  4.012242  0
C  C53  1  0.78614529  0.35447110  0.21489462  1  0  -0.106107  0  3.789341  0  0  -0.087421  0  4.028281  0  0  -0.098516  0  4.052176  0  0  -0.037463  -0.080312  0  4.012168  0
C  C54  1  0.22764911  0.63483328  0.88927216  1  0  -0.048489  0  3.788131  0  0  -0.072501  0  4.040468  0  0  -0.068447  0  4.058738  0  0  -0.089343  -0.074866  0  4.027964  0
C  C55  1  0.77234925  0.36516697  0.11072799  1  0  -0.048426  0  3.788263  0  0  -0.072452  0  4.04059  0  0  -0.068397  0  4.058861  0  0  -0.089306  -0.074829  0  4.0281  0
C  C56  1  0.09534566  0.64299898  0.95437198  1  0  -0.191907  0  3.754477  0  0  -0.21249  0  4.009743  0  0  -0.219403  0  4.02858  0  0  -0.10798  -0.207992  0  3.997062  0
C  C57  1  0.90465153  0.35700127  0.04562897  1  0  -0.191919  0  3.754643  0  0  -0.212525  0  4.009899  0  0  -0.219438  0  4.028735  0  0  -0.108019  -0.208019  0  3.997217  0
C  C58  1  0.94415089  0.66261136  0.91611558  1  0  0.284547  0  3.816931  0  0  0.275264  0  4.072541  0  0  0.28868  0  4.088174  0  0  0.084726  0.266175  0  4.06175  0
C  C59  1  0.05584637  0.33738801  0.08388423  1  0  0.284471  0  3.817044  0  0  0.275239  0  4.072608  0  0  0.288656  0  4.088238  0  0  0.084703  0.266144  0  4.061822  0
C  C60  1  0.92760635  0.67162151  0.81273544  1  0  -0.224785  0  3.762748  0  0  -0.241606  0  4.011192  0  0  -0.249703  0  4.031009  0  0  -0.11517  -0.236228  0  3.997825  0
C  C61  1  0.07239084  0.32837874  0.18726552  1  0  -0.22476  0  3.762808  0  0  -0.241618  0  4.011232  0  0  -0.249708  0  4.031048  0  0  -0.11516  -0.23625  0  3.997868  0
C  C62  1  0.06254541  0.66322600  0.74842730  1  0  -0.03653  0  3.75276  0  0  -0.057204  0  3.99743  0  0  -0.05284  0  4.015162  0  0  -0.083684  -0.059764  0  3.98527  0
C  C63  1  0.93745275  0.33677601  0.25157151  1  0  -0.036544  0  3.752677  0  0  -0.057224  0  3.997346  0  0  -0.052861  0  4.015076  0  0  -0.083723  -0.059781  0  3.985182  0
C  C64  1  0.66427122  0.69247232  0.94901800  1  0  0.05703  0  3.645119  0  0  -0.009133  0  3.910198  0  0  0.000584  0  3.913062  0  0  -0.061749  -0.015784  0  3.908168  0
C  C65  1  0.33572650  0.30752265  0.05098405  1  0  0.057025  0  3.645155  0  0  -0.009172  0  3.910271  0  0  0.000538  0  3.913145  0  0  -0.061743  -0.01583  0  3.908244  0
C  C66  1  0.55155380  0.71776850  0.03012817  1  0  0.05003  0  3.771822  0  0  0.069591  0  4.009714  0  0  0.06823  0  4.033799  0  0  -0.019558  0.070466  0  3.993411  0
C  C67  1  0.44844401  0.28222559  0.96987419  1  0  0.050003  0  3.771502  0  0  0.069536  0  4.009455  0  0  0.068174  0  4.033546  0  0  -0.019628  0.070405  0  3.99316  0
C  C68  1  0.44656863  0.63624033  0.09592419  1  0  -0.097544  0  3.740859  0  0  -0.115812  0  3.984891  0  0  -0.118671  0  4.00739  0  0  -0.088535  -0.113762  0  3.969627  0
C  C69  1  0.55342920  0.36375377  0.90408034  1  0  -0.097442  0  3.740577  0  0  -0.115704  0  3.98459  0  0  -0.118563  0  4.007088  0  0  -0.08848  -0.113651  0  3.969324  0
C  C70  1  0.34153144  0.66190385  0.17025262  1  0  -0.104913  0  3.718267  0  0  -0.123701  0  3.963031  0  0  -0.12636  0  3.98437  0  0  -0.092465  -0.121845  0  3.948571  0
C  C71  1  0.65846864  0.33809113  0.82974999  1  0  -0.104835  0  3.718251  0  0  -0.123601  0  3.963006  0  0  -0.126259  0  3.984343  0  0  -0.0924  -0.121747  0  3.948547  0
C  C72  1  0.34082459  0.76928057  0.18345798  1  0  0.052433  0  3.766448  0  0  0.065795  0  4.001988  0  0  0.065638  0  4.025944  0  0  -0.010179  0.065886  0  3.985712  0
C  C73  1  0.65917403  0.23071705  0.81654307  1  0  0.052323  0  3.766597  0  0  0.065717  0  4.002095  0  0  0.065562  0  4.026043  0  0  -0.010234  0.065805  0  3.985818  0
C  C74  1  0.44810109  0.85033676  0.11725580  1  0  -0.11744  0  3.763553  0  0  -0.136561  0  4.013119  0  0  -0.139358  0  4.035549  0  0  -0.09696  -0.134542  0  3.997804  0
C  C75  1  0.55189760  0.14965996  0.88274339  1  0  -0.117567  0  3.763568  0  0  -0.136704  0  4.013149  0  0  -0.139504  0  4.035579  0  0  -0.097022  -0.13467  0  3.997829  0
C  C76  1  0.55015171  0.82541213  0.04182301  1  0  -0.102389  0  3.767698  0  0  -0.123882  0  4.016437  0  0  -0.125794  0  4.038001  0  0  -0.092912  -0.122448  0  4.001774  0
C  C77  1  0.44984600  0.17458283  0.95817832  1  0  -0.102294  0  3.767442  0  0  -0.123757  0  4.016158  0  0  -0.125682  0  4.037716  0  0  -0.092864  -0.122317  0  4.001512  0
C  C78  1  0.23183161  0.79914664  0.26234136  1  0  0.027515  0  3.754123  0  0  0.033636  0  3.98987  0  0  0.03451  0  4.013901  0  0  -0.009319  0.033142  0  3.973559  0
C  C79  1  0.76816810  0.20085185  0.73765930  1  0  0.027581  0  3.753971  0  0  0.033683  0  3.989747  0  0  0.03456  0  4.013772  0  0  -0.009306  0.033186  0  3.973431  0
C  C80  1  0.17636453  0.71393214  0.35967136  1  0  -0.095406  0  3.698995  0  0  -0.076292  0  3.936621  0  0  -0.082883  0  3.957293  0  0  -0.010888  -0.072097  0  3.922866  0
C  C81  1  0.82363611  0.28606901  0.64032976  1  0  -0.095422  0  3.698875  0  0  -0.076313  0  3.936545  0  0  -0.082906  0  3.95722  0  0  -0.010895  -0.072109  0  3.922776  0
C  C82  1  0.06723234  0.74771325  0.42799514  1  0  -0.06404  0  3.716384  0  0  -0.090005  0  3.970295  0  0  -0.090064  0  3.990381  0  0  -0.084022  -0.08985  0  3.956793  0
C  C83  1  0.93276930  0.25228966  0.57200529  1  0  -0.064003  0  3.716431  0  0  -0.089996  0  3.970331  0  0  -0.090056  0  3.990415  0  0  -0.084001  -0.089843  0  3.956827  0
C  C84  1  0.01562717  0.86560340  0.40403960  1  0  -0.069371  0  3.774408  0  0  -0.085314  0  4.030486  0  0  -0.087724  0  4.051299  0  0  -0.092999  -0.083608  0  4.016225  0
C  C85  1  0.98437572  0.13439863  0.59595960  1  0  -0.069398  0  3.774406  0  0  -0.08533  0  4.030494  0  0  -0.08774  0  4.051302  0  0  -0.093022  -0.083625  0  4.016237  0
C  C86  1  0.07210473  0.95121030  0.30954956  1  0  -0.076922  0  3.815624  0  0  -0.091104  0  4.068528  0  0  -0.092109  0  4.090498  0  0  -0.098336  -0.09027  0  4.053397  0
C  C87  1  0.92789725  0.04878908  0.69045064  1  0  -0.076896  0  3.815601  0  0  -0.091076  0  4.068521  0  0  -0.09208  0  4.090492  0  0  -0.09832  -0.090244  0  4.053389  0
C  C88  1  0.17692354  0.91750936  0.23984685  1  0  -0.118362  0  3.762672  0  0  -0.138583  0  4.016528  0  0  -0.141813  0  4.037706  0  0  -0.097115  -0.136302  0  4.002063  0
C  C89  1  0.82307833  0.08249089  0.76015159  1  0  -0.118359  0  3.762595  0  0  -0.138617  0  4.016435  0  0  -0.141851  0  4.037607  0  0  -0.097126  -0.136335  0  4.001966  0
C  C90  1  0.22753836  0.58432563  0.39633549  1  0  0.68195  0  3.874975  0  0  0.623207  0  4.179883  0  0  0.658845  0  4.170334  0  0  0.220363  0.598941  0  4.185524  0
C  C91  1  0.77246339  0.41567641  0.60366741  1  0  0.682128  0  3.874611  0  0  0.623363  0  4.179547  0  0  0.659001  0  4.17  0  0  0.220499  0.599097  0  4.185192  0
C  C92  1  0.60051249  0.07634819  0.56386759  1  0  0.151516  0  3.720549  0  0  0.117702  0  3.979755  0  0  0.12619  0  3.997849  0  0  0.060105  0.11232  0  3.967314  0
C  C93  1  0.39948929  0.92365294  0.43613054  1  0  0.151613  0  3.720437  0  0  0.117761  0  3.979663  0  0  0.126252  0  3.997756  0  0  0.060126  0.112376  0  3.967227  0
C  C94  1  0.60126592  0.95342978  0.61625693  1  0  -0.118801  0  3.731677  0  0  -0.132668  0  3.987454  0  0  -0.139766  0  4.008423  0  0  -0.08412  -0.128031  0  3.973338  0
C  C95  1  0.39873587  0.04657136  0.38374193  1  0  -0.118869  0  3.731688  0  0  -0.132757  0  3.987525  0  0  -0.139846  0  4.008495  0  0  -0.084155  -0.128118  0  3.973403  0
C  C96  1  0.49742309  0.90762627  0.70388395  1  0  -0.057333  0  3.674253  0  0  -0.08117  0  3.9211  0  0  -0.079136  0  3.939207  0  0  -0.068068  -0.082284  0  3.908832  0
C  C97  1  0.50257997  0.09237399  0.29611513  1  0  -0.057328  0  3.674261  0  0  -0.081218  0  3.921052  0  0  -0.079182  0  3.939155  0  0  -0.068077  -0.082326  0  3.908772  0
C  C98  1  0.39417233  0.98411722  0.73967050  1  0  0.024751  0  3.79056  0  0  0.041409  0  4.021623  0  0  0.038737  0  4.045539  0  0  -0.003466  0.042997  0  4.005571  0
C  C99  1  0.60583053  0.01588480  0.26032725  1  0  0.024616  0  3.790799  0  0  0.04139  0  4.021642  0  0  0.038718  0  4.045562  0  0  -0.003471  0.04298  0  4.005589  0
C  C100  1  0.28811249  0.94262115  0.83213315  1  0  -0.101016  0  3.748144  0  0  -0.121495  0  3.997498  0  0  -0.124645  0  4.021341  0  0  -0.085102  -0.119285  0  3.981384  0
C  C101  1  0.71188788  0.05738264  0.16786705  1  0  -0.100954  0  3.7481  0  0  -0.121486  0  3.99743  0  0  -0.124631  0  4.021276  0  0  -0.085118  -0.119276  0  3.981311  0
C  C102  1  0.19166303  0.02003303  0.86409843  1  0  -0.095263  0  3.761405  0  0  -0.11767  0  4.015892  0  0  -0.12058  0  4.038457  0  0  -0.083441  -0.11561  0  4.000586  0
C  C103  1  0.80834127  0.97996634  0.13589869  1  0  -0.095192  0  3.761278  0  0  -0.117631  0  4.01579  0  0  -0.120533  0  4.038348  0  0  -0.083413  -0.115566  0  4.000477  0
C  C104  1  0.19229194  0.14432098  0.80628317  1  0  0.023652  0  3.80588  0  0  0.040884  0  4.034177  0  0  0.037921  0  4.059712  0  0  0.00022  0.042732  0  4.016977  0
C  C105  1  0.80770977  0.85568104  0.19371611  1  0  0.023677  0  3.8062  0  0  0.040934  0  4.034438  0  0  0.037969  0  4.059978  0  0  0.000291  0.042787  0  4.01723  0
C  C106  1  0.09690955  0.22705027  0.83833956  1  0  -0.042676  0  3.689049  0  0  -0.07273  0  3.949465  0  0  -0.070097  0  3.966525  0  0  -0.061007  -0.074309  0  3.937939  0
C  C107  1  0.90309204  0.77295262  0.16165725  1  0  -0.042655  0  3.688976  0  0  -0.07269  0  3.949348  0  0  -0.070057  0  3.966418  0  0  -0.060995  -0.074269  0  3.937822  0
C  C108  1  0.10746915  0.34572956  0.78062205  1  0  -0.082553  0  3.703521  0  0  -0.105106  0  3.973142  0  0  -0.109981  0  3.991374  0  0  -0.072982  -0.102168  0  3.961159  0
C  C109  1  0.89253028  0.65427157  0.21937698  1  0  -0.082518  0  3.703459  0  0  -0.105071  0  3.973069  0  0  -0.10995  0  3.991305  0  0  -0.072957  -0.102132  0  3.961086  0
C  C110  1  0.21127088  0.38202106  0.68939868  1  0  0.176553  0  3.644977  0  0  0.141262  0  3.903438  0  0  0.151  0  3.91801  0  0  0.067823  0.134851  0  3.893597  0
C  C111  1  0.78873309  0.61798184  0.31059941  1  0  0.176443  0  3.644976  0  0  0.141171  0  3.903452  0  0  0.150904  0  3.918028  0  0  0.067741  0.134761  0  3.893612  0
C  C112  1  0.29542563  0.18875389  0.71386284  1  0  0.132177  0  3.75673  0  0  0.126514  0  3.990376  0  0  0.130483  0  4.013698  0  0  0.118693  0.123826  0  3.974654  0
C  C113  1  0.70457852  0.81124725  0.28613658  1  0  0.132151  0  3.756986  0  0  0.126463  0  3.990606  0  0  0.130431  0  4.013935  0  0  0.118693  0.123772  0  3.974886  0
C  C114  1  0.39959232  0.10708291  0.68062584  1  0  0.132935  0  3.748221  0  0  0.126015  0  3.985008  0  0  0.130818  0  4.006825  0  0  0.11912  0.122794  0  3.970296  0
C  C115  1  0.60040947  0.89291823  0.31937302  1  0  0.132897  0  3.748298  0  0  0.126013  0  3.984955  0  0  0.130815  0  4.006777  0  0  0.119119  0.122782  0  3.97026  0
N  N116  1  0.50243597  0.14985441  0.59480721  1  0  -0.358299  0  3.272009  0  0  -0.289607  0  3.538801  0  0  -0.309446  0  3.558183  0  0  -0.32535  -0.276102  0  3.525391  0
N  N117  1  0.49756583  0.85014674  0.40519238  1  0  -0.358297  0  3.272037  0  0  -0.289631  0  3.538831  0  0  -0.309472  0  3.558214  0  0  -0.325379  -0.27612  0  3.525422  0
N  N118  1  0.30183011  0.30589955  0.65734653  1  0  -0.356599  0  3.243165  0  0  -0.287381  0  3.508943  0  0  -0.307582  0  3.527451  0  0  -0.323279  -0.273636  0  3.496181  0
N  N119  1  0.69817278  0.69410247  0.34265267  1  0  -0.356539  0  3.243128  0  0  -0.287316  0  3.50889  0  0  -0.30752  0  3.527406  0  0  -0.323243  -0.273566  0  3.496126  0
O  O120  1  0.33691781  0.64501874  0.62280081  1  0  -0.659805  0  2.028176  0  0  -0.592128  0  2.288209  0  0  -0.621627  0  2.276353  0  0  -0.336648  -0.571402  0  2.295449  0
O  O121  1  0.66308154  0.35498327  0.37719864  1  0  -0.659797  0  2.028141  0  0  -0.592125  0  2.288167  0  0  -0.621623  0  2.276312  0  0  -0.336637  -0.571393  0  2.295388  0
O  O122  1  0.49259435  0.63606023  0.75025852  1  0  -0.642073  0  1.988926  0  0  -0.582891  0  2.211706  0  0  -0.607984  0  2.20153  0  0  -0.32437  -0.565467  0  2.218184  0
O  O123  1  0.50740291  0.36393915  0.24974201  1  0  -0.642022  0  1.98889  0  0  -0.582841  0  2.211675  0  0  -0.60793  0  2.201498  0  0  -0.324333  -0.565421  0  2.21815  0
O  O124  1  0.82171133  0.67235242  0.98509543  1  0  -0.286984  0  2.322455  0  0  -0.213396  0  2.55358  0  0  -0.232879  0  2.558114  0  0  -0.175906  -0.199481  0  2.549847  0
O  O125  1  0.17828621  0.32764431  0.01490674  1  0  -0.286906  0  2.322468  0  0  -0.21335  0  2.553596  0  0  -0.232832  0  2.558131  0  0  -0.175846  -0.199431  0  2.54986  0
O  O126  1  0.36481918  0.55123595  0.43438238  1  0  -0.681097  0  2.067828  0  0  -0.594647  0  2.340789  0  0  -0.62802  0  2.326276  0  0  -0.330307  -0.57104  0  2.349862  0
O  O127  1  0.63518372  0.44876607  0.56561754  1  0  -0.681197  0  2.067664  0  0  -0.594723  0  2.340628  0  0  -0.628099  0  2.326119  0  0  -0.330388  -0.571119  0  2.349706  0
O  O128  1  0.13342782  0.51636899  0.39009939  1  0  -0.599699  0  1.951886  0  0  -0.545477  0  2.173504  0  0  -0.571457  0  2.165419  0  0  -0.299835  -0.527013  0  2.178309  0
O  O129  1  0.86657060  0.48363129  0.60990655  1  0  -0.599788  0  1.951818  0  0  -0.545562  0  2.173447  0  0  -0.571543  0  2.16536  0  0  -0.299909  -0.5271  0  2.178258  0
O  O130  1  0.28225581  0.31134255  0.40268382  1  0  -0.844911  0  1.832813  0  0  -0.785964  0  2.018591  0  0  -0.809298  0  1.985818  0  0  -0.604258  -0.769253  0  2.040984  0
O  O131  1  0.71774367  0.68865860  0.59731883  1  0  -0.844869  0  1.832815  0  0  -0.785952  0  2.018626  0  0  -0.809264  0  1.985804  0  0  -0.604261  -0.769231  0  2.041026  0
