# generated using pymatgen
data_Cd3H38(C27O11)2
_symmetry_space_group_name_H-M   'P 1'
_cell_length_a   8.28453663
_cell_length_b   8.22433983
_cell_length_c   18.69972981
_cell_angle_alpha   98.66222693
_cell_angle_beta   98.39164944
_cell_angle_gamma   106.01546943
_symmetry_Int_Tables_number   1
_chemical_formula_structural   Cd3H38(C27O11)2
_chemical_formula_sum   'Cd3 H38 C54 O22'
_cell_volume   1186.88123916
_cell_formula_units_Z   1
loop_
 _symmetry_equiv_pos_site_id
 _symmetry_equiv_pos_as_xyz
  1  'x, y, z'
loop_
 _atom_site_type_symbol
 _atom_site_label
 _atom_site_symmetry_multiplicity
 _atom_site_fract_x
 _atom_site_fract_y
 _atom_site_fract_z
 _atom_site_occupancy
 _atom_site_hle17_bader_spin_density
 _atom_site_hle17_ddec_charge
 _atom_site_hle17_ddec_spin_density
 _atom_site_hle17_ddec_sum_bond_order
 _atom_site_hle17_magmom
 _atom_site_hse06_10hf_bader_spin_density
 _atom_site_hse06_10hf_ddec_charge
 _atom_site_hse06_10hf_ddec_spin_density
 _atom_site_hse06_10hf_ddec_sum_bond_order
 _atom_site_hse06_10hf_magmom
 _atom_site_hse06_bader_spin_density
 _atom_site_hse06_ddec_charge
 _atom_site_hse06_ddec_spin_density
 _atom_site_hse06_ddec_sum_bond_order
 _atom_site_hse06_magmom
 _atom_site_pbe_bader_spin_density
 _atom_site_pbe_cm5_charge
 _atom_site_pbe_ddec_charge
 _atom_site_pbe_ddec_spin_density
 _atom_site_pbe_ddec_sum_bond_order
 _atom_site_pbe_magmom
Cd  Cd0  1  0.50000735  0.49999889  0.50000301  1  0  1.306027  0  1.624478  0  0  1.138597  0  2.079067  0  0  1.190539  0  2.018859  0  0  0.784914  1.101037  0  2.12084  0
Cd  Cd1  1  0.77071659  0.94740659  0.50997228  1  0  1.272704  0  1.566398  0  0  1.105474  0  2.009025  0  0  1.163183  0  1.947484  0  0  0.774214  1.0639  0  2.051657  0
Cd  Cd2  1  0.22930599  0.05259587  0.49002922  1  0  1.272669  0  1.566443  0  0  1.105436  0  2.009098  0  0  1.163151  0  1.947552  0  0  0.774206  1.063859  0  2.051729  0
H  H3  1  0.16791335  0.34175843  0.55809345  1  0  0.428997  0  0.883045  0  0  0.391769  0  0.955578  0  0  0.405265  0  0.936535  0  0  0.284809  0.3823  0  0.9689  0
H  H4  1  0.83209510  0.65824192  0.44190691  1  0  0.429215  0  0.88279  0  0  0.391988  0  0.95532  0  0  0.405486  0  0.936274  0  0  0.284927  0.382519  0  0.968643  0
H  H5  1  0.11136625  0.34378532  0.47129604  1  0  0.445957  0  0.794176  0  0  0.426876  0  0.846656  0  0  0.43623  0  0.836372  0  0  0.325741  0.42006  0  0.854262  0
H  H6  1  0.88863413  0.65621266  0.52870254  1  0  0.44598  0  0.794147  0  0  0.426905  0  0.84663  0  0  0.436259  0  0.836344  0  0  0.325752  0.420089  0  0.85424  0
H  H7  1  0.77350742  0.29883083  0.54068273  1  0  0.422145  0  0.869311  0  0  0.395067  0  0.93141  0  0  0.40498  0  0.917141  0  0  0.295687  0.388048  0  0.941491  0
H  H8  1  0.22651594  0.70117030  0.45931875  1  0  0.422295  0  0.868996  0  0  0.395254  0  0.931132  0  0  0.405168  0  0.916862  0  0  0.295773  0.388235  0  0.941213  0
H  H9  1  0.69584591  0.22724738  0.45867578  1  0  0.432668  0  0.86633  0  0  0.403076  0  0.92761  0  0  0.413629  0  0.91233  0  0  0.291542  0.395611  0  0.938404  0
H  H10  1  0.30417630  0.77275776  0.54132691  1  0  0.432755  0  0.866192  0  0  0.40315  0  0.927469  0  0  0.413702  0  0.912192  0  0  0.291582  0.395685  0  0.938264  0
H  H11  1  0.40952283  0.55216560  0.02319272  1  0  0.145245  0  0.959867  0  0  0.150877  0  1.027134  0  0  0.15562  0  1.023654  0  0  0.112066  0.147486  0  1.029719  0
H  H12  1  0.59046989  0.44782725  0.97680127  1  0  0.145305  0  0.95999  0  0  0.150924  0  1.027248  0  0  0.155666  0  1.02377  0  0  0.112084  0.147536  0  1.029828  0
H  H13  1  0.42502157  0.92968186  0.88428358  1  0  0.126624  0  0.982062  0  0  0.137906  0  1.042337  0  0  0.140895  0  1.041982  0  0  0.108541  0.135802  0  1.042723  0
H  H14  1  0.57496683  0.07032046  0.11571437  1  0  0.126597  0  0.982112  0  0  0.137906  0  1.042348  0  0  0.140894  0  1.041992  0  0  0.108536  0.135801  0  1.042733  0
H  H15  1  0.03105344  0.82282743  0.01344362  1  0  0.148322  0  0.937449  0  0  0.153774  0  1.005519  0  0  0.15895  0  1.000935  0  0  0.115091  0.150061  0  1.008917  0
H  H16  1  0.96893423  0.17717611  0.98655221  1  0  0.148344  0  0.937324  0  0  0.153816  0  1.005397  0  0  0.158993  0  1.000811  0  0  0.11507  0.150095  0  1.008801  0
H  H17  1  0.42399072  0.84857389  0.14341330  1  0  0.098312  0  0.990223  0  0  0.107526  0  1.054755  0  0  0.110175  0  1.054945  0  0  0.096508  0.105621  0  1.054811  0
H  H18  1  0.57599493  0.15143520  0.85658804  1  0  0.098415  0  0.990087  0  0  0.107571  0  1.054671  0  0  0.110213  0  1.054858  0  0  0.096522  0.105665  0  1.054728  0
H  H19  1  0.54270948  0.89738250  0.27765466  1  0  0.092832  0  0.969297  0  0  0.101157  0  1.034862  0  0  0.103122  0  1.034453  0  0  0.10022  0.099717  0  1.035213  0
H  H20  1  0.45728820  0.10262214  0.72234516  1  0  0.092873  0  0.969217  0  0  0.101198  0  1.034781  0  0  0.103163  0  1.034371  0  0  0.10022  0.099756  0  1.035136  0
H  H21  1  0.15013581  0.44772096  0.29569004  1  0  0.096344  0  0.942784  0  0  0.105874  0  1.003799  0  0  0.109013  0  1.001437  0  0  0.101471  0.103618  0  1.005511  0
H  H22  1  0.84988152  0.55227629  0.70430704  1  0  0.096407  0  0.942718  0  0  0.105923  0  1.003748  0  0  0.109063  0  1.001383  0  0  0.101452  0.103669  0  1.005457  0
H  H23  1  0.02764638  0.40037637  0.16048838  1  0  0.10454  0  0.963282  0  0  0.113864  0  1.027247  0  0  0.116681  0  1.02698  0  0  0.100517  0.111828  0  1.027603  0
H  H24  1  0.97236301  0.59963457  0.83951638  1  0  0.104583  0  0.963201  0  0  0.113901  0  1.027162  0  0  0.11672  0  1.026903  0  0  0.100562  0.111856  0  1.027542  0
H  H25  1  0.81968712  0.93012623  0.88938436  1  0  0.11393  0  0.965342  0  0  0.119818  0  1.033953  0  0  0.123457  0  1.032269  0  0  0.10288  0.117194  0  1.035264  0
H  H26  1  0.18028895  0.06987296  0.11062002  1  0  0.113971  0  0.965362  0  0  0.1198  0  1.034044  0  0  0.123441  0  1.032357  0  0  0.102847  0.117177  0  1.035362  0
H  H27  1  0.82923922  0.98518580  0.76121674  1  0  0.091508  0  0.994087  0  0  0.099164  0  1.060061  0  0  0.10073  0  1.061184  0  0  0.100029  0.098009  0  1.059364  0
H  H28  1  0.17075905  0.01481787  0.23879056  1  0  0.091444  0  0.994045  0  0  0.099105  0  1.060042  0  0  0.100657  0  1.061183  0  0  0.100002  0.097949  0  1.059346  0
H  H29  1  0.35935382  0.57107502  0.67772109  1  0  0.111205  0  0.962641  0  0  0.11768  0  1.027251  0  0  0.121469  0  1.024  0  0  0.10328  0.114895  0  1.029691  0
H  H30  1  0.64066652  0.42890892  0.32227226  1  0  0.111218  0  0.962678  0  0  0.117771  0  1.0272  0  0  0.121584  0  1.023935  0  0  0.103293  0.114984  0  1.02964  0
H  H31  1  0.35018030  0.51887158  0.80468283  1  0  0.106379  0  0.97924  0  0  0.116868  0  1.041056  0  0  0.119448  0  1.040801  0  0  0.102241  0.115013  0  1.041368  0
H  H32  1  0.64982818  0.48110637  0.19531200  1  0  0.106266  0  0.979326  0  0  0.116736  0  1.041208  0  0  0.119314  0  1.040946  0  0  0.102211  0.114872  0  1.041531  0
H  H33  1  0.16281313  0.79492730  0.79787113  1  0  0.105717  0  0.972637  0  0  0.118204  0  1.030366  0  0  0.120869  0  1.030442  0  0  0.10351  0.116334  0  1.03038  0
H  H34  1  0.83716424  0.20506757  0.20212561  1  0  0.105735  0  0.972634  0  0  0.118236  0  1.030326  0  0  0.120866  0  1.030458  0  0  0.103517  0.116371  0  1.030321  0
H  H35  1  0.12841209  0.86449237  0.67324000  1  0  0.106544  0  0.926494  0  0  0.119644  0  0.978527  0  0  0.122992  0  0.975957  0  0  0.109656  0.117189  0  0.980497  0
H  H36  1  0.87158063  0.13550864  0.32676140  1  0  0.106529  0  0.926467  0  0  0.119648  0  0.978481  0  0  0.122997  0  0.97591  0  0  0.109648  0.117192  0  0.980455  0
H  H37  1  0.09816155  0.36309534  0.76446202  1  0  0.094652  0  0.968571  0  0  0.10463  0  1.030522  0  0  0.10722  0  1.02904  0  0  0.104314  0.102771  0  1.031601  0
H  H38  1  0.90184092  0.63690512  0.23553577  1  0  0.094683  0  0.968538  0  0  0.104662  0  1.03048  0  0  0.107253  0  1.028999  0  0  0.104325  0.102802  0  1.031561  0
H  H39  1  0.13291122  0.29660778  0.89117349  1  0  0.122141  0  0.939253  0  0  0.12931  0  1.002714  0  0  0.133444  0  1.00057  0  0  0.107474  0.126327  0  1.004422  0
H  H40  1  0.86708749  0.70338900  0.10882597  1  0  0.122111  0  0.939235  0  0  0.129284  0  1.002709  0  0  0.133419  0  1.000564  0  0  0.107463  0.1263  0  1.00442  0
C  C41  1  0.21867921  0.68462033  0.02446561  1  0  0.321736  0  3.806106  0  0  0.312436  0  4.07446  0  0  0.325411  0  4.088364  0  0  0.088509  0.303628  0  4.064916  0
C  C42  1  0.78130237  0.31538356  0.97553247  1  0  0.321813  0  3.806054  0  0  0.312609  0  4.074424  0  0  0.325541  0  4.088328  0  0  0.0886  0.303801  0  4.064882  0
C  C43  1  0.36034265  0.64846127  0.00161632  1  0  -0.307049  0  3.689857  0  0  -0.342466  0  3.950025  0  0  -0.350264  0  3.964737  0  0  -0.118126  -0.337257  0  3.940205  0
C  C44  1  0.63963502  0.35152698  0.99837847  1  0  -0.307275  0  3.690277  0  0  -0.342554  0  3.950447  0  0  -0.350359  0  3.965173  0  0  -0.118152  -0.337345  0  3.94063  0
C  C45  1  0.43092264  0.73566359  0.94954886  1  0  0.322981  0  3.803267  0  0  0.315623  0  4.065084  0  0  0.328643  0  4.079697  0  0  0.086694  0.306793  0  4.055017  0
C  C46  1  0.56906422  0.26434543  0.05045203  1  0  0.323235  0  3.802981  0  0  0.315669  0  4.065051  0  0  0.328695  0  4.079655  0  0  0.086705  0.306839  0  4.054988  0
C  C47  1  0.36520947  0.85902645  0.92292032  1  0  -0.333773  0  3.779808  0  0  -0.365325  0  4.033758  0  0  -0.375411  0  4.054363  0  0  -0.122996  -0.358574  0  4.019945  0
C  C48  1  0.63477725  0.14097879  0.07708303  1  0  -0.333933  0  3.779819  0  0  -0.365463  0  4.033788  0  0  -0.375547  0  4.054382  0  0  -0.123131  -0.358715  0  4.019978  0
C  C49  1  0.22170805  0.88847499  0.94599241  1  0  0.317356  0  3.815827  0  0  0.30729  0  4.081785  0  0  0.320596  0  4.095553  0  0  0.083969  0.298257  0  4.072343  0
C  C50  1  0.77826797  0.11151614  0.05400670  1  0  0.317421  0  3.815891  0  0  0.307446  0  4.081719  0  0  0.320753  0  4.095482  0  0  0.084  0.298426  0  4.072278  0
C  C51  1  0.14529752  0.80149704  0.99685600  1  0  -0.292188  0  3.691229  0  0  -0.333508  0  3.964097  0  0  -0.340077  0  3.977117  0  0  -0.11438  -0.329187  0  3.955504  0
C  C52  1  0.85468386  0.19849907  0.00314270  1  0  -0.292388  0  3.690801  0  0  -0.333746  0  3.963661  0  0  -0.340323  0  3.976698  0  0  -0.114431  -0.329414  0  3.955058  0
C  C53  1  0.21812561  0.62224086  0.14493852  1  0  0.299176  0  3.768684  0  0  0.285698  0  4.029812  0  0  0.299018  0  4.043669  0  0  0.091904  0.276626  0  4.020317  0
C  C54  1  0.78187248  0.37776920  0.85506591  1  0  0.299321  0  3.768641  0  0  0.285855  0  4.029888  0  0  0.29914  0  4.043731  0  0  0.091988  0.276783  0  4.020393  0
C  C55  1  0.36471847  0.76100723  0.17683800  1  0  -0.207518  0  3.768463  0  0  -0.223774  0  4.018124  0  0  -0.232109  0  4.039568  0  0  -0.109585  -0.218278  0  4.003703  0
C  C56  1  0.63528018  0.23900795  0.82316515  1  0  -0.207794  0  3.768282  0  0  -0.223943  0  4.017988  0  0  -0.232279  0  4.039431  0  0  -0.109629  -0.218448  0  4.003569  0
C  C57  1  0.43050739  0.78811047  0.25189940  1  0  -0.018963  0  3.733582  0  0  -0.043924  0  3.981185  0  0  -0.039932  0  4.001173  0  0  -0.080102  -0.046265  0  3.967449  0
C  C58  1  0.56949275  0.21189809  0.74810243  1  0  -0.018917  0  3.733373  0  0  -0.04387  0  3.980984  0  0  -0.039873  0  4.000966  0  0  -0.080087  -0.046212  0  3.967252  0
C  C59  1  0.35394862  0.67678481  0.29539776  1  0  -0.098557  0  3.756088  0  0  -0.07782  0  3.993046  0  0  -0.089611  0  4.017251  0  0  -0.03106  -0.07015  0  3.976718  0
C  C60  1  0.64605274  0.32322367  0.70460361  1  0  -0.098596  0  3.756024  0  0  -0.077904  0  3.993084  0  0  -0.0897  0  4.017289  0  0  -0.031115  -0.070232  0  3.976758  0
C  C61  1  0.20834007  0.53593231  0.26211026  1  0  -0.027047  0  3.738901  0  0  -0.052647  0  3.991295  0  0  -0.049069  0  4.010668  0  0  -0.078253  -0.054747  0  3.978014  0
C  C62  1  0.79167044  0.46407060  0.73789092  1  0  -0.027126  0  3.738788  0  0  -0.052702  0  3.991146  0  0  -0.049124  0  4.01052  0  0  -0.078216  -0.0548  0  3.977862  0
C  C63  1  0.14027400  0.50863560  0.18743489  1  0  -0.192076  0  3.752076  0  0  -0.211834  0  4.011212  0  0  -0.218965  0  4.030919  0  0  -0.105205  -0.207145  0  3.997973  0
C  C64  1  0.85973220  0.49137676  0.81256972  1  0  -0.192156  0  3.751852  0  0  -0.211809  0  4.010921  0  0  -0.218959  0  4.030653  0  0  -0.105293  -0.207121  0  3.997678  0
C  C65  1  0.43004476  0.70391889  0.37514472  1  0  0.673944  0  3.883914  0  0  0.622817  0  4.176385  0  0  0.65948  0  4.167754  0  0  0.212571  0.597807  0  4.181444  0
C  C66  1  0.56996165  0.29607887  0.62485428  1  0  0.674023  0  3.883928  0  0  0.622904  0  4.17639  0  0  0.659568  0  4.167757  0  0  0.212702  0.597894  0  4.181452  0
C  C67  1  0.58213852  0.72466085  0.85348737  1  0  0.2751  0  3.782066  0  0  0.267413  0  4.039607  0  0  0.278811  0  4.054545  0  0  0.08386  0.25976  0  4.02933  0
C  C68  1  0.41785263  0.27534285  0.14651460  1  0  0.275166  0  3.78237  0  0  0.267422  0  4.04  0  0  0.278829  0  4.054928  0  0  0.083907  0.259768  0  4.029723  0
C  C69  1  0.72066801  0.85260372  0.84244787  1  0  -0.181372  0  3.732749  0  0  -0.204938  0  3.991179  0  0  -0.211436  0  4.010142  0  0  -0.102059  -0.200696  0  3.978463  0
C  C70  1  0.27931637  0.14740555  0.15755606  1  0  -0.181484  0  3.732804  0  0  -0.204995  0  3.991316  0  0  -0.21149  0  4.010266  0  0  -0.102077  -0.200761  0  3.978606  0
C  C71  1  0.72580780  0.88223818  0.77118902  1  0  -0.032578  0  3.735958  0  0  -0.054312  0  3.979272  0  0  -0.05172  0  4.000966  0  0  -0.077152  -0.055731  0  3.964469  0
C  C72  1  0.27419028  0.11777191  0.22881595  1  0  -0.032329  0  3.735772  0  0  -0.054124  0  3.979152  0  0  -0.051516  0  4.000839  0  0  -0.077044  -0.055549  0  3.964356  0
C  C73  1  0.59492260  0.78450325  0.71160128  1  0  -0.0933  0  3.752559  0  0  -0.07064  0  3.986428  0  0  -0.082222  0  4.01106  0  0  -0.025273  -0.063138  0  3.969845  0
C  C74  1  0.40509032  0.21549958  0.28840007  1  0  -0.093542  0  3.752704  0  0  -0.070782  0  3.986537  0  0  -0.082362  0  4.011174  0  0  -0.025321  -0.063272  0  3.969941  0
C  C75  1  0.45953922  0.65178619  0.72369453  1  0  -0.034636  0  3.71464  0  0  -0.058251  0  3.963359  0  0  -0.056278  0  3.983674  0  0  -0.079386  -0.059219  0  3.949459  0
C  C76  1  0.54047540  0.34821370  0.27630090  1  0  -0.034634  0  3.714882  0  0  -0.05831  0  3.963544  0  0  -0.05636  0  3.983878  0  0  -0.079331  -0.059279  0  3.949638  0
C  C77  1  0.45345648  0.62181088  0.79451593  1  0  -0.181595  0  3.758549  0  0  -0.2019  0  4.010478  0  0  -0.208952  0  4.032217  0  0  -0.099969  -0.197261  0  3.995772  0
C  C78  1  0.54654988  0.37818289  0.20548124  1  0  -0.181425  0  3.7588  0  0  -0.201723  0  4.010806  0  0  -0.208773  0  4.03255  0  0  -0.099979  -0.197077  0  3.996109  0
C  C79  1  0.59895863  0.81821651  0.63560291  1  0  0.683124  0  3.868502  0  0  0.629053  0  4.161524  0  0  0.665614  0  4.152763  0  0  0.215751  0.604121  0  4.16675  0
C  C80  1  0.40105607  0.18177717  0.36439914  1  0  0.683243  0  3.868304  0  0  0.629079  0  4.161437  0  0  0.66564  0  4.152672  0  0  0.215717  0.604142  0  4.166664  0
C  C81  1  0.15096920  0.04303124  0.85217515  1  0  0.286292  0  3.771032  0  0  0.275697  0  4.03016  0  0  0.288249  0  4.044721  0  0  0.090621  0.267161  0  4.020192  0
C  C82  1  0.84902236  0.95696564  0.14782058  1  0  0.286153  0  3.770839  0  0  0.275593  0  4.029945  0  0  0.288156  0  4.04449  0  0  0.090553  0.267058  0  4.019988  0
C  C83  1  0.14990369  0.92016306  0.79123401  1  0  -0.198436  0  3.75781  0  0  -0.216386  0  4.007686  0  0  -0.223645  0  4.028444  0  0  -0.101997  -0.211538  0  3.993579  0
C  C84  1  0.85008137  0.07983280  0.20876227  1  0  -0.198369  0  3.757545  0  0  -0.216321  0  4.007379  0  0  -0.223564  0  4.02817  0  0  -0.101944  -0.211467  0  3.993282  0
C  C85  1  0.13088992  0.95925230  0.72124339  1  0  -0.029154  0  3.725787  0  0  -0.053144  0  3.977063  0  0  -0.049683  0  3.993987  0  0  -0.07487  -0.055198  0  3.965492  0
C  C86  1  0.86909752  0.04074354  0.27875466  1  0  -0.029152  0  3.725626  0  0  -0.053158  0  3.976892  0  0  -0.049695  0  3.993808  0  0  -0.074904  -0.055224  0  3.965311  0
C  C87  1  0.11471397  0.11989944  0.71131208  1  0  -0.078406  0  3.753014  0  0  -0.059954  0  3.993781  0  0  -0.069382  0  4.014861  0  0  -0.021371  -0.053911  0  3.979695  0
C  C88  1  0.88528037  0.88009877  0.28868661  1  0  -0.078435  0  3.752906  0  0  -0.05999  0  3.993638  0  0  -0.069417  0  4.014715  0  0  -0.021405  -0.053912  0  3.979502  0
C  C89  1  0.11613371  0.24078224  0.77289858  1  0  -0.040403  0  3.745181  0  0  -0.063577  0  3.993149  0  0  -0.060357  0  4.011559  0  0  -0.077579  -0.065465  0  3.980624  0
C  C90  1  0.88386876  0.75921823  0.22709922  1  0  -0.040481  0  3.744806  0  0  -0.063648  0  3.992774  0  0  -0.060428  0  4.011183  0  0  -0.077626  -0.065548  0  3.980241  0
C  C91  1  0.13428445  0.20383899  0.84320816  1  0  -0.182517  0  3.719834  0  0  -0.204851  0  3.97834  0  0  -0.210827  0  3.995666  0  0  -0.098786  -0.200972  0  3.966778  0
C  C92  1  0.86572130  0.79616397  0.15679001  1  0  -0.182348  0  3.719462  0  0  -0.20471  0  3.977961  0  0  -0.210687  0  3.995283  0  0  -0.098706  -0.200827  0  3.966404  0
C  C93  1  0.09959384  0.16284969  0.63660898  1  0  0.678667  0  3.852804  0  0  0.622945  0  4.149035  0  0  0.658928  0  4.140846  0  0  0.214648  0.598437  0  4.153926  0
C  C94  1  0.90041860  0.83714786  0.36339044  1  0  0.67861  0  3.853075  0  0  0.622938  0  4.149234  0  0  0.658922  0  4.141045  0  0  0.214668  0.59842  0  4.154121  0
O  O95  1  0.13736840  0.59122665  0.07214520  1  0  -0.301081  0  2.340152  0  0  -0.229958  0  2.564319  0  0  -0.24847  0  2.566103  0  0  -0.150802  -0.216725  0  2.562526  0
O  O96  1  0.86261623  0.40877201  0.92785495  1  0  -0.3009  0  2.340139  0  0  -0.230108  0  2.56464  0  0  -0.24849  0  2.566329  0  0  -0.150817  -0.216874  0  2.562848  0
O  O97  1  0.56980089  0.69947379  0.92524665  1  0  -0.300718  0  2.276518  0  0  -0.232524  0  2.495629  0  0  -0.249291  0  2.495248  0  0  -0.156448  -0.220635  0  2.49548  0
O  O98  1  0.43017985  0.30051734  0.07475654  1  0  -0.300748  0  2.276942  0  0  -0.232453  0  2.496099  0  0  -0.249233  0  2.495728  0  0  -0.156365  -0.220565  0  2.495956  0
O  O99  1  0.15345345  0.01195972  0.92297547  1  0  -0.297567  0  2.353746  0  0  -0.224785  0  2.577411  0  0  -0.243206  0  2.577966  0  0  -0.147213  -0.211735  0  2.576552  0
O  O100  1  0.84652999  0.98803486  0.07702009  1  0  -0.297525  0  2.353655  0  0  -0.224778  0  2.577259  0  0  -0.243202  0  2.577815  0  0  -0.147173  -0.211757  0  2.576419  0
O  O101  1  0.35583298  0.58985817  0.41038427  1  0  -0.710211  0  2.051925  0  0  -0.635056  0  2.301297  0  0  -0.664947  0  2.287801  0  0  -0.343175  -0.613917  0  2.309792  0
O  O102  1  0.64417655  0.41013423  0.58961412  1  0  -0.710205  0  2.051957  0  0  -0.635076  0  2.301381  0  0  -0.664967  0  2.28788  0  0  -0.343243  -0.61394  0  2.30989  0
O  O103  1  0.55953561  0.83407603  0.40356923  1  0  -0.65644  0  2.018308  0  0  -0.59281  0  2.275468  0  0  -0.622495  0  2.26343  0  0  -0.325362  -0.572003  0  2.283049  0
O  O104  1  0.44046763  0.16592719  0.59643252  1  0  -0.656446  0  2.01841  0  0  -0.592819  0  2.275588  0  0  -0.622505  0  2.263548  0  0  -0.325379  -0.572009  0  2.283168  0
O  O105  1  0.47476834  0.72267142  0.58331326  1  0  -0.733722  0  2.110737  0  0  -0.659264  0  2.366954  0  0  -0.687299  0  2.350499  0  0  -0.344419  -0.639394  0  2.377432  0
O  O106  1  0.52524522  0.27732624  0.41668946  1  0  -0.733765  0  2.110747  0  0  -0.65924  0  2.366958  0  0  -0.687296  0  2.350539  0  0  -0.344399  -0.639366  0  2.377434  0
O  O107  1  0.72377379  0.93674569  0.62536441  1  0  -0.628667  0  2.021487  0  0  -0.562629  0  2.276006  0  0  -0.594292  0  2.26755  0  0  -0.311508  -0.540596  0  2.28116  0
O  O108  1  0.27623523  0.06324558  0.37463709  1  0  -0.628629  0  2.021273  0  0  -0.562654  0  2.275965  0  0  -0.594316  0  2.267505  0  0  -0.3115  -0.540618  0  2.281119  0
O  O109  1  0.05995532  0.03600367  0.58063779  1  0  -0.725009  0  2.095005  0  0  -0.64838  0  2.365628  0  0  -0.680471  0  2.351761  0  0  -0.349737  -0.62565  0  2.374336  0
O  O110  1  0.94006720  0.96399482  0.41936241  1  0  -0.724982  0  2.095122  0  0  -0.64838  0  2.36574  0  0  -0.680473  0  2.351875  0  0  -0.34972  -0.625651  0  2.374449  0
O  O111  1  0.12818313  0.31992205  0.63126417  1  0  -0.59261  0  1.946493  0  0  -0.534454  0  2.156965  0  0  -0.55992  0  2.146636  0  0  -0.30796  -0.516866  0  2.163684  0
O  O112  1  0.87184748  0.68007880  0.36873729  1  0  -0.592648  0  1.94647  0  0  -0.534487  0  2.1569  0  0  -0.559956  0  2.146575  0  0  -0.307975  -0.516899  0  2.163621  0
O  O113  1  0.20873857  0.34255792  0.50725790  1  0  -0.875508  0  1.914297  0  0  -0.80365  0  2.140287  0  0  -0.829401  0  2.104676  0  0  -0.56709  -0.785299  0  2.164913  0
O  O114  1  0.79127251  0.65744601  0.49273750  1  0  -0.875657  0  1.914162  0  0  -0.80382  0  2.140136  0  0  -0.829569  0  2.104515  0  0  -0.567183  -0.785474  0  2.164777  0
O  O115  1  0.79306423  0.22724418  0.49721334  1  0  -0.827172  0  1.847195  0  0  -0.764153  0  2.033518  0  0  -0.787743  0  1.999793  0  0  -0.578962  -0.747415  0  2.056937  0
O  O116  1  0.20695955  0.77275827  0.50278878  1  0  -0.827384  0  1.846763  0  0  -0.764378  0  2.03314  0  0  -0.787982  0  1.999433  0  0  -0.579094  -0.747633  0  2.056548  0
