# generated using pymatgen
data_ZnH10(C2N)4
_symmetry_space_group_name_H-M   'P 1'
_cell_length_a   14.77436458
_cell_length_b   14.77425789
_cell_length_c   14.77425544
_cell_angle_alpha   109.47109700
_cell_angle_beta   109.47139362
_cell_angle_gamma   109.47137239
_symmetry_Int_Tables_number   1
_chemical_formula_structural   ZnH10(C2N)4
_chemical_formula_sum   'Zn6 H60 C48 N24'
_cell_volume   2482.54495682
_cell_formula_units_Z   6
loop_
 _symmetry_equiv_pos_site_id
 _symmetry_equiv_pos_as_xyz
  1  'x, y, z'
loop_
 _atom_site_type_symbol
 _atom_site_label
 _atom_site_symmetry_multiplicity
 _atom_site_fract_x
 _atom_site_fract_y
 _atom_site_fract_z
 _atom_site_occupancy
 _atom_site_hle17_bader_spin_density
 _atom_site_hle17_ddec_charge
 _atom_site_hle17_ddec_spin_density
 _atom_site_hle17_ddec_sum_bond_order
 _atom_site_hle17_magmom
 _atom_site_hse06_10hf_bader_spin_density
 _atom_site_hse06_10hf_ddec_charge
 _atom_site_hse06_10hf_ddec_spin_density
 _atom_site_hse06_10hf_ddec_sum_bond_order
 _atom_site_hse06_10hf_magmom
 _atom_site_hse06_bader_spin_density
 _atom_site_hse06_ddec_charge
 _atom_site_hse06_ddec_spin_density
 _atom_site_hse06_ddec_sum_bond_order
 _atom_site_hse06_magmom
 _atom_site_pbe_bader_spin_density
 _atom_site_pbe_cm5_charge
 _atom_site_pbe_ddec_charge
 _atom_site_pbe_ddec_spin_density
 _atom_site_pbe_ddec_sum_bond_order
 _atom_site_pbe_magmom
Zn  Zn0  1  0.49999909  0.25000039  0.74999810  1  0  0.865232  0  2.065956  0  0  0.671085  0  2.539246  0  0  0.706768  0  2.499777  0  0  0.721789  0.646768  0  2.566058  0
Zn  Zn1  1  0.49999922  0.74999872  0.24999989  1  0  0.86517  0  2.065993  0  0  0.671022  0  2.539276  0  0  0.706703  0  2.499811  0  0  0.721766  0.646698  0  2.566087  0
Zn  Zn2  1  0.24999895  0.49999824  0.74999894  1  0  0.865194  0  2.06597  0  0  0.671048  0  2.539251  0  0  0.70673  0  2.499783  0  0  0.721786  0.646727  0  2.566064  0
Zn  Zn3  1  0.74999925  0.49999999  0.25000060  1  0  0.865175  0  2.065941  0  0  0.671007  0  2.539249  0  0  0.706692  0  2.49978  0  0  0.721752  0.646688  0  2.566058  0
Zn  Zn4  1  0.24999893  0.74999863  0.49999849  1  0  0.86522  0  2.06594  0  0  0.671048  0  2.539256  0  0  0.706728  0  2.499791  0  0  0.721777  0.646722  0  2.566071  0
Zn  Zn5  1  0.74999969  0.25000028  0.50000063  1  0  0.865224  0  2.065921  0  0  0.671045  0  2.539241  0  0  0.706727  0  2.499774  0  0  0.72177  0.646725  0  2.566053  0
H  H6  1  0.47663689  0.35415784  0.59192064  1  0  0.090146  0  0.971984  0  0  0.103071  0  1.029173  0  0  0.105306  0  1.028493  0  0  0.108115  0.101446  0  1.029754  0
H  H7  1  0.76223505  0.88471404  0.40807797  1  0  0.090172  0  0.971988  0  0  0.103096  0  1.029181  0  0  0.105331  0  1.028501  0  0  0.108111  0.101471  0  1.029761  0
H  H8  1  0.52336512  0.11528608  0.87752278  1  0  0.090109  0  0.972035  0  0  0.103052  0  1.029213  0  0  0.105288  0  1.028533  0  0  0.108112  0.101426  0  1.029794  0
H  H9  1  0.23776327  0.64584148  0.12247663  1  0  0.090114  0  0.972036  0  0  0.103048  0  1.029224  0  0  0.105293  0  1.028534  0  0  0.1081  0.101423  0  1.029805  0
H  H10  1  0.23776315  0.12247719  0.64584175  1  0  0.090124  0  0.971999  0  0  0.103054  0  1.02919  0  0  0.105298  0  1.028501  0  0  0.108112  0.10143  0  1.029771  0
H  H11  1  0.52336539  0.87752317  0.11528627  1  0  0.090097  0  0.972046  0  0  0.10304  0  1.029223  0  0  0.105277  0  1.028543  0  0  0.108106  0.101415  0  1.029805  0
H  H12  1  0.76223570  0.40807817  0.88471422  1  0  0.090137  0  0.971985  0  0  0.103078  0  1.029163  0  0  0.105313  0  1.028484  0  0  0.108112  0.101453  0  1.029745  0
H  H13  1  0.47663670  0.59192053  0.35415806  1  0  0.090143  0  0.971989  0  0  0.103068  0  1.029178  0  0  0.105303  0  1.028499  0  0  0.108114  0.101443  0  1.02976  0
H  H14  1  0.12247889  0.23776262  0.64584244  1  0  0.090131  0  0.972047  0  0  0.103054  0  1.029241  0  0  0.10529  0  1.028562  0  0  0.108106  0.101429  0  1.029823  0
H  H15  1  0.87752116  0.52336389  0.11528587  1  0  0.090139  0  0.972023  0  0  0.103061  0  1.029216  0  0  0.105296  0  1.028537  0  0  0.108103  0.101436  0  1.029797  0
H  H16  1  0.59192167  0.47663558  0.35415808  1  0  0.090133  0  0.971968  0  0  0.103067  0  1.029153  0  0  0.105311  0  1.028464  0  0  0.108121  0.101443  0  1.029733  0
H  H17  1  0.40807880  0.76223629  0.88471431  1  0  0.090141  0  0.97202  0  0  0.103062  0  1.029218  0  0  0.105297  0  1.028538  0  0  0.108107  0.101437  0  1.0298  0
H  H18  1  0.40807869  0.88471445  0.76223695  1  0  0.090118  0  0.972014  0  0  0.103059  0  1.029195  0  0  0.105296  0  1.028514  0  0  0.108115  0.101435  0  1.029776  0
H  H19  1  0.12247839  0.64584191  0.23776184  1  0  0.090107  0  0.972036  0  0  0.103049  0  1.029212  0  0  0.105284  0  1.028533  0  0  0.108111  0.101423  0  1.029794  0
H  H20  1  0.59192064  0.35415761  0.47663513  1  0  0.090133  0  0.971945  0  0  0.103066  0  1.02913  0  0  0.105309  0  1.02844  0  0  0.108114  0.101441  0  1.029709  0
H  H21  1  0.87752106  0.11528634  0.52336421  1  0  0.09015  0  0.97203  0  0  0.103072  0  1.029224  0  0  0.105308  0  1.028544  0  0  0.108107  0.101447  0  1.029805  0
H  H22  1  0.88471643  0.40807985  0.76223728  1  0  0.090153  0  0.972004  0  0  0.103075  0  1.0292  0  0  0.10531  0  1.02852  0  0  0.108118  0.10145  0  1.029782  0
H  H23  1  0.35415669  0.59192135  0.47663571  1  0  0.090155  0  0.971974  0  0  0.103079  0  1.029165  0  0  0.105314  0  1.028486  0  0  0.108105  0.101454  0  1.029746  0
H  H24  1  0.11528583  0.87752236  0.52336420  1  0  0.09012  0  0.972041  0  0  0.103064  0  1.029216  0  0  0.1053  0  1.028536  0  0  0.108113  0.101438  0  1.029797  0
H  H25  1  0.64584199  0.12247752  0.23776310  1  0  0.090105  0  0.97204  0  0  0.103044  0  1.029221  0  0  0.105279  0  1.028542  0  0  0.108103  0.101418  0  1.029803  0
H  H26  1  0.88471618  0.76223668  0.40807952  1  0  0.09012  0  0.972038  0  0  0.103043  0  1.029231  0  0  0.105278  0  1.028552  0  0  0.108106  0.101418  0  1.029814  0
H  H27  1  0.35415708  0.47663596  0.59192207  1  0  0.090144  0  0.971981  0  0  0.103067  0  1.029171  0  0  0.105292  0  1.028504  0  0  0.108104  0.101443  0  1.029752  0
H  H28  1  0.64584190  0.23776339  0.12247787  1  0  0.090099  0  0.972041  0  0  0.103038  0  1.029224  0  0  0.105273  0  1.028545  0  0  0.108103  0.101413  0  1.029805  0
H  H29  1  0.11528679  0.52336533  0.87752267  1  0  0.090127  0  0.972011  0  0  0.103061  0  1.029196  0  0  0.105306  0  1.028507  0  0  0.108113  0.101436  0  1.029777  0
H  H30  1  0.62057520  0.13272564  0.69443226  1  0  0.128996  0  0.951809  0  0  0.148837  0  1.010181  0  0  0.150827  0  1.009777  0  0  0.097507  0.147415  0  1.010481  0
H  H31  1  0.43829450  0.92614229  0.30556793  1  0  0.128998  0  0.951778  0  0  0.14882  0  1.010169  0  0  0.150811  0  1.009765  0  0  0.097511  0.147398  0  1.010469  0
H  H32  1  0.37942418  0.07385719  0.51215007  1  0  0.128975  0  0.951786  0  0  0.14881  0  1.010173  0  0  0.150799  0  1.009769  0  0  0.09749  0.14739  0  1.010474  0
H  H33  1  0.56170521  0.86727434  0.48784899  1  0  0.128994  0  0.951808  0  0  0.148819  0  1.010196  0  0  0.150809  0  1.009791  0  0  0.09751  0.147397  0  1.010495  0
H  H34  1  0.56170558  0.48784905  0.86727460  1  0  0.129016  0  0.951762  0  0  0.148841  0  1.010149  0  0  0.150832  0  1.009744  0  0  0.097505  0.147419  0  1.010448  0
H  H35  1  0.37942454  0.51215030  0.07385701  1  0  0.128985  0  0.95176  0  0  0.148825  0  1.010139  0  0  0.150815  0  1.009734  0  0  0.097505  0.147402  0  1.010438  0
H  H36  1  0.43829435  0.30556828  0.92614256  1  0  0.128971  0  0.951781  0  0  0.148805  0  1.010172  0  0  0.150795  0  1.009767  0  0  0.097491  0.147383  0  1.010471  0
H  H37  1  0.62057461  0.69443183  0.13272510  1  0  0.12901  0  0.951782  0  0  0.14885  0  1.010153  0  0  0.15084  0  1.009749  0  0  0.097515  0.147427  0  1.010453  0
H  H38  1  0.48784927  0.56170652  0.86727460  1  0  0.129006  0  0.95177  0  0  0.148845  0  1.010144  0  0  0.150835  0  1.009741  0  0  0.097508  0.147422  0  1.010444  0
H  H39  1  0.51215250  0.37942535  0.07385764  1  0  0.128976  0  0.951771  0  0  0.148811  0  1.010159  0  0  0.150801  0  1.009755  0  0  0.097495  0.147388  0  1.010459  0
H  H40  1  0.69443092  0.62057436  0.13272510  1  0  0.129017  0  0.951757  0  0  0.148847  0  1.010135  0  0  0.150837  0  1.009731  0  0  0.097506  0.147424  0  1.010435  0
H  H41  1  0.30556712  0.43829303  0.92614264  1  0  0.128968  0  0.951789  0  0  0.148808  0  1.010165  0  0  0.150798  0  1.009761  0  0  0.097493  0.147386  0  1.010464  0
H  H42  1  0.30556734  0.92614312  0.43829302  1  0  0.128987  0  0.951778  0  0  0.148824  0  1.01016  0  0  0.150814  0  1.009756  0  0  0.097493  0.1474  0  1.010459  0
H  H43  1  0.48784971  0.86727436  0.56170654  1  0  0.128987  0  0.951821  0  0  0.148824  0  1.010197  0  0  0.150813  0  1.009793  0  0  0.097506  0.147402  0  1.010496  0
H  H44  1  0.69443070  0.13272562  0.62057472  1  0  0.129007  0  0.951797  0  0  0.148837  0  1.01018  0  0  0.150827  0  1.009776  0  0  0.097515  0.147415  0  1.01048  0
H  H45  1  0.51215134  0.07385703  0.37942498  1  0  0.12898  0  0.951813  0  0  0.148802  0  1.010208  0  0  0.150792  0  1.009803  0  0  0.097503  0.14738  0  1.010507  0
H  H46  1  0.92614319  0.30556771  0.43829314  1  0  0.128996  0  0.951763  0  0  0.148823  0  1.010154  0  0  0.150813  0  1.00975  0  0  0.097495  0.147401  0  1.010453  0
H  H47  1  0.13272618  0.69443104  0.62057410  1  0  0.129034  0  0.95177  0  0  0.14887  0  1.010146  0  0  0.150861  0  1.009742  0  0  0.097518  0.147448  0  1.010446  0
H  H48  1  0.07385636  0.51215089  0.37942504  1  0  0.128983  0  0.951788  0  0  0.148817  0  1.01017  0  0  0.150806  0  1.009767  0  0  0.097506  0.147394  0  1.01047  0
H  H49  1  0.86727448  0.48784961  0.56170729  1  0  0.128989  0  0.951815  0  0  0.148825  0  1.010197  0  0  0.150815  0  1.009792  0  0  0.0975  0.147402  0  1.010496  0
H  H50  1  0.92614240  0.43829251  0.30556742  1  0  0.128978  0  0.951766  0  0  0.148808  0  1.010153  0  0  0.150797  0  1.00975  0  0  0.097501  0.147385  0  1.010453  0
H  H51  1  0.13272658  0.62057427  0.69443206  1  0  0.129034  0  0.951761  0  0  0.148869  0  1.010141  0  0  0.15086  0  1.009736  0  0  0.097516  0.147447  0  1.010441  0
H  H52  1  0.86727480  0.56170686  0.48785005  1  0  0.12901  0  0.951784  0  0  0.148847  0  1.010164  0  0  0.150838  0  1.00976  0  0  0.097517  0.147425  0  1.010464  0
H  H53  1  0.07385602  0.37942494  0.51215045  1  0  0.129017  0  0.951789  0  0  0.148846  0  1.010174  0  0  0.150836  0  1.00977  0  0  0.097507  0.147423  0  1.010474  0
H  H54  1  0.75696862  0.24314430  0.75696948  1  0  0.113785  0  0.946996  0  0  0.133144  0  1.009073  0  0  0.13511  0  1.008093  0  0  0.093003  0.131799  0  1.00971  0
H  H55  1  0.48617630  0.00000009  0.24303146  1  0  0.113693  0  0.946999  0  0  0.133044  0  1.009099  0  0  0.13501  0  1.00812  0  0  0.092964  0.131697  0  1.009737  0
H  H56  1  0.24303141  0.00000030  0.48617498  1  0  0.113828  0  0.947002  0  0  0.133186  0  1.009072  0  0  0.135152  0  1.008093  0  0  0.093022  0.131837  0  1.009709  0
H  H57  1  0.51382306  0.75685524  0.51382448  1  0  0.113753  0  0.94694  0  0  0.133111  0  1.009025  0  0  0.135077  0  1.008045  0  0  0.092993  0.131764  0  1.009665  0
H  H58  1  0.51382369  0.51382419  0.75685475  1  0  0.11375  0  0.946939  0  0  0.133105  0  1.00903  0  0  0.135072  0  1.008049  0  0  0.092986  0.131758  0  1.009669  0
H  H59  1  0.24303098  0.48617439  0.99999921  1  0  0.113878  0  0.946926  0  0  0.133209  0  1.009025  0  0  0.135176  0  1.008046  0  0  0.093035  0.131864  0  1.009663  0
H  H60  1  0.48617564  0.24303119  0.99999932  1  0  0.113823  0  0.947019  0  0  0.133182  0  1.009085  0  0  0.135149  0  1.008105  0  0  0.093026  0.131835  0  1.009724  0
H  H61  1  0.75696802  0.75696859  0.24314339  1  0  0.113814  0  0.946967  0  0  0.133154  0  1.00906  0  0  0.135121  0  1.00808  0  0  0.09301  0.131809  0  1.009698  0
H  H62  1  0.99999973  0.24303110  0.48617537  1  0  0.113833  0  0.947004  0  0  0.133191  0  1.009071  0  0  0.135157  0  1.008092  0  0  0.093021  0.131845  0  1.009709  0
H  H63  1  0.24314465  0.75696848  0.75696806  1  0  0.113842  0  0.947023  0  0  0.133201  0  1.009087  0  0  0.135167  0  1.008108  0  0  0.09303  0.131855  0  1.009725  0
H  H64  1  0.99999888  0.48617411  0.24303047  1  0  0.113867  0  0.946927  0  0  0.133198  0  1.009025  0  0  0.135164  0  1.008045  0  0  0.093025  0.131852  0  1.009663  0
H  H65  1  0.75685649  0.51382545  0.51382527  1  0  0.113817  0  0.946969  0  0  0.133176  0  1.009039  0  0  0.135142  0  1.00806  0  0  0.093023  0.13183  0  1.009678  0
C  C66  1  0.53414713  0.32400523  0.59112030  1  0  -0.0387  0  3.83765  0  0  -0.072325  0  4.100904  0  0  -0.071546  0  4.12279  0  0  -0.029768  -0.072797  0  4.086088  0
C  C67  1  0.73288347  0.94302634  0.40887858  1  0  -0.038837  0  3.837733  0  0  -0.072473  0  4.101006  0  0  -0.071692  0  4.122888  0  0  -0.029831  -0.072945  0  4.086188  0
C  C68  1  0.46585291  0.05697390  0.78985861  1  0  -0.038665  0  3.837659  0  0  -0.072313  0  4.100925  0  0  -0.071534  0  4.122807  0  0  -0.029775  -0.072784  0  4.086108  0
C  C69  1  0.26711640  0.67599466  0.21014094  1  0  -0.038817  0  3.837688  0  0  -0.072461  0  4.100971  0  0  -0.07169  0  4.122851  0  0  -0.029839  -0.072935  0  4.086155  0
C  C70  1  0.26711611  0.21014193  0.67599637  1  0  -0.038724  0  3.837644  0  0  -0.072363  0  4.10092  0  0  -0.071592  0  4.1228  0  0  -0.02979  -0.072836  0  4.086102  0
C  C71  1  0.46585365  0.78985891  0.05697459  1  0  -0.038659  0  3.837661  0  0  -0.072308  0  4.100924  0  0  -0.071529  0  4.122807  0  0  -0.029775  -0.07278  0  4.086107  0
C  C72  1  0.73288304  0.40887890  0.94302575  1  0  -0.038773  0  3.837635  0  0  -0.07242  0  4.100909  0  0  -0.071641  0  4.122791  0  0  -0.029822  -0.072893  0  4.086093  0
C  C73  1  0.53414761  0.59112047  0.32400553  1  0  -0.038706  0  3.837659  0  0  -0.07233  0  4.100915  0  0  -0.071551  0  4.122802  0  0  -0.029781  -0.072802  0  4.086098  0
C  C74  1  0.21014271  0.26711545  0.67599564  1  0  -0.038735  0  3.837746  0  0  -0.072368  0  4.101015  0  0  -0.071589  0  4.1229  0  0  -0.029793  -0.07284  0  4.086198  0
C  C75  1  0.78985740  0.46585388  0.05697433  1  0  -0.038719  0  3.837726  0  0  -0.072345  0  4.100987  0  0  -0.071566  0  4.122869  0  0  -0.029786  -0.072818  0  4.086169  0
C  C76  1  0.59112040  0.53414600  0.32400400  1  0  -0.038732  0  3.837601  0  0  -0.072368  0  4.100869  0  0  -0.071597  0  4.122751  0  0  -0.02978  -0.072841  0  4.086052  0
C  C77  1  0.40888042  0.73288440  0.94302632  1  0  -0.03874  0  3.837696  0  0  -0.072367  0  4.100965  0  0  -0.071587  0  4.122847  0  0  -0.02977  -0.07284  0  4.086149  0
C  C78  1  0.40887918  0.94302606  0.73288467  1  0  -0.038695  0  3.837658  0  0  -0.072341  0  4.10093  0  0  -0.071562  0  4.122811  0  0  -0.029775  -0.072813  0  4.086111  0
C  C79  1  0.21014272  0.67599623  0.26711476  1  0  -0.038643  0  3.837672  0  0  -0.072291  0  4.100938  0  0  -0.071511  0  4.122825  0  0  -0.029767  -0.072763  0  4.086121  0
C  C80  1  0.59112153  0.32400549  0.53414719  1  0  -0.03875  0  3.83759  0  0  -0.072389  0  4.100853  0  0  -0.071617  0  4.122734  0  0  -0.029792  -0.07286  0  4.086033  0
C  C81  1  0.78985792  0.05697465  0.46585325  1  0  -0.038751  0  3.837705  0  0  -0.072382  0  4.100966  0  0  -0.071603  0  4.122848  0  0  -0.029798  -0.072855  0  4.086149  0
C  C82  1  0.94302709  0.40887968  0.73288450  1  0  -0.0387  0  3.83769  0  0  -0.072328  0  4.100954  0  0  -0.071548  0  4.122839  0  0  -0.029763  -0.072801  0  4.086138  0
C  C83  1  0.32400325  0.59111988  0.53414565  1  0  -0.038808  0  3.837651  0  0  -0.072437  0  4.10091  0  0  -0.071658  0  4.122792  0  0  -0.029818  -0.072909  0  4.086092  0
C  C84  1  0.05697445  0.78985858  0.46585362  1  0  -0.038744  0  3.837637  0  0  -0.072399  0  4.100908  0  0  -0.07162  0  4.12279  0  0  -0.029802  -0.072871  0  4.08609  0
C  C85  1  0.67599542  0.21014179  0.26711580  1  0  -0.038694  0  3.837697  0  0  -0.072337  0  4.100965  0  0  -0.071558  0  4.122849  0  0  -0.029773  -0.07281  0  4.086149  0
C  C86  1  0.94302680  0.73288430  0.40887951  1  0  -0.038664  0  3.837683  0  0  -0.072292  0  4.10095  0  0  -0.071511  0  4.122832  0  0  -0.029755  -0.072766  0  4.086135  0
C  C87  1  0.32400441  0.53414687  0.59112164  1  0  -0.038772  0  3.837671  0  0  -0.072395  0  4.100929  0  0  -0.071607  0  4.122817  0  0  -0.029816  -0.072868  0  4.086112  0
C  C88  1  0.67599529  0.26711576  0.21014166  1  0  -0.038659  0  3.837662  0  0  -0.072306  0  4.100934  0  0  -0.071527  0  4.122818  0  0  -0.029762  -0.072779  0  4.086117  0
C  C89  1  0.05697474  0.46585396  0.78985862  1  0  -0.038757  0  3.837656  0  0  -0.072401  0  4.100926  0  0  -0.071631  0  4.122808  0  0  -0.029805  -0.072874  0  4.08611  0
C  C90  1  0.63061003  0.24401217  0.63061040  1  0  0.393957  0  3.743564  0  0  0.379517  0  4.004129  0  0  0.393596  0  4.021245  0  0  0.193473  0.370232  0  3.992244  0
C  C91  1  0.61340204  0.00000069  0.36939060  1  0  0.394007  0  3.743548  0  0  0.379582  0  4.004082  0  0  0.39366  0  4.0212  0  0  0.193506  0.370293  0  3.992202  0
C  C92  1  0.36939002  0.00000040  0.61340220  1  0  0.394011  0  3.743561  0  0  0.379575  0  4.004128  0  0  0.393652  0  4.021247  0  0  0.193486  0.37029  0  3.992244  0
C  C93  1  0.38659766  0.75598752  0.38659775  1  0  0.393931  0  3.743576  0  0  0.379493  0  4.004134  0  0  0.39358  0  4.021238  0  0  0.193467  0.370207  0  3.992249  0
C  C94  1  0.38659749  0.38659813  0.75598735  1  0  0.393959  0  3.743504  0  0  0.379554  0  4.004015  0  0  0.393629  0  4.021137  0  0  0.193501  0.370262  0  3.992138  0
C  C95  1  0.36938967  0.61340181  0.00000012  1  0  0.393963  0  3.743517  0  0  0.379541  0  4.004061  0  0  0.393617  0  4.02118  0  0  0.19349  0.370255  0  3.992176  0
C  C96  1  0.61340177  0.36939014  0.99999954  1  0  0.394057  0  3.743476  0  0  0.37964  0  4.004013  0  0  0.393716  0  4.021131  0  0  0.193519  0.370354  0  3.992129  0
C  C97  1  0.63061016  0.63061072  0.24401225  1  0  0.39393  0  3.743546  0  0  0.379511  0  4.004077  0  0  0.393589  0  4.021195  0  0  0.193467  0.370221  0  3.992196  0
C  C98  1  0.00000031  0.36938992  0.61340265  1  0  0.393991  0  3.743525  0  0  0.379557  0  4.004079  0  0  0.393634  0  4.021197  0  0  0.193484  0.370269  0  3.992199  0
C  C99  1  0.24401167  0.63060971  0.63060996  1  0  0.393999  0  3.743473  0  0  0.37958  0  4.004009  0  0  0.393657  0  4.021128  0  0  0.193493  0.370291  0  3.992128  0
C  C100  1  0.99999974  0.61340183  0.36938935  1  0  0.393945  0  3.743544  0  0  0.379506  0  4.004104  0  0  0.393576  0  4.021231  0  0  0.193466  0.370222  0  3.992216  0
C  C101  1  0.75598808  0.38659847  0.38659802  1  0  0.393976  0  3.743583  0  0  0.37955  0  4.004135  0  0  0.393627  0  4.021254  0  0  0.193487  0.370264  0  3.992249  0
C  C102  1  0.67812829  0.18519545  0.67812927  1  0  -0.393862  0  3.725267  0  0  -0.469921  0  3.958214  0  0  -0.473576  0  3.963775  0  0  -0.236551  -0.46724  0  3.954236  0
C  C103  1  0.50706764  0.00000022  0.32187171  1  0  -0.393774  0  3.725244  0  0  -0.469807  0  3.958185  0  0  -0.473463  0  3.963748  0  0  -0.236543  -0.467124  0  3.954208  0
C  C104  1  0.32187129  0.00000022  0.50706652  1  0  -0.393886  0  3.725247  0  0  -0.469943  0  3.958186  0  0  -0.473596  0  3.963746  0  0  -0.236545  -0.46726  0  3.954206  0
C  C105  1  0.49293288  0.81480452  0.49293361  1  0  -0.393791  0  3.725205  0  0  -0.469843  0  3.958157  0  0  -0.473499  0  3.963715  0  0  -0.236527  -0.46716  0  3.954179  0
C  C106  1  0.49293322  0.49293417  0.81480490  1  0  -0.393849  0  3.725081  0  0  -0.469908  0  3.958013  0  0  -0.473563  0  3.963575  0  0  -0.236537  -0.467223  0  3.954037  0
C  C107  1  0.32187048  0.50706573  0.99999961  1  0  -0.393916  0  3.725179  0  0  -0.469958  0  3.958119  0  0  -0.473612  0  3.963679  0  0  -0.236581  -0.467278  0  3.954141  0
C  C108  1  0.50706772  0.32187124  0.00000001  1  0  -0.393889  0  3.725257  0  0  -0.469953  0  3.958185  0  0  -0.473608  0  3.963746  0  0  -0.236572  -0.467271  0  3.954208  0
C  C109  1  0.67812838  0.67812878  0.18519547  1  0  -0.393906  0  3.725177  0  0  -0.469948  0  3.958115  0  0  -0.473603  0  3.963676  0  0  -0.236552  -0.467265  0  3.954138  0
C  C110  1  0.99999958  0.32187122  0.50706696  1  0  -0.393942  0  3.72521  0  0  -0.46999  0  3.958165  0  0  -0.473644  0  3.963726  0  0  -0.236559  -0.467307  0  3.954188  0
C  C111  1  0.18519596  0.67812867  0.67812860  1  0  -0.394002  0  3.725247  0  0  -0.470068  0  3.958171  0  0  -0.473724  0  3.963732  0  0  -0.236591  -0.467386  0  3.954195  0
C  C112  1  0.99999972  0.50706635  0.32187027  1  0  -0.3939  0  3.725189  0  0  -0.469925  0  3.958154  0  0  -0.473575  0  3.963718  0  0  -0.236561  -0.467244  0  3.954177  0
C  C113  1  0.81480480  0.49293405  0.49293446  1  0  -0.393895  0  3.725272  0  0  -0.469956  0  3.958204  0  0  -0.47361  0  3.963765  0  0  -0.236572  -0.467275  0  3.954226  0
N  N114  1  0.55953559  0.27366264  0.65198510  1  0  -0.453688  0  3.300824  0  0  -0.368713  0  3.588528  0  0  -0.388834  0  3.601321  0  0  -0.381259  -0.35514  0  3.57963  0
N  N115  1  0.62167621  0.90755010  0.34801475  1  0  -0.453571  0  3.300688  0  0  -0.368599  0  3.588371  0  0  -0.388718  0  3.601164  0  0  -0.381186  -0.355022  0  3.57947  0
N  N116  1  0.44046518  0.09245096  0.71412782  1  0  -0.453719  0  3.30074  0  0  -0.368743  0  3.588456  0  0  -0.388863  0  3.601247  0  0  -0.381268  -0.355171  0  3.579561  0
N  N117  1  0.37832354  0.72633738  0.28587303  1  0  -0.453595  0  3.300749  0  0  -0.368611  0  3.58843  0  0  -0.388734  0  3.601225  0  0  -0.381197  -0.355035  0  3.579528  0
N  N118  1  0.37832231  0.28587235  0.72633795  1  0  -0.453641  0  3.300793  0  0  -0.368672  0  3.588484  0  0  -0.388792  0  3.601282  0  0  -0.381236  -0.355095  0  3.579588  0
N  N119  1  0.44046482  0.71412752  0.09245098  1  0  -0.45369  0  3.300754  0  0  -0.368718  0  3.58847  0  0  -0.388838  0  3.601262  0  0  -0.381258  -0.355142  0  3.579568  0
N  N120  1  0.62167581  0.34801353  0.90754903  1  0  -0.453667  0  3.30071  0  0  -0.368706  0  3.588421  0  0  -0.388826  0  3.601211  0  0  -0.381238  -0.355132  0  3.579523  0
N  N121  1  0.55953532  0.65198537  0.27366212  1  0  -0.45366  0  3.300797  0  0  -0.368695  0  3.588501  0  0  -0.388815  0  3.601293  0  0  -0.381245  -0.355118  0  3.5796  0
N  N122  1  0.28587267  0.37832291  0.72633761  1  0  -0.453644  0  3.30079  0  0  -0.368676  0  3.588482  0  0  -0.388796  0  3.601275  0  0  -0.381242  -0.355099  0  3.579582  0
N  N123  1  0.71412705  0.44046498  0.09245010  1  0  -0.453679  0  3.300769  0  0  -0.368707  0  3.588467  0  0  -0.388826  0  3.601256  0  0  -0.381244  -0.355132  0  3.579566  0
N  N124  1  0.65198536  0.55953549  0.27366205  1  0  -0.453603  0  3.300699  0  0  -0.368625  0  3.588386  0  0  -0.388747  0  3.601184  0  0  -0.381227  -0.355049  0  3.579486  0
N  N125  1  0.34801472  0.62167723  0.90755022  1  0  -0.453634  0  3.300716  0  0  -0.368672  0  3.588425  0  0  -0.388791  0  3.601216  0  0  -0.381259  -0.355097  0  3.579526  0
N  N126  1  0.34801405  0.90754982  0.62167730  1  0  -0.453696  0  3.300763  0  0  -0.368722  0  3.588479  0  0  -0.388841  0  3.601272  0  0  -0.381262  -0.355145  0  3.579577  0
N  N127  1  0.28587238  0.72633800  0.37832244  1  0  -0.453638  0  3.300793  0  0  -0.368657  0  3.588502  0  0  -0.38878  0  3.601292  0  0  -0.381234  -0.35508  0  3.579598  0
N  N128  1  0.65198561  0.27366290  0.55953539  1  0  -0.453609  0  3.300674  0  0  -0.368618  0  3.58837  0  0  -0.388738  0  3.601167  0  0  -0.381216  -0.355043  0  3.57947  0
N  N129  1  0.71412693  0.09245125  0.44046568  1  0  -0.453656  0  3.300765  0  0  -0.368669  0  3.588444  0  0  -0.388789  0  3.601235  0  0  -0.381239  -0.355093  0  3.579545  0
N  N130  1  0.90755066  0.34801457  0.62167776  1  0  -0.453675  0  3.300798  0  0  -0.368697  0  3.588497  0  0  -0.388817  0  3.60129  0  0  -0.381257  -0.355122  0  3.579598  0
N  N131  1  0.27366119  0.65198481  0.55953411  1  0  -0.453613  0  3.300759  0  0  -0.368633  0  3.588444  0  0  -0.388752  0  3.601239  0  0  -0.381214  -0.355056  0  3.579544  0
N  N132  1  0.09245084  0.71412765  0.44046454  1  0  -0.453645  0  3.300676  0  0  -0.368653  0  3.588379  0  0  -0.38877  0  3.601174  0  0  -0.381239  -0.355077  0  3.579477  0
N  N133  1  0.72633866  0.28587337  0.37832345  1  0  -0.453675  0  3.300763  0  0  -0.368693  0  3.588461  0  0  -0.388812  0  3.601252  0  0  -0.381243  -0.355119  0  3.579562  0
N  N134  1  0.90754998  0.62167712  0.34801383  1  0  -0.453661  0  3.300737  0  0  -0.368687  0  3.588447  0  0  -0.388805  0  3.601241  0  0  -0.381255  -0.355113  0  3.579547  0
N  N135  1  0.27366224  0.55953495  0.65198560  1  0  -0.453603  0  3.300756  0  0  -0.368636  0  3.588452  0  0  -0.388756  0  3.601243  0  0  -0.381207  -0.355061  0  3.579553  0
N  N136  1  0.72633679  0.37832323  0.28587279  1  0  -0.453687  0  3.300793  0  0  -0.368709  0  3.588491  0  0  -0.38883  0  3.601285  0  0  -0.38126  -0.355133  0  3.579589  0
N  N137  1  0.09245080  0.44046530  0.71412776  1  0  -0.453652  0  3.300716  0  0  -0.368668  0  3.58841  0  0  -0.388788  0  3.601206  0  0  -0.381249  -0.355092  0  3.579511  0
