# generated using pymatgen
data_CuH16C24N2(ClO2)2
_symmetry_space_group_name_H-M   'P 1'
_cell_length_a   5.07147148
_cell_length_b   9.25737267
_cell_length_c   12.04967031
_cell_angle_alpha   105.71231100
_cell_angle_beta   90.87960910
_cell_angle_gamma   98.34482563
_symmetry_Int_Tables_number   1
_chemical_formula_structural   CuH16C24N2(ClO2)2
_chemical_formula_sum   'Cu1 H16 C24 N2 Cl2 O4'
_cell_volume   537.92177026
_cell_formula_units_Z   1
loop_
 _symmetry_equiv_pos_site_id
 _symmetry_equiv_pos_as_xyz
  1  'x, y, z'
loop_
 _atom_site_type_symbol
 _atom_site_label
 _atom_site_symmetry_multiplicity
 _atom_site_fract_x
 _atom_site_fract_y
 _atom_site_fract_z
 _atom_site_occupancy
 _atom_site_pbe_cm5_charge
 _atom_site_pbe_ddec_charge
 _atom_site_pbe_ddec_spin_density
 _atom_site_pbe_ddec_sum_bond_order
 _atom_site_pbe_magmom
Cu  Cu0  1  0.50000167  0.99999255  0.99999799  1  0.726797  0.734575  0.713241  2.17936  0.548
H  H1  1  0.00819999  0.05176469  0.87972498  1  0.120491  0.096217  0.000397  1.04002  0.001
H  H2  1  0.99179356  0.94822892  0.12027890  1  0.120489  0.09612  0.000396  1.040125  0.001
H  H3  1  0.79201391  0.26382238  0.86880846  1  0.111015  0.126812  0.000543  1.025455  0.001
H  H4  1  0.20798508  0.73617139  0.13120220  1  0.111007  0.126784  0.000543  1.025312  0.001
H  H5  1  0.36242363  0.55140824  0.13937325  1  0.103197  0.113749  0.000548  1.030937  0.001
H  H6  1  0.63756861  0.44857652  0.86063725  1  0.103191  0.11373  0.000548  1.030992  0.001
H  H7  1  0.56322638  0.32166884  0.13554999  1  0.114249  0.092628  0.00055  1.041095  0.001
H  H8  1  0.43678684  0.67831777  0.86445214  1  0.114246  0.09265  0.00055  1.041094  0.001
H  H9  1  0.09459554  0.27846157  0.26351605  1  0.098037  0.100509  0.00037  1.0277  0.0
H  H10  1  0.90539399  0.72153383  0.73647065  1  0.098091  0.100598  0.00037  1.027626  0.0
H  H11  1  0.36485241  0.40414399  0.44742156  1  0.097051  0.104306  8e-06  1.03962  0.0
H  H12  1  0.63514533  0.59586492  0.55256453  1  0.097045  0.104286  8e-06  1.039586  0.0
H  H13  1  0.78601468  0.18092761  0.63115001  1  0.102083  0.12206  9.1e-05  1.020928  0.0
H  H14  1  0.21398447  0.81910335  0.36885522  1  0.102129  0.122115  9.1e-05  1.020815  0.0
H  H15  1  0.51386075  0.06171389  0.44454470  1  0.105156  0.107245  -3e-05  1.035883  0.0
H  H16  1  0.48614965  0.93830224  0.55545962  1  0.105168  0.107253  -3e-05  1.035815  0.0
C  C17  1  0.08453695  0.16428586  0.93536723  1  0.049135  0.098982  -0.001272  3.922817  0.0
C  C18  1  0.91547379  0.83571213  0.06463617  1  0.049167  0.099192  -0.001273  3.922439  0.0
C  C19  1  0.96260883  0.28739743  0.93023422  1  -0.076441  -0.164623  0.003348  3.926217  0.004
C  C20  1  0.03738315  0.71259046  0.06976689  1  -0.076437  -0.164544  0.003349  3.926109  0.004
C  C21  1  0.05943236  0.43256760  0.00236099  1  0.01229  0.101215  -0.003462  3.967212  -0.002
C  C22  1  0.94055841  0.56742637  0.99765453  1  0.012279  0.100968  -0.003462  3.967803  -0.002
C  C23  1  0.27703562  0.44352877  0.07920885  1  -0.081339  -0.165013  0.003371  3.940337  0.004
C  C24  1  0.72296983  0.55645357  0.92079980  1  -0.081375  -0.164981  0.003373  3.940543  0.004
C  C25  1  0.39111803  0.31599507  0.07860384  1  0.0416  0.090018  -0.000964  3.932336  0.0
C  C26  1  0.60888406  0.68399390  0.92139851  1  0.041518  0.089926  -0.000965  3.932464  0.0
C  C27  1  0.62310976  0.08031412  0.23417657  1  0.196615  0.554155  -0.001471  4.218556  -0.003
C  C28  1  0.37687986  0.91967266  0.76582512  1  0.196549  0.554143  -0.001473  4.218469  -0.003
C  C29  1  0.78782456  0.16122745  0.34345286  1  -0.02309  -0.043218  0.005996  3.968014  0.007
C  C30  1  0.21216613  0.83878071  0.65654457  1  -0.023126  -0.043367  0.005995  3.968156  0.007
C  C31  1  0.02693992  0.25862099  0.34413470  1  -0.082526  -0.062606  -8.7e-05  3.958218  0.0
C  C32  1  0.97305715  0.74137323  0.65585193  1  -0.082638  -0.06268  -8.6e-05  3.958402  0.0
C  C33  1  0.17835773  0.32915581  0.44698478  1  -0.098338  -0.158217  9e-06  3.996981  0.0
C  C34  1  0.82164967  0.67084624  0.55300187  1  -0.098245  -0.158047  9e-06  3.997084  0.0
C  C35  1  0.08867006  0.30094710  0.54925685  1  0.017382  0.161168  -0.000526  4.030759  0.0
C  C36  1  0.91133121  0.69906752  0.45073205  1  0.017354  0.161033  -0.000526  4.030771  0.0
C  C37  1  0.85173168  0.20385867  0.55099469  1  -0.098801  -0.166137  0.000579  3.988546  0.001
C  C38  1  0.14827770  0.79616647  0.44900799  1  -0.098816  -0.166098  0.000579  3.988351  0.001
C  C39  1  0.70222667  0.13574319  0.44728717  1  -0.0811  -0.069555  0.00045  3.964474  0.001
C  C40  1  0.29776338  0.86427766  0.55271846  1  -0.081083  -0.069577  0.00045  3.964397  0.001
N  N41  1  0.29876061  0.17765478  0.00694451  1  -0.337721  -0.219882  0.059459  3.561922  0.077
N  N42  1  0.70124368  0.82233408  0.99305454  1  -0.337655  -0.219954  0.059466  3.561897  0.077
Cl  Cl43  1  0.27609181  0.39027374  0.67789489  1  0.004236  -0.080289  -8.3e-05  1.551219  0.0
Cl  Cl44  1  0.72390901  0.60974536  0.32209235  1  0.004224  -0.080296  -8.3e-05  1.551178  0.0
O  O45  1  0.70690022  0.11828944  0.14235680  1  -0.33618  -0.553852  0.075891  2.39399  0.106
O  O46  1  0.29309177  0.88169159  0.85764219  1  -0.33614  -0.553756  0.075887  2.393906  0.106
O  O47  1  0.42417473  0.98284749  0.23314402  1  -0.320366  -0.552855  -0.000337  2.156563  0.002
O  O48  1  0.57583281  0.01714035  0.76685989  1  -0.320373  -0.552889  -0.000335  2.156365  0.002
