# generated using pymatgen
data_NdFeH20C17N7O6
_symmetry_space_group_name_H-M   'P 1'
_cell_length_a   10.84445372
_cell_length_b   12.72162875
_cell_length_c   18.23206769
_cell_angle_alpha   90.00016468
_cell_angle_beta   90.00012186
_cell_angle_gamma   102.72279196
_symmetry_Int_Tables_number   1
_chemical_formula_structural   NdFeH20C17N7O6
_chemical_formula_sum   'Nd4 Fe4 H80 C68 N28 O24'
_cell_volume   2453.52227600
_cell_formula_units_Z   4
loop_
 _symmetry_equiv_pos_site_id
 _symmetry_equiv_pos_as_xyz
  1  'x, y, z'
loop_
 _atom_site_type_symbol
 _atom_site_label
 _atom_site_symmetry_multiplicity
 _atom_site_fract_x
 _atom_site_fract_y
 _atom_site_fract_z
 _atom_site_occupancy
 _atom_site_pbe_bader_charge
 _atom_site_pbe_bader_spin_density
 _atom_site_pbe_cm5_charge
 _atom_site_pbe_ddec_charge
 _atom_site_pbe_ddec_spin_density
 _atom_site_pbe_ddec_sum_bond_order
 _atom_site_pbe_magmom
Nd  Nd0  1  0.80128442  0.68217244  0.91406592  1  2.22272  0  1.571142  1.950338  0  2.278693  0
Nd  Nd1  1  0.69870898  0.31782567  0.41407338  1  2.222711  0  1.571161  1.95034  0  2.278724  0
Nd  Nd2  1  0.19871765  0.31782894  0.08592871  1  2.22264  0  1.571176  1.950353  0  2.278662  0
Nd  Nd3  1  0.30128218  0.68216930  0.58592893  1  2.222697  0  1.571193  1.950456  0  2.278547  0
Fe  Fe4  1  0.68763706  0.28973847  0.04487715  1  0.914184  0  0.582615  0.078537  0  4.876899  0
Fe  Fe5  1  0.81236460  0.71026097  0.54487525  1  0.914322  0  0.582601  0.078506  0  4.876733  0
Fe  Fe6  1  0.31237025  0.71026531  0.95512297  1  0.914224  0  0.582494  0.07836  0  4.877035  0
Fe  Fe7  1  0.18762882  0.28973561  0.45512158  1  0.914132  0  0.582613  0.078572  0  4.876906  0
H  H8  1  0.63486733  0.16382520  0.18979637  1  0.125856  0  0.121221  0.094689  0  1.035946  0
H  H9  1  0.86513298  0.83617417  0.68978985  1  0.125771  0  0.121246  0.094698  0  1.035763  0
H  H10  1  0.36514579  0.83617614  0.81020759  1  0.125999  0  0.121201  0.094702  0  1.035819  0
H  H11  1  0.13485825  0.16382806  0.31020807  1  0.125964  0  0.121197  0.094714  0  1.03585  0
H  H12  1  0.61552845  0.97356967  0.22585836  1  0.103915  0  0.104167  0.106335  0  1.041047  0
H  H13  1  0.88449082  0.02643464  0.72584969  1  0.104101  0  0.104159  0.106288  0  1.041068  0
H  H14  1  0.38450480  0.02643803  0.77414615  1  0.103996  0  0.104199  0.106385  0  1.040855  0
H  H15  1  0.11551118  0.97356996  0.27414769  1  0.104059  0  0.104163  0.106352  0  1.041056  0
H  H16  1  0.64113458  0.83731638  0.12765929  1  0.085604  0  0.113543  0.112612  0  0.974775  0
H  H17  1  0.85887847  0.16268666  0.62764866  1  0.085792  0  0.113548  0.112566  0  0.97478  0
H  H18  1  0.35888655  0.16268734  0.87234906  1  0.085819  0  0.113543  0.112558  0  0.974844  0
H  H19  1  0.14112105  0.83731554  0.37234707  1  0.085689  0  0.113543  0.112585  0  0.974786  0
H  H20  1  0.67099892  0.89920918  0.99910798  1  0.127751  0  0.114825  0.1241  0  1.046404  0
H  H21  1  0.82899171  0.10078776  0.49909980  1  0.127699  0  0.114865  0.124141  0  1.046495  0
H  H22  1  0.32900946  0.10078814  0.00089598  1  0.127839  0  0.114809  0.124114  0  1.046479  0
H  H23  1  0.17098896  0.89921291  0.50089648  1  0.127791  0  0.114833  0.124117  0  1.046452  0
H  H24  1  0.67250268  0.96115004  0.89197153  1  0.079866  0  0.115487  0.120143  0  1.013632  0
H  H25  1  0.82749409  0.03884714  0.39196543  1  0.079974  0  0.115518  0.120183  0  1.013527  0
H  H26  1  0.32751385  0.03885370  0.10803243  1  0.079911  0  0.115467  0.120119  0  1.0136  0
H  H27  1  0.17248758  0.96115030  0.60803414  1  0.079915  0  0.115483  0.120223  0  1.013656  0
H  H28  1  0.67717688  0.05011012  0.76910140  1  0.118359  0  0.109069  0.106232  0  1.009019  0
H  H29  1  0.82283735  0.94988153  0.26909657  1  0.118291  0  0.109151  0.106311  0  1.00911  0
H  H30  1  0.32283886  0.94988717  0.23090092  1  0.118446  0  0.109163  0.106333  0  1.009127  0
H  H31  1  0.17717719  0.05011818  0.73090026  1  0.118309  0  0.1091  0.106294  0  1.009031  0
H  H32  1  0.68852199  0.25033851  0.76495287  1  0.095194  0  0.10951  0.111339  0  1.001275  0
H  H33  1  0.81148911  0.74965877  0.26495092  1  0.095099  0  0.109498  0.111331  0  1.001284  0
H  H34  1  0.31147271  0.74966290  0.23504615  1  0.095108  0  0.109518  0.111364  0  1.001302  0
H  H35  1  0.18854697  0.25034569  0.73504371  1  0.095241  0  0.109543  0.11138  0  1.00139  0
H  H36  1  0.69040818  0.35058793  0.88260666  1  0.10747  0  0.129354  0.103515  0  1.001113  0
H  H37  1  0.80958967  0.64941000  0.38260286  1  0.107355  0  0.129343  0.103488  0  1.001275  0
H  H38  1  0.30958050  0.64941512  0.11739510  1  0.107455  0  0.129357  0.103508  0  1.001366  0
H  H39  1  0.19041977  0.35059135  0.61739123  1  0.107399  0  0.129343  0.103406  0  1.001272  0
H  H40  1  0.94547402  0.86041763  0.06398488  1  0.106267  0  0.107871  0.117488  0  1.006276  0
H  H41  1  0.55451944  0.13958194  0.56399028  1  0.104404  0  0.107887  0.117469  0  1.006249  0
H  H42  1  0.05453053  0.13958616  0.93601085  1  0.106152  0  0.107825  0.117415  0  1.006286  0
H  H43  1  0.44547094  0.86041707  0.43601258  1  0.106283  0  0.107877  0.117475  0  1.006302  0
H  H44  1  0.90108919  0.79243189  0.14844421  1  0.057427  0  0.088994  0.08175  0  1.01423  0
H  H45  1  0.59890561  0.20756810  0.64844871  1  0.057391  0  0.089012  0.081745  0  1.014321  0
H  H46  1  0.09891033  0.20757031  0.85155042  1  0.057365  0  0.089002  0.081736  0  1.014331  0
H  H47  1  0.40108639  0.79243009  0.35155470  1  0.057438  0  0.089047  0.081779  0  1.014368  0
H  H48  1  0.01162619  0.74841614  0.08807031  1  0.085157  0  0.095248  0.090054  0  1.016275  0
H  H49  1  0.48837173  0.25158535  0.58807429  1  0.085219  0  0.095217  0.090038  0  1.016211  0
H  H50  1  0.98837609  0.25158605  0.91192597  1  0.085301  0  0.095234  0.090041  0  1.016208  0
H  H51  1  0.51162141  0.74841365  0.41192912  1  0.085186  0  0.095256  0.090074  0  1.016103  0
H  H52  1  0.67801881  0.82320201  0.76552057  1  0.016433  0  0.088237  0.072404  0  1.028064  0
H  H53  1  0.82197826  0.17679453  0.26552626  1  0.016458  0  0.088214  0.072415  0  1.028081  0
H  H54  1  0.32197943  0.17679536  0.23447296  1  0.016475  0  0.088221  0.072433  0  1.028066  0
H  H55  1  0.17801857  0.82320445  0.73447660  1  0.016356  0  0.088229  0.072456  0  1.02803  0
H  H56  1  0.56409053  0.72068498  0.72066043  1  0.069806  0  0.103492  0.103882  0  1.024246  0
H  H57  1  0.93590788  0.27931375  0.22066482  1  0.069902  0  0.103488  0.103932  0  1.024256  0
H  H58  1  0.43591139  0.27931237  0.27933640  1  0.069857  0  0.103479  0.103899  0  1.024244  0
H  H59  1  0.06408937  0.72068684  0.77933695  1  0.069833  0  0.103494  0.103915  0  1.024277  0
H  H60  1  0.53692710  0.75730165  0.81279481  1  0.082084  0  0.101712  0.102174  0  1.03682  0
H  H61  1  0.96307219  0.24269915  0.31280026  1  0.081985  0  0.101686  0.102139  0  1.036837  0
H  H62  1  0.46307193  0.24270216  0.18719817  1  0.081947  0  0.1017  0.102197  0  1.0368  0
H  H63  1  0.03692811  0.75729901  0.68720041  1  0.082014  0  0.101707  0.102179  0  1.036813  0
H  H64  1  0.94607630  0.45900569  0.89716644  1  0.067306  0  0.108491  0.104684  0  0.998505  0
H  H65  1  0.55392013  0.54099717  0.39717033  1  0.067273  0  0.108514  0.10475  0  0.998543  0
H  H66  1  0.05392017  0.54099895  0.10283642  1  0.067368  0  0.108528  0.104733  0  0.998372  0
H  H67  1  0.44607244  0.45899618  0.60283418  1  0.067144  0  0.108544  0.10474  0  0.998392  0
H  H68  1  0.92591931  0.41024812  0.80478026  1  0.042421  0  0.090883  0.079947  0  0.998972  0
H  H69  1  0.57407901  0.58975265  0.30478317  1  0.042486  0  0.090862  0.079885  0  0.999076  0
H  H70  1  0.07408403  0.58974761  0.19522589  1  0.042359  0  0.090869  0.079908  0  0.999015  0
H  H71  1  0.42591392  0.41024554  0.69522298  1  0.042356  0  0.090861  0.079914  0  0.999018  0
H  H72  1  0.04849178  0.52597172  0.82675265  1  0.094406  0  0.095868  0.09569  0  1.02041  0
H  H73  1  0.45150341  0.47403018  0.32675471  1  0.094025  0  0.09584  0.095648  0  1.020409  0
H  H74  1  0.95150314  0.47403050  0.17325131  1  0.094103  0  0.095852  0.095664  0  1.020421  0
H  H75  1  0.54848980  0.52596560  0.67324871  1  0.094129  0  0.095861  0.095683  0  1.020393  0
H  H76  1  0.80555060  0.64041032  0.07109183  1  0.638535  0  0.332164  0.366317  0  0.895943  0
H  H77  1  0.69444899  0.35958442  0.57109456  1  0.6386  0  0.332165  0.366283  0  0.896081  0
H  H78  1  0.19444566  0.35959350  0.92890500  1  0.638444  0  0.332176  0.366282  0  0.895881  0
H  H79  1  0.30554953  0.64041052  0.42891050  1  0.638546  0  0.332157  0.366257  0  0.896088  0
H  H80  1  0.71230794  0.63769047  0.75939055  1  0.62953  0  0.299697  0.330315  0  1.023455  0
H  H81  1  0.78768272  0.36230285  0.25939437  1  0.629571  0  0.299719  0.330345  0  1.023429  0
H  H82  1  0.28768279  0.36230290  0.24060902  1  0.629575  0  0.299674  0.330293  0  1.023483  0
H  H83  1  0.21231326  0.63769291  0.74060959  1  0.629568  0  0.299657  0.330303  0  1.02346  0
H  H84  1  0.85081258  0.56200747  0.77386067  1  0.648885  0  0.300597  0.341491  0  1.007133  0
H  H85  1  0.64918305  0.43799396  0.27386392  1  0.648932  0  0.30061  0.341532  0  1.007042  0
H  H86  1  0.14918552  0.43798586  0.22613835  1  0.64889  0  0.30056  0.341498  0  1.007185  0
H  H87  1  0.35081144  0.56200664  0.72613785  1  0.648912  0  0.300623  0.341531  0  1.007073  0
C  C88  1  0.64299091  0.10349629  0.14886075  1  0.461784  0  0.051257  0.076489  0  3.901567  0
C  C89  1  0.85701466  0.89650608  0.64884886  1  0.462319  0  0.051326  0.076593  0  3.901609  0
C  C90  1  0.35702965  0.89651227  0.85114211  1  0.461641  0  0.051435  0.076791  0  3.901137  0
C  C91  1  0.14297728  0.10349535  0.35114139  1  0.461787  0  0.051432  0.076766  0  3.901131  0
C  C92  1  0.63415403  0.99643577  0.16868715  1  -0.054358  0  -0.083975  -0.13176  0  3.99796  0
C  C93  1  0.86585645  0.00356749  0.66867841  1  -0.054578  0  -0.084047  -0.131868  0  3.998097  0
C  C94  1  0.36586540  0.00357199  0.83132119  1  -0.05397  0  -0.084074  -0.132026  0  3.998144  0
C  C95  1  0.13414505  0.99642825  0.33131842  1  -0.054294  0  -0.084013  -0.131924  0  3.997997  0
C  C96  1  0.64647798  0.92180670  0.11462684  1  -0.040319  0  -0.067319  -0.028753  0  3.960432  0
C  C97  1  0.85352637  0.07819147  0.61461824  1  -0.041069  0  -0.067347  -0.02866  0  3.960741  0
C  C98  1  0.35352877  0.07819143  0.88537437  1  -0.040911  0  -0.067281  -0.028488  0  3.960273  0
C  C99  1  0.14647521  0.92181153  0.38537859  1  -0.04056  0  -0.067312  -0.02864  0  3.960838  0
C  C100  1  0.66338241  0.95635880  0.04224234  1  0.023646  0  -0.06852  -0.129729  0  3.902312  0
C  C101  1  0.83661109  0.04364470  0.54223364  1  0.023926  0  -0.068567  -0.12981  0  3.902427  0
C  C102  1  0.33662426  0.04364256  0.95776546  1  0.023631  0  -0.068573  -0.12989  0  3.901964  0
C  C103  1  0.16337624  0.95635674  0.45776209  1  0.023629  0  -0.068537  -0.129745  0  3.902337  0
C  C104  1  0.66838721  0.06443704  0.02563389  1  0.442105  0  0.121411  0.153583  0  3.945526  0
C  C105  1  0.83160713  0.93555588  0.52562863  1  0.441644  0  0.121322  0.153471  0  3.945368  0
C  C106  1  0.33162740  0.93555945  0.97436732  1  0.44181  0  0.121424  0.153587  0  3.945636  0
C  C107  1  0.16837460  0.06443832  0.47436820  1  0.441559  0  0.121494  0.153683  0  3.945385  0
C  C108  1  0.67818347  0.10862191  0.95129966  1  0.436873  0  0.124451  0.158071  0  3.944733  0
C  C109  1  0.82181422  0.89137799  0.45129362  1  0.437007  0  0.124494  0.157993  0  3.944977  0
C  C110  1  0.32182434  0.89138026  0.04870539  1  0.437012  0  0.124469  0.158054  0  3.945011  0
C  C111  1  0.17817701  0.10862425  0.54870321  1  0.43772  0  0.124453  0.157983  0  3.944743  0
C  C112  1  0.67758210  0.04727453  0.88756410  1  0.075398  0  -0.071881  -0.13773  0  3.927975  0
C  C113  1  0.82241500  0.95271698  0.38756092  1  0.075669  0  -0.072004  -0.137777  0  3.928336  0
C  C114  1  0.32243109  0.95272357  0.11243493  1  0.075499  0  -0.071825  -0.137637  0  3.928024  0
C  C115  1  0.17757283  0.04727236  0.61243755  1  0.075264  0  -0.071793  -0.137688  0  3.927822  0
C  C116  1  0.68104012  0.09696614  0.81941225  1  -0.102603  0  -0.071599  -0.038958  0  3.985004  0
C  C117  1  0.81896607  0.90303628  0.31940623  1  -0.102921  0  -0.071639  -0.039055  0  3.985029  0
C  C118  1  0.31897060  0.90304004  0.18059280  1  -0.103085  0  -0.071729  -0.039221  0  3.984968  0
C  C119  1  0.18104103  0.09696669  0.68059060  1  -0.102832  0  -0.071625  -0.039074  0  3.985023  0
C  C120  1  0.68602985  0.20752271  0.81691238  1  0.037047  0  -0.082862  -0.133556  0  3.998554  0
C  C121  1  0.81397271  0.79246600  0.31690667  1  0.037288  0  -0.082914  -0.133597  0  3.998063  0
C  C122  1  0.31397066  0.79247625  0.18309323  1  0.03721  0  -0.082915  -0.13351  0  3.998103  0
C  C123  1  0.18604261  0.20752968  0.68309125  1  0.036915  0  -0.082933  -0.133616  0  3.998262  0
C  C124  1  0.68671815  0.26434059  0.88211568  1  0.399842  0  0.055053  0.076894  0  3.910608  0
C  C125  1  0.81328303  0.73565249  0.38211480  1  0.399785  0  0.055074  0.076896  0  3.910721  0
C  C126  1  0.31327287  0.73565035  0.11788499  1  0.399986  0  0.05502  0.076808  0  3.910269  0
C  C127  1  0.18672392  0.26434645  0.61788148  1  0.40016  0  0.055124  0.077021  0  3.910467  0
C  C128  1  0.71882765  0.42506071  0.00640827  1  0.8205  0  0.031408  0.112846  0  3.916393  0
C  C129  1  0.78117482  0.57493531  0.50640880  1  0.820669  0  0.031374  0.112832  0  3.916578  0
C  C130  1  0.28118030  0.57494549  0.99359239  1  0.820465  0  0.031402  0.112863  0  3.916347  0
C  C131  1  0.21881825  0.42505643  0.49359022  1  0.820608  0  0.031423  0.11285  0  3.916082  0
C  C132  1  0.69341951  0.35360243  0.13553836  1  0.808541  0  0.024992  0.07097  0  3.874051  0
C  C133  1  0.80658125  0.64640635  0.63553741  1  0.808137  0  0.024965  0.070887  0  3.873989  0
C  C134  1  0.30658533  0.64640942  0.86446451  1  0.807909  0  0.024997  0.070919  0  3.873978  0
C  C135  1  0.19341352  0.35359184  0.36446051  1  0.808313  0  0.025026  0.070949  0  3.873814  0
C  C136  1  0.51304950  0.28305158  0.04424628  1  0.755319  0  0.033866  0.095761  0  3.810247  0
C  C137  1  0.98695691  0.71695188  0.54424516  1  0.755462  0  0.033868  0.095717  0  3.810407  0
C  C138  1  0.48696079  0.71695299  0.95575494  1  0.7555  0  0.033918  0.095739  0  3.810576  0
C  C139  1  0.01304055  0.28304953  0.45575222  1  0.755318  0  0.033963  0.095821  0  3.81009  0
C  C140  1  0.86300306  0.30000967  0.05218692  1  0.776164  0  0.03273  0.096426  0  3.813854  0
C  C141  1  0.63699070  0.69998419  0.55218587  1  0.776405  0  0.032757  0.096339  0  3.814419  0
C  C142  1  0.13699738  0.69999252  0.94780717  1  0.776437  0  0.032797  0.096546  0  3.814122  0
C  C143  1  0.36299033  0.30001082  0.44780931  1  0.775883  0  0.032699  0.096581  0  3.813605  0
C  C144  1  0.92650794  0.78181330  0.09097789  1  0.317956  0  -0.144674  -0.110393  0  3.916914  0
C  C145  1  0.57348842  0.21818640  0.59098292  1  0.319707  0  -0.144695  -0.110355  0  3.9167  0
C  C146  1  0.07349548  0.21818969  0.90901675  1  0.31799  0  -0.144631  -0.110288  0  3.916785  0
C  C147  1  0.42650125  0.78181342  0.40901994  1  0.317947  0  -0.144736  -0.110395  0  3.916934  0
C  C148  1  0.60891123  0.74645242  0.77342246  1  0.379095  0  -0.151205  -0.113996  0  3.910235  0
C  C149  1  0.89108701  0.25354497  0.27342620  1  0.379067  0  -0.151187  -0.114098  0  3.910335  0
C  C150  1  0.39108885  0.25354494  0.22657437  1  0.379106  0  -0.151216  -0.114145  0  3.910299  0
C  C151  1  0.10891280  0.74645481  0.72657557  1  0.379178  0  -0.15123  -0.114135  0  3.910282  0
C  C152  1  0.95140370  0.48280447  0.83926245  1  0.344602  0  -0.143273  -0.100679  0  3.915152  0
C  C153  1  0.54859154  0.51719810  0.33926573  1  0.345001  0  -0.143273  -0.100699  0  3.915238  0
C  C154  1  0.04859150  0.51719533  0.16073986  1  0.34499  0  -0.143298  -0.100684  0  3.914954  0
C  C155  1  0.45140075  0.48279768  0.66073877  1  0.345255  0  -0.143316  -0.100719  0  3.915072  0
N  N156  1  0.66097878  0.13775813  0.07907442  1  -1.148797  0  -0.318296  -0.142985  0  3.592589  0
N  N157  1  0.83902511  0.86224228  0.57907231  1  -1.1488  0  -0.318305  -0.142885  0  3.592784  0
N  N158  1  0.33903038  0.86224564  0.92092735  1  -1.148854  0  -0.318444  -0.143264  0  3.59292  0
N  N159  1  0.16096881  0.13775268  0.42092562  1  -1.148819  0  -0.318462  -0.143353  0  3.592785  0
N  N160  1  0.68309560  0.21654072  0.94827872  1  -1.149902  0  -0.317223  -0.146384  0  3.598061  0
N  N161  1  0.81690009  0.78345514  0.44827575  1  -1.149849  0  -0.317202  -0.146293  0  3.598082  0
N  N162  1  0.31690895  0.78346307  0.05172085  1  -1.149853  0  -0.317173  -0.146221  0  3.597783  0
N  N163  1  0.18309241  0.21654144  0.55172382  1  -1.149977  0  -0.317263  -0.146259  0  3.598029  0
N  N164  1  0.74198309  0.51341448  0.98201522  1  -1.472108  0  -0.52375  -0.584957  0  3.249657  0
N  N165  1  0.75802027  0.48658555  0.48201706  1  -1.472315  0  -0.523783  -0.584962  0  3.249906  0
N  N166  1  0.25801820  0.48659094  0.01798654  1  -1.472148  0  -0.523724  -0.584938  0  3.249521  0
N  N167  1  0.24198109  0.51341665  0.51798471  1  -1.472205  0  -0.523779  -0.584975  0  3.249329  0
N  N168  1  0.69970498  0.39931534  0.19249300  1  -1.446936  0  -0.38987  -0.453648  0  3.163719  0
N  N169  1  0.80029492  0.60069292  0.69249360  1  -1.44679  0  -0.389909  -0.453606  0  3.163583  0
N  N170  1  0.30030184  0.60069005  0.80750767  1  -1.446556  0  -0.389881  -0.453579  0  3.163407  0
N  N171  1  0.19969928  0.39931011  0.30750487  1  -1.446685  0  -0.389883  -0.453583  0  3.163417  0
N  N172  1  0.40332554  0.27815023  0.04807682  1  -1.402493  0  -0.499047  -0.547895  0  3.248769  0
N  N173  1  0.09667382  0.72185025  0.54807850  1  -1.402708  0  -0.499072  -0.547902  0  3.248991  0
N  N174  1  0.59667823  0.72185760  0.95192221  1  -1.402693  0  -0.499081  -0.547865  0  3.249135  0
N  N175  1  0.90331528  0.27814393  0.45192655  1  -1.402591  0  -0.499127  -0.547958  0  3.248672  0
N  N176  1  0.97230271  0.30523881  0.05857738  1  -1.414778  0  -0.498155  -0.547896  0  3.258426  0
N  N177  1  0.52770320  0.69475907  0.55858003  1  -1.414976  0  -0.498145  -0.547797  0  3.259033  0
N  N178  1  0.02770886  0.69477060  0.94141122  1  -1.414915  0  -0.498115  -0.547902  0  3.258786  0
N  N179  1  0.47229745  0.30523344  0.44141900  1  -1.414379  0  -0.498137  -0.548073  0  3.258244  0
N  N180  1  0.92266783  0.90412079  0.86292556  1  0.803986  0  0.087748  0.711909  0  4.4395  0
N  N181  1  0.57732206  0.09587869  0.36292803  1  0.803615  0  0.087817  0.711753  0  4.439574  0
N  N182  1  0.07732488  0.09587660  0.13707237  1  0.804001  0  0.087806  0.711764  0  4.439698  0
N  N183  1  0.42267122  0.90412434  0.63707373  1  0.804059  0  0.087901  0.712152  0  4.439424  0
O  O184  1  0.82189267  0.71432503  0.05274183  1  -1.169999  0  -0.446366  -0.508819  0  2.426114  0
O  O185  1  0.67810655  0.28567205  0.55274658  1  -1.169887  0  -0.446347  -0.50876  0  2.426063  0
O  O186  1  0.17811273  0.28568199  0.94725336  1  -1.169851  0  -0.446403  -0.508822  0  2.425874  0
O  O187  1  0.32188687  0.71432453  0.44725738  1  -1.170076  0  -0.446378  -0.508796  0  2.426178  0
O  O188  1  0.66904998  0.66481556  0.80199515  1  -1.173581  0  -0.477783  -0.536544  0  2.452151  0
O  O189  1  0.83094408  0.33517956  0.30199843  1  -1.173665  0  -0.477743  -0.536466  0  2.452076  0
O  O190  1  0.33094663  0.33518262  0.19800497  1  -1.173587  0  -0.477697  -0.536434  0  2.452135  0
O  O191  1  0.16905417  0.66481780  0.69800499  1  -1.173604  0  -0.47771  -0.536491  0  2.452096  0
O  O192  1  0.86292050  0.55036229  0.82785893  1  -1.198073  0  -0.472507  -0.546794  0  2.482347  0
O  O193  1  0.63707333  0.44963862  0.32786328  1  -1.198212  0  -0.472503  -0.546782  0  2.482279  0
O  O194  1  0.13706796  0.44962947  0.17214009  1  -1.198201  0  -0.472493  -0.54681  0  2.48213  0
O  O195  1  0.36292052  0.55035957  0.67213958  1  -1.198249  0  -0.472524  -0.546821  0  2.482334  0
O  O196  1  0.91169453  0.82227414  0.82015358  1  -0.572521  0  -0.232652  -0.514124  0  2.055388  0
O  O197  1  0.58829218  0.17772433  0.32015678  1  -0.572427  0  -0.232616  -0.513999  0  2.055279  0
O  O198  1  0.08829741  0.17772728  0.17984051  1  -0.572618  0  -0.232652  -0.51409  0  2.055421  0
O  O199  1  0.41169288  0.82227551  0.67984389  1  -0.572609  0  -0.232724  -0.514278  0  2.055373  0
O  O200  1  0.87438957  0.88571408  0.92755559  1  -0.581518  0  -0.241959  -0.517146  0  1.9985  0
O  O201  1  0.62560290  0.11428733  0.42755871  1  -0.581563  0  -0.242012  -0.517147  0  1.99862  0
O  O202  1  0.12561406  0.11428972  0.07244343  1  -0.581439  0  -0.242032  -0.517152  0  1.998588  0
O  O203  1  0.37438570  0.88570846  0.57244361  1  -0.58144  0  -0.24207  -0.517309  0  1.998507  0
O  O204  1  0.97553987  0.99567256  0.84279851  1  -0.473899  0  -0.144142  -0.374192  0  1.959248  0
O  O205  1  0.52445665  0.00432438  0.34280073  1  -0.473587  0  -0.144178  -0.374134  0  1.959264  0
O  O206  1  0.02445532  0.00432724  0.15719941  1  -0.473922  0  -0.144125  -0.374092  0  1.959331  0
O  O207  1  0.47554181  0.99567379  0.65720049  1  -0.473966  0  -0.144104  -0.374197  0  1.959386  0
