# generated using pymatgen
data_CuH12C15N2O5
_symmetry_space_group_name_H-M   'P 1'
_cell_length_a   7.44431797
_cell_length_b   9.28253987
_cell_length_c   24.83033759
_cell_angle_alpha   100.01238928
_cell_angle_beta   90.00014492
_cell_angle_gamma   90.00061575
_symmetry_Int_Tables_number   1
_chemical_formula_structural   CuH12C15N2O5
_chemical_formula_sum   'Cu4 H48 C60 N8 O20'
_cell_volume   1689.69863211
_cell_formula_units_Z   4
loop_
 _symmetry_equiv_pos_site_id
 _symmetry_equiv_pos_as_xyz
  1  'x, y, z'
loop_
 _atom_site_type_symbol
 _atom_site_label
 _atom_site_symmetry_multiplicity
 _atom_site_fract_x
 _atom_site_fract_y
 _atom_site_fract_z
 _atom_site_occupancy
 _atom_site_pbe_bader_charge
 _atom_site_pbe_bader_spin_density
 _atom_site_pbe_cm5_charge
 _atom_site_pbe_ddec_charge
 _atom_site_pbe_ddec_spin_density
 _atom_site_pbe_ddec_sum_bond_order
 _atom_site_pbe_magmom
Cu  Cu0  1  0.49974721  0.74777762  0.71921834  1  1.063275  0.535546  0.742516  0.752772  0.729224  2.33263  0.535
Cu  Cu1  1  0.99974971  0.25222465  0.78077859  1  1.063269  -0.535556  0.742443  0.752669  -0.729237  2.332592  -0.535
Cu  Cu2  1  0.50025407  0.25222912  0.28077975  1  1.06352  -0.535554  0.742478  0.752667  -0.729228  2.332765  -0.535
Cu  Cu3  1  0.00025695  0.74777448  0.21921577  1  1.063363  0.535552  0.742502  0.752652  0.729236  2.332664  0.535
H  H4  1  0.50912373  0.84834005  0.60829493  1  0.14679  0.00223  0.12855  0.108727  0.001118  0.983184  0.002
H  H5  1  0.00912951  0.15165648  0.89170122  1  0.146747  -0.002229  0.128587  0.1088  -0.001117  0.983127  -0.002
H  H6  1  0.49087353  0.15165474  0.39169752  1  0.146698  -0.002229  0.128615  0.108837  -0.001117  0.98307  -0.002
H  H7  1  0.99085968  0.84834035  0.10829942  1  0.146852  0.00223  0.128574  0.108781  0.001117  0.9832  0.002
H  H8  1  0.61457080  0.73109056  0.51414544  1  0.084156  0.001158  0.111323  0.110875  0.000631  0.986934  0.001
H  H9  1  0.11455333  0.26890686  0.98585650  1  0.084107  -0.001158  0.111321  0.110874  -0.000631  0.986868  -0.001
H  H10  1  0.38542914  0.26890196  0.48585089  1  0.084078  -0.001158  0.111335  0.11097  -0.000631  0.986942  -0.001
H  H11  1  0.88541437  0.73109430  0.01414685  1  0.084179  0.001158  0.111316  0.110884  0.000631  0.986958  0.001
H  H12  1  0.74437816  0.47724897  0.50119961  1  0.142325  -8e-06  0.106096  0.101278  -1.6e-05  1.055737  0.0
H  H13  1  0.24436412  0.52275293  0.99880434  1  0.142506  8e-06  0.106034  0.101196  1.6e-05  1.055719  0.0
H  H14  1  0.25561641  0.52274355  0.49879671  1  0.142435  8e-06  0.106107  0.101344  1.6e-05  1.055607  0.0
H  H15  1  0.75561299  0.47724384  0.00119952  1  0.142328  -8e-06  0.106068  0.101307  -1.6e-05  1.055656  0.0
H  H16  1  0.75816801  0.34864644  0.58279403  1  0.083835  0.001469  0.116179  0.125663  0.000789  0.978338  0.001
H  H17  1  0.25815503  0.65135449  0.91721027  1  0.083981  -0.001469  0.116186  0.125642  -0.000789  0.978514  -0.001
H  H18  1  0.24183193  0.65134504  0.41719981  1  0.083817  -0.001469  0.116187  0.125788  -0.000789  0.978265  -0.001
H  H19  1  0.74184223  0.34864111  0.08279754  1  0.083695  0.001469  0.116191  0.125666  0.000789  0.978374  0.001
H  H20  1  0.70230843  0.36002524  0.68595273  1  0.181474  0.003562  0.126284  0.119984  0.001882  1.014626  0.002
H  H21  1  0.20230794  0.63997628  0.81405035  1  0.181449  -0.003562  0.126279  0.120044  -0.001882  1.01471  -0.002
H  H22  1  0.29771166  0.63997594  0.31404941  1  0.181377  -0.003562  0.126245  0.119968  -0.001882  1.014647  -0.002
H  H23  1  0.79770544  0.36001386  0.18595628  1  0.181412  0.003562  0.126259  0.119946  0.001882  1.014655  0.002
H  H24  1  0.69601651  0.70629000  0.82580584  1  0.132101  5.1e-05  0.110821  0.13149  4.2e-05  0.999475  0.0
H  H25  1  0.19599696  0.29371039  0.67419596  1  0.132081  -5.1e-05  0.11086  0.131569  -4.2e-05  0.999345  0.0
H  H26  1  0.30399821  0.29371120  0.17419510  1  0.132033  -5.1e-05  0.110854  0.131556  -4.2e-05  0.999402  0.0
H  H27  1  0.80399627  0.70627985  0.32580545  1  0.132136  5.1e-05  0.110875  0.131588  4.2e-05  0.999402  0.0
H  H28  1  0.71847361  0.60979099  0.91410762  1  0.075731  3.7e-05  0.102434  0.115532  -1e-06  0.998259  0.0
H  H29  1  0.21846674  0.39021622  0.58589223  1  0.075402  -3.7e-05  0.102483  0.11557  1e-06  0.998254  0.0
H  H30  1  0.28152902  0.39020589  0.08589020  1  0.075784  -3.7e-05  0.102421  0.115497  1e-06  0.998208  0.0
H  H31  1  0.78153992  0.60978059  0.41410921  1  0.075425  3.7e-05  0.102489  0.115501  -1e-06  0.998355  0.0
H  H32  1  0.49341305  0.19873730  0.83430301  1  0.107247  0.000377  0.108114  0.128894  0.000209  1.0353  0.0
H  H33  1  0.99342724  0.80127032  0.66569790  1  0.107304  -0.000377  0.108071  0.128871  -0.000209  1.035207  0.0
H  H34  1  0.50658823  0.80127058  0.16569274  1  0.107231  -0.000377  0.108111  0.128913  -0.000209  1.035172  0.0
H  H35  1  0.00660226  0.19872424  0.33430702  1  0.10723  0.000377  0.108161  0.128956  0.000209  1.03515  0.0
H  H36  1  0.48391883  0.29051723  0.74749574  1  0.121172  -0.000105  0.109491  0.126893  -0.000125  1.008113  0.0
H  H37  1  0.98392442  0.70950009  0.75250824  1  0.121001  0.000105  0.109481  0.126885  0.000125  1.008119  0.0
H  H38  1  0.51609455  0.70949171  0.25250129  1  0.121119  0.000105  0.109491  0.126881  0.000125  1.00819  0.0
H  H39  1  0.01609030  0.29050647  0.24749910  1  0.121121  -0.000105  0.109508  0.126954  -0.000125  1.008179  0.0
H  H40  1  0.44872949  0.17548049  0.92069380  1  0.09873  7.4e-05  0.098981  0.109709  4.2e-05  1.02569  0.0
H  H41  1  0.94875003  0.82452120  0.57930828  1  0.098867  -7.4e-05  0.098978  0.109746  -4.2e-05  1.025644  0.0
H  H42  1  0.55123553  0.82453600  0.07930938  1  0.098892  -7.4e-05  0.099019  0.109754  -4.2e-05  1.025671  0.0
H  H43  1  0.05127006  0.17548106  0.42069474  1  0.098758  7.4e-05  0.099003  0.109715  4.2e-05  1.025641  0.0
H  H44  1  0.62160523  0.18574689  0.97183599  1  0.046387  2.4e-05  0.103915  0.109075  1.3e-05  0.978435  0.0
H  H45  1  0.12161691  0.81425278  0.52816650  1  0.046479  -2.4e-05  0.103937  0.109112  -1.3e-05  0.978493  0.0
H  H46  1  0.37835979  0.81426519  0.02816850  1  0.046715  -2.3e-05  0.103946  0.109184  -1.3e-05  0.978473  0.0
H  H47  1  0.87840587  0.18574285  0.47183930  1  0.046256  2.3e-05  0.10388  0.108994  1.3e-05  0.978405  0.0
H  H48  1  0.67482369  0.12837534  0.90051987  1  0.085036  9.1e-05  0.104677  0.115538  -3e-06  0.993304  0.0
H  H49  1  0.17484742  0.87161282  0.59948068  1  0.085069  -9.1e-05  0.104695  0.115556  3e-06  0.993386  0.0
H  H50  1  0.32514133  0.87162146  0.09948238  1  0.084957  -9.1e-05  0.104701  0.115544  3e-06  0.993389  0.0
H  H51  1  0.82517402  0.12837409  0.40052292  1  0.084933  9.1e-05  0.1047  0.11548  -3e-06  0.993293  0.0
C  C52  1  0.56180207  0.73725333  0.59976442  1  0.529816  -0.001956  0.069031  0.130069  -0.000596  3.906192  -0.002
C  C53  1  0.06180669  0.26273924  0.90023553  1  0.529759  0.001956  0.069005  0.130061  0.000597  3.906304  0.002
C  C54  1  0.43819385  0.26273698  0.40023296  1  0.529655  0.001954  0.069009  0.130083  0.000596  3.906104  0.002
C  C55  1  0.93819997  0.73724989  0.09976621  1  0.529781  -0.001957  0.069023  0.130012  -0.000597  3.906037  -0.002
C  C56  1  0.62293262  0.67131504  0.54814524  1  -0.042613  0.004821  -0.078692  -0.125944  0.003413  3.951653  0.004
C  C57  1  0.12292508  0.32868688  0.95185499  1  -0.042251  -0.004821  -0.078724  -0.126027  -0.003413  3.951672  -0.004
C  C58  1  0.37705523  0.32867423  0.45184966  1  -0.042461  -0.004821  -0.078765  -0.126232  -0.003413  3.95186  -0.004
C  C59  1  0.87707352  0.67130992  0.04814686  1  -0.042169  0.004822  -0.078649  -0.125874  0.003413  3.951647  0.004
C  C60  1  0.69400601  0.53010303  0.54097234  1  -0.018483  -0.003029  -0.068721  -0.030527  -0.002104  3.961805  -0.002
C  C61  1  0.19399903  0.46990393  0.95902829  1  -0.018949  0.003029  -0.068693  -0.030456  0.002104  3.961661  0.002
C  C62  1  0.30597916  0.46988842  0.45902311  1  -0.018328  0.003025  -0.068719  -0.030528  0.002101  3.961774  0.002
C  C63  1  0.80600360  0.53009396  0.04097403  1  -0.018595  -0.00303  -0.068752  -0.030704  -0.002105  3.961852  -0.002
C  C64  1  0.70128240  0.45803260  0.58579105  1  -0.015299  0.001627  -0.070723  -0.146276  0.001415  3.914011  0.001
C  C65  1  0.20128677  0.54197548  0.91421207  1  -0.015634  -0.001628  -0.070717  -0.146194  -0.001416  3.914291  -0.001
C  C66  1  0.29870545  0.54196321  0.41420549  1  -0.015323  -0.001627  -0.070655  -0.146297  -0.001415  3.914012  -0.001
C  C67  1  0.79873064  0.45801799  0.08579237  1  -0.015298  0.001627  -0.070738  -0.146169  0.001415  3.914053  0.001
C  C68  1  0.63719258  0.53012079  0.63618686  1  0.393679  0.00198  0.116335  0.192019  0.00192  4.03875  0.002
C  C69  1  0.13720904  0.46987898  0.86381767  1  0.393757  -0.001979  0.11648  0.192287  -0.00192  4.038714  -0.002
C  C70  1  0.36280737  0.46987387  0.36381243  1  0.393703  -0.001984  0.11633  0.191995  -0.001922  4.038831  -0.002
C  C71  1  0.86281642  0.53010902  0.13618600  1  0.393531  0.001982  0.116248  0.191844  0.001921  4.038947  0.002
C  C72  1  0.64571162  0.46930723  0.68611747  1  0.609352  -0.004118  0.078591  0.04286  -0.002364  3.845832  -0.003
C  C73  1  0.14571910  0.53069163  0.81388217  1  0.609403  0.004112  0.078503  0.042364  0.00236  3.846082  0.003
C  C74  1  0.35429907  0.53069185  0.31387970  1  0.609538  0.004107  0.078638  0.042814  0.002356  3.845898  0.003
C  C75  1  0.85430234  0.46929973  0.18611770  1  0.609355  -0.004115  0.07862  0.042891  -0.002363  3.845814  -0.003
C  C76  1  0.59821288  0.50154538  0.78079144  1  0.322357  0.001152  0.077339  0.178054  0.001575  4.052659  0.0
C  C77  1  0.09820308  0.49845726  0.71921606  1  0.323179  -0.001148  0.077331  0.177953  -0.001573  4.052932  0.0
C  C78  1  0.40178840  0.49845581  0.21920990  1  0.322592  -0.00115  0.077477  0.178159  -0.001573  4.053046  0.0
C  C79  1  0.90179954  0.50153723  0.28079207  1  0.322761  0.001153  0.077442  0.178185  0.001575  4.052845  0.0
C  C80  1  0.65675900  0.59458465  0.82842168  1  -0.01637  0.004906  -0.083551  -0.125582  0.003378  3.954702  0.003
C  C81  1  0.15675970  0.40542629  0.67158161  1  -0.015885  -0.004911  -0.083427  -0.125516  -0.003381  3.954518  -0.003
C  C82  1  0.34324632  0.40542311  0.17158011  1  -0.015915  -0.004908  -0.083572  -0.125654  -0.003379  3.954849  -0.003
C  C83  1  0.84324964  0.59457267  0.32842200  1  -0.016504  0.004908  -0.08357  -0.12568  0.003379  3.954778  0.003
C  C84  1  0.66802246  0.54098823  0.87711085  1  -0.015249  -0.001201  -0.107749  -0.204255  -0.00078  4.019776  -0.001
C  C85  1  0.16803692  0.45901847  0.62289095  1  -0.01598  0.001202  -0.107871  -0.20436  0.000781  4.019742  0.001
C  C86  1  0.33198151  0.45901300  0.12288888  1  -0.015714  0.001201  -0.107772  -0.204188  0.000781  4.019767  0.001
C  C87  1  0.83198317  0.54097724  0.37711083  1  -0.015376  -0.001201  -0.107884  -0.20427  -0.000781  4.020197  -0.001
C  C88  1  0.61469628  0.39659431  0.87921141  1  0.39668  0.004304  0.083425  0.248567  0.002985  4.065651  0.003
C  C89  1  0.11470591  0.60340969  0.62079016  1  0.396789  -0.004308  0.083328  0.248613  -0.002987  4.065874  -0.003
C  C90  1  0.38529963  0.60340369  0.12078528  1  0.396591  -0.004303  0.083461  0.248568  -0.002984  4.065783  -0.003
C  C91  1  0.88530209  0.39658592  0.37921644  1  0.396593  0.004305  0.083469  0.248577  0.002986  4.065988  0.003
C  C92  1  0.54663958  0.30685064  0.83250355  1  0.042041  -0.000231  -0.106527  -0.2005  6.8e-05  3.994627  0.0
C  C93  1  0.04664269  0.69314400  0.66749573  1  0.042015  0.000233  -0.106532  -0.200597  -6.7e-05  3.994495  0.0
C  C94  1  0.45336439  0.69314735  0.16749395  1  0.042027  0.000232  -0.106593  -0.200591  -6.7e-05  3.994571  0.0
C  C95  1  0.95336666  0.30684839  0.33250784  1  0.042041  -0.000232  -0.106595  -0.200634  6.7e-05  3.99463  0.0
C  C96  1  0.54118994  0.35910614  0.78342891  1  -0.039272  0.008038  -0.085517  -0.136199  0.005736  3.9783  0.005
C  C97  1  0.04118334  0.64089273  0.71657508  1  -0.039099  -0.008044  -0.085499  -0.13617  -0.005741  3.978064  -0.005
C  C98  1  0.45881403  0.64089399  0.21657075  1  -0.039069  -0.008039  -0.085523  -0.136221  -0.005737  3.978357  -0.005
C  C99  1  0.95882063  0.35909961  0.28343090  1  -0.03871  0.008039  -0.085655  -0.136419  0.005739  3.97856  0.005
C  C100  1  0.59071315  0.20086197  0.93003741  1  0.332356  3.6e-05  -0.138871  -0.18306  3.8e-05  3.884452  0.0
C  C101  1  0.09072630  0.79914396  0.56996588  1  0.331903  -3.6e-05  -0.138888  -0.183041  -3.8e-05  3.884197  0.0
C  C102  1  0.40925724  0.79915345  0.06996449  1  0.331796  -3.6e-05  -0.138926  -0.183163  -3.8e-05  3.884394  0.0
C  C103  1  0.90928708  0.20085933  0.43004043  1  0.332482  3.6e-05  -0.138818  -0.182895  3.8e-05  3.884328  0.0
C  C104  1  0.31331030  0.00345175  0.74382446  1  1.568047  -0.004164  0.196885  0.472059  -0.001962  4.181249  -0.004
C  C105  1  0.81332909  0.99654225  0.75616854  1  1.567868  0.004165  0.196923  0.472135  0.001962  4.181155  0.004
C  C106  1  0.68666546  0.99655510  0.25616760  1  1.568445  0.004164  0.196959  0.472281  0.001962  4.180795  0.004
C  C107  1  0.18667757  0.00345804  0.24382267  1  1.567797  -0.004163  0.196819  0.472098  -0.00196  4.181223  -0.004
C  C108  1  0.32111050  0.93760018  0.79759952  1  1.591759  -0.003198  0.18928  0.459218  -0.001467  4.231951  -0.003
C  C109  1  0.82111528  0.06240592  0.70239470  1  1.590718  0.003199  0.189238  0.459124  0.001466  4.231729  0.003
C  C110  1  0.67888138  0.06242519  0.20239781  1  1.590328  0.003202  0.189295  0.459092  0.001467  4.231348  0.003
C  C111  1  0.17886720  0.93760310  0.29759831  1  1.591521  -0.003199  0.189352  0.459324  -0.001467  4.231846  -0.003
N  N112  1  0.59563925  0.55335515  0.73097583  1  -1.20879  0.076478  -0.330581  -0.23553  0.053737  3.599491  0.066
N  N113  1  0.09564528  0.44665199  0.76902392  1  -1.209171  -0.076471  -0.330586  -0.235129  -0.053732  3.599802  -0.066
N  N114  1  0.40435800  0.44665602  0.26901933  1  -1.209218  -0.076482  -0.330663  -0.23547  -0.053741  3.599806  -0.066
N  N115  1  0.90436809  0.55334259  0.23097979  1  -1.208949  0.076495  -0.330564  -0.235435  0.05375  3.599416  0.066
N  N116  1  0.56813681  0.66736155  0.64236956  1  -1.193283  0.071791  -0.343356  -0.269727  0.050385  3.60278  0.062
N  N117  1  0.06815545  0.33264092  0.85763147  1  -1.193294  -0.071787  -0.343311  -0.269814  -0.050382  3.603018  -0.062
N  N118  1  0.43186582  0.33263968  0.35762977  1  -1.193447  -0.071775  -0.343384  -0.269751  -0.050375  3.602924  -0.062
N  N119  1  0.93186867  0.66735478  0.14237070  1  -1.193398  0.071778  -0.343316  -0.26962  0.050376  3.602728  0.062
O  O120  1  0.38057014  0.92176720  0.70127790  1  -1.103827  0.123271  -0.324585  -0.505863  0.083496  2.368076  0.112
O  O121  1  0.88059467  0.07822082  0.79871757  1  -1.103385  -0.123283  -0.324596  -0.50579  -0.083505  2.367842  -0.112
O  O122  1  0.61940025  0.07822425  0.29871754  1  -1.103593  -0.123292  -0.324699  -0.505846  -0.083513  2.367754  -0.112
O  O123  1  0.11942139  0.92176957  0.20127580  1  -1.103842  0.123254  -0.32459  -0.505876  0.083484  2.367959  0.112
O  O124  1  0.37867430  0.80334853  0.79039820  1  -1.108406  0.104961  -0.333055  -0.53114  0.071142  2.389274  0.096
O  O125  1  0.87867955  0.19666676  0.70960234  1  -1.108198  -0.104955  -0.333051  -0.531182  -0.071138  2.389189  -0.096
O  O126  1  0.62132027  0.19668986  0.20960566  1  -1.10737  -0.104956  -0.333069  -0.531119  -0.071136  2.389221  -0.096
O  O127  1  0.12130159  0.80334542  0.29039733  1  -1.10815  0.104973  -0.333078  -0.531104  0.071154  2.38913  0.096
O  O128  1  0.27563367  0.01033513  0.84211133  1  -1.150782  0.03578  -0.312368  -0.496437  0.0242  2.167137  0.031
O  O129  1  0.77563952  0.98966618  0.65788213  1  -1.150152  -0.035761  -0.312408  -0.496427  -0.024187  2.16712  -0.031
O  O130  1  0.72434210  0.98969360  0.15788221  1  -1.150693  -0.035757  -0.31241  -0.49642  -0.024185  2.166698  -0.031
O  O131  1  0.22433624  0.01033842  0.34211299  1  -1.15073  0.03578  -0.3124  -0.496531  0.0242  2.167144  0.031
O  O132  1  0.24726476  0.12661598  0.74292169  1  -1.165955  0.026066  -0.306868  -0.511938  0.01745  2.332311  0.022
O  O133  1  0.74728732  0.87337416  0.75706899  1  -1.165835  -0.026064  -0.306842  -0.512003  -0.017449  2.332454  -0.022
O  O134  1  0.75271503  0.87339204  0.25706642  1  -1.166193  -0.026064  -0.306848  -0.512098  -0.01745  2.332167  -0.022
O  O135  1  0.25271934  0.12662934  0.24292647  1  -1.16573  0.026056  -0.306816  -0.512019  0.017442  2.332393  0.022
O  O136  1  0.63010391  0.35195238  0.92864009  1  -1.076045  0.001737  -0.189094  -0.176291  0.001083  2.596261  0.001
O  O137  1  0.13011643  0.64804514  0.57136428  1  -1.075813  -0.001739  -0.189038  -0.176404  -0.001084  2.596268  -0.001
O  O138  1  0.36988798  0.64805214  0.07135906  1  -1.075942  -0.001736  -0.189074  -0.176264  -0.001082  2.596132  -0.001
O  O139  1  0.86989561  0.35194610  0.42864163  1  -1.076149  0.001737  -0.189071  -0.176137  0.001083  2.596426  0.001
