# generated using pymatgen
data_MoH14C7NO4
_symmetry_space_group_name_H-M   'P 1'
_cell_length_a   8.21051850
_cell_length_b   8.32907317
_cell_length_c   8.62566413
_cell_angle_alpha   106.89709654
_cell_angle_beta   114.56907575
_cell_angle_gamma   92.39236402
_symmetry_Int_Tables_number   1
_chemical_formula_structural   MoH14C7NO4
_chemical_formula_sum   'Mo2 H28 C14 N2 O8'
_cell_volume   504.26785288
_cell_formula_units_Z   2
loop_
 _symmetry_equiv_pos_site_id
 _symmetry_equiv_pos_as_xyz
  1  'x, y, z'
loop_
 _atom_site_type_symbol
 _atom_site_label
 _atom_site_symmetry_multiplicity
 _atom_site_fract_x
 _atom_site_fract_y
 _atom_site_fract_z
 _atom_site_occupancy
 _atom_site_hle17_bader_spin_density
 _atom_site_hle17_ddec_charge
 _atom_site_hle17_ddec_spin_density
 _atom_site_hle17_ddec_sum_bond_order
 _atom_site_hle17_magmom
 _atom_site_hse06_10hf_bader_spin_density
 _atom_site_hse06_10hf_ddec_charge
 _atom_site_hse06_10hf_ddec_spin_density
 _atom_site_hse06_10hf_ddec_sum_bond_order
 _atom_site_hse06_10hf_magmom
 _atom_site_hse06_bader_spin_density
 _atom_site_hse06_ddec_charge
 _atom_site_hse06_ddec_spin_density
 _atom_site_hse06_ddec_sum_bond_order
 _atom_site_hse06_magmom
 _atom_site_pbe_bader_spin_density
 _atom_site_pbe_cm5_charge
 _atom_site_pbe_ddec_charge
 _atom_site_pbe_ddec_spin_density
 _atom_site_pbe_ddec_sum_bond_order
 _atom_site_pbe_magmom
Mo  Mo0  1  0.10790690  0.04222766  0.13419787  1  0  0.925573  0  3.592349  0  0  0.847077  0  4.189493  0  0  0.883853  0  4.172086  0  0  0.784208  0.817385  0  4.209527  0
Mo  Mo1  1  0.89209198  0.95775375  0.86578326  1  0  0.925149  0  3.592505  0  0  0.847047  0  4.189505  0  0  0.883772  0  4.172104  0  0  0.784239  0.817278  0  4.209597  0
H  H2  1  0.71326197  0.32400097  0.33047947  1  0  0.137052  0  0.939828  0  0  0.15841  0  0.993144  0  0  0.1607  0  0.99211  0  0  0.099878  0.156747  0  0.993971  0
H  H3  1  0.28676520  0.67598831  0.66951520  1  0  0.136995  0  0.939812  0  0  0.158328  0  0.99317  0  0  0.16062  0  0.992132  0  0  0.099838  0.156661  0  0.993995  0
H  H4  1  0.53969998  0.13967787  0.17483033  1  0  0.154354  0  0.958227  0  0  0.168058  0  1.025605  0  0  0.172058  0  1.023223  0  0  0.103062  0.165246  0  1.027292  0
H  H5  1  0.46031756  0.86031785  0.82517727  1  0  0.154338  0  0.958221  0  0  0.168035  0  1.025592  0  0  0.172026  0  1.023212  0  0  0.103051  0.165224  0  1.027276  0
H  H6  1  0.56447261  0.31287436  0.10401870  1  0  0.130832  0  0.94866  0  0  0.149133  0  1.012755  0  0  0.151556  0  1.011579  0  0  0.096662  0.147356  0  1.013719  0
H  H7  1  0.43553618  0.68711744  0.89598084  1  0  0.13071  0  0.948691  0  0  0.149007  0  1.012788  0  0  0.151432  0  1.01161  0  0  0.096626  0.147237  0  1.013745  0
H  H8  1  0.93485767  0.52943778  0.18785004  1  0  0.146803  0  0.920784  0  0  0.168737  0  0.969396  0  0  0.171674  0  0.968057  0  0  0.103785  0.166625  0  0.970443  0
H  H9  1  0.06513415  0.47057828  0.81216663  1  0  0.146833  0  0.920699  0  0  0.16874  0  0.969342  0  0  0.171675  0  0.968003  0  0  0.10381  0.166623  0  0.970396  0
H  H10  1  0.78371274  0.44016036  0.94950184  1  0  0.143431  0  0.937501  0  0  0.160419  0  0.998602  0  0  0.163493  0  0.997028  0  0  0.100893  0.15823  0  0.9998  0
H  H11  1  0.21626946  0.55983407  0.05051900  1  0  0.14348  0  0.937587  0  0  0.160437  0  0.998697  0  0  0.16351  0  0.997123  0  0  0.100931  0.158246  0  0.999899  0
H  H12  1  0.70910857  0.57063203  0.10057883  1  0  0.126743  0  0.953212  0  0  0.142264  0  1.023415  0  0  0.144726  0  1.022598  0  0  0.09768  0.140507  0  1.024078  0
H  H13  1  0.29088773  0.42938666  0.89944500  1  0  0.126631  0  0.953302  0  0  0.142175  0  1.023506  0  0  0.144634  0  1.02269  0  0  0.097634  0.140421  0  1.024165  0
H  H14  1  0.56187038  0.14818952  0.45310975  1  0  0.056883  0  0.950625  0  0  0.076095  0  1.012481  0  0  0.076052  0  1.013151  0  0  0.103536  0.076031  0  1.012111  0
H  H15  1  0.43812599  0.85182129  0.54688762  1  0  0.056876  0  0.9505  0  0  0.076114  0  1.012331  0  0  0.076048  0  1.013026  0  0  0.103541  0.076067  0  1.011946  0
H  H16  1  0.60684900  0.15407254  0.67468446  1  0  0.056765  0  0.951378  0  0  0.06928  0  1.023668  0  0  0.071348  0  1.021665  0  0  0.093424  0.067826  0  1.025088  0
H  H17  1  0.39314393  0.84593445  0.32531397  1  0  0.056732  0  0.951397  0  0  0.069238  0  1.023691  0  0  0.07131  0  1.021677  0  0  0.093429  0.067788  0  1.025109  0
H  H18  1  0.12220903  0.14950178  0.57500706  1  0  0.099107  0  0.948557  0  0  0.12018  0  1.010973  0  0  0.121416  0  1.010754  0  0  0.102437  0.119226  0  1.011166  0
H  H19  1  0.87778208  0.85050264  0.42498877  1  0  0.09906  0  0.948532  0  0  0.120168  0  1.010922  0  0  0.1214  0  1.010703  0  0  0.102421  0.119216  0  1.011114  0
H  H20  1  0.33783429  0.13711430  0.74342904  1  0  0.071564  0  0.939184  0  0  0.095027  0  1.002313  0  0  0.095887  0  1.002313  0  0  0.086518  0.094246  0  1.002528  0
H  H21  1  0.66216317  0.86289525  0.25656959  1  0  0.071596  0  0.93919  0  0  0.095029  0  1.002348  0  0  0.095886  0  1.002352  0  0  0.086533  0.094252  0  1.002559  0
H  H22  1  0.20499136  0.95634614  0.54430756  1  0  0.096136  0  0.952206  0  0  0.116304  0  1.015309  0  0  0.11766  0  1.014686  0  0  0.100287  0.115259  0  1.015839  0
H  H23  1  0.79500826  0.04366092  0.45569475  1  0  0.096112  0  0.952298  0  0  0.116332  0  1.015329  0  0  0.117689  0  1.014705  0  0  0.1003  0.115288  0  1.015857  0
H  H24  1  0.22617619  0.37658929  0.51803189  1  0  0.094062  0  0.948187  0  0  0.114488  0  1.010023  0  0  0.116158  0  1.008885  0  0  0.099865  0.113231  0  1.010843  0
H  H25  1  0.77381089  0.62341510  0.48196348  1  0  0.094019  0  0.948197  0  0  0.114427  0  1.010069  0  0  0.116109  0  1.008918  0  0  0.099863  0.11317  0  1.010885  0
H  H26  1  0.41198977  0.37591755  0.46247322  1  0  0.093913  0  0.955739  0  0  0.115168  0  1.018022  0  0  0.116431  0  1.017501  0  0  0.099549  0.114188  0  1.018424  0
H  H27  1  0.58800337  0.62409075  0.53752913  1  0  0.093855  0  0.955799  0  0  0.115137  0  1.018076  0  0  0.116408  0  1.017544  0  0  0.099546  0.114154  0  1.018479  0
H  H28  1  0.45448471  0.40277674  0.69045466  1  0  0.066285  0  0.951891  0  0  0.087127  0  1.021376  0  0  0.088089  0  1.021244  0  0  0.084606  0.08628  0  1.021629  0
H  H29  1  0.54550479  0.59722642  0.30954366  1  0  0.066264  0  0.951878  0  0  0.087117  0  1.021373  0  0  0.088061  0  1.021263  0  0  0.084609  0.08627  0  1.021625  0
C  C30  1  0.77061773  0.15973330  0.12373799  1  0  0.698814  0  3.781136  0  0  0.657217  0  4.081752  0  0  0.691668  0  4.075818  0  0  0.201567  0.634186  0  4.084057  0
C  C31  1  0.22939598  0.84025593  0.87625704  1  0  0.698816  0  3.780884  0  0  0.657074  0  4.081711  0  0  0.69151  0  4.075792  0  0  0.201431  0.634043  0  4.084024  0
C  C32  1  0.64108266  0.24036983  0.18893409  1  0  -0.449814  0  3.661159  0  0  -0.527236  0  3.898293  0  0  -0.53431  0  3.899532  0  0  -0.244323  -0.522384  0  3.897418  0
C  C33  1  0.35893048  0.75962318  0.81105709  1  0  -0.449541  0  3.661113  0  0  -0.526863  0  3.898276  0  0  -0.533928  0  3.899535  0  0  -0.244089  -0.522011  0  3.897395  0
C  C34  1  0.89037315  0.70904537  0.04542166  1  0  0.690921  0  3.793797  0  0  0.64955  0  4.09612  0  0  0.683816  0  4.090545  0  0  0.199295  0.626649  0  4.098187  0
C  C35  1  0.10962350  0.29094641  0.95458109  1  0  0.691029  0  3.793746  0  0  0.649621  0  4.096138  0  0  0.683884  0  4.090561  0  0  0.19933  0.626723  0  4.098206  0
C  C36  1  0.82730182  0.55216653  0.07238789  1  0  -0.441173  0  3.660875  0  0  -0.515472  0  3.897066  0  0  -0.522786  0  3.899057  0  0  -0.240576  -0.510521  0  3.89566  0
C  C37  1  0.17268294  0.44784054  0.92762234  1  0  -0.441084  0  3.660796  0  0  -0.515318  0  3.896902  0  0  -0.522641  0  3.898933  0  0  -0.240579  -0.510367  0  3.895491  0
C  C38  1  0.49175555  0.90329288  0.47022962  1  0  -0.028784  0  3.658241  0  0  -0.085058  0  3.916498  0  0  -0.082161  0  3.928245  0  0  -0.073323  -0.086779  0  3.907927  0
C  C39  1  0.50824608  0.09671030  0.52976664  1  0  -0.028902  0  3.658403  0  0  -0.085195  0  3.916704  0  0  -0.082312  0  3.928438  0  0  -0.07335  -0.086891  0  3.908119  0
C  C40  1  0.24599190  0.09552189  0.59607785  1  0  -0.16997  0  3.663923  0  0  -0.264937  0  3.918122  0  0  -0.263058  0  3.928306  0  0  -0.150779  -0.26591  0  3.910865  0
C  C41  1  0.75400507  0.90448511  0.40391989  1  0  -0.169924  0  3.663923  0  0  -0.264917  0  3.918112  0  0  -0.263042  0  3.928309  0  0  -0.150812  -0.265892  0  3.910854  0
C  C42  1  0.35824410  0.33664844  0.54564643  1  0  -0.188101  0  3.713843  0  0  -0.283957  0  3.971499  0  0  -0.281942  0  3.980802  0  0  -0.151747  -0.284912  0  3.964709  0
C  C43  1  0.64174724  0.66335728  0.45435217  1  0  -0.187922  0  3.713825  0  0  -0.283829  0  3.971515  0  0  -0.281811  0  3.980821  0  0  -0.151735  -0.284794  0  3.964755  0
N  N44  1  0.66799524  0.84926278  0.50306861  1  0  -0.164926  0  3.285875  0  0  -0.072765  0  3.539988  0  0  -0.087254  0  3.560014  0  0  -0.354473  -0.062215  0  3.525316  0
N  N45  1  0.33200076  0.15073910  0.49692619  1  0  -0.164847  0  3.285836  0  0  -0.072713  0  3.53996  0  0  -0.0872  0  3.559994  0  0  -0.354486  -0.062161  0  3.525278  0
O  O46  1  0.93642773  0.16958549  0.23634710  1  0  -0.580649  0  2.130117  0  0  -0.530336  0  2.391124  0  0  -0.557541  0  2.388136  0  0  -0.330021  -0.51089  0  2.392335  0
O  O47  1  0.06358255  0.83039991  0.76364782  1  0  -0.580653  0  2.129883  0  0  -0.530303  0  2.390938  0  0  -0.5575  0  2.387952  0  0  -0.330048  -0.510854  0  2.392158  0
O  O48  1  0.28946716  0.92199163  0.04733929  1  0  -0.59563  0  2.157758  0  0  -0.543794  0  2.429301  0  0  -0.571741  0  2.426217  0  0  -0.339844  -0.523825  0  2.4306  0
O  O49  1  0.71054558  0.07799248  0.95265280  1  0  -0.595569  0  2.157881  0  0  -0.543779  0  2.42933  0  0  -0.571732  0  2.426239  0  0  -0.339848  -0.52381  0  2.430637  0
O  O50  1  0.02899619  0.81935445  0.17592635  1  0  -0.585491  0  2.137596  0  0  -0.536831  0  2.403722  0  0  -0.564046  0  2.400843  0  0  -0.333439  -0.517368  0  2.404875  0
O  O51  1  0.97101125  0.18063734  0.82407264  1  0  -0.585596  0  2.137712  0  0  -0.536966  0  2.403891  0  0  -0.564179  0  2.401013  0  0  -0.333523  -0.517497  0  2.405041  0
O  O52  1  0.19808446  0.26843677  0.10742190  1  0  -0.584605  0  2.11946  0  0  -0.534166  0  2.383456  0  0  -0.561709  0  2.380507  0  0  -0.338693  -0.514419  0  2.384585  0
O  O53  1  0.80191762  0.73155497  0.89257492  1  0  -0.58455  0  2.119532  0  0  -0.534124  0  2.383451  0  0  -0.561667  0  2.380501  0  0  -0.338695  -0.514377  0  2.384594  0
