# generated using pymatgen
data_Cr2CuH16C12N8O7
_symmetry_space_group_name_H-M   'P 1'
_cell_length_a   9.52417556
_cell_length_b   9.84483745
_cell_length_c   13.21725738
_cell_angle_alpha   69.26295907
_cell_angle_beta   80.27461429
_cell_angle_gamma   62.39172905
_symmetry_Int_Tables_number   1
_chemical_formula_structural   Cr2CuH16C12N8O7
_chemical_formula_sum   'Cr4 Cu2 H32 C24 N16 O14'
_cell_volume   1027.02785329
_cell_formula_units_Z   2
loop_
 _symmetry_equiv_pos_site_id
 _symmetry_equiv_pos_as_xyz
  1  'x, y, z'
loop_
 _atom_site_type_symbol
 _atom_site_label
 _atom_site_symmetry_multiplicity
 _atom_site_fract_x
 _atom_site_fract_y
 _atom_site_fract_z
 _atom_site_occupancy
 _atom_site_hle17_ddec_charge
 _atom_site_hle17_ddec_spin_density
 _atom_site_hle17_ddec_sum_bond_order
 _atom_site_hle17_magmom
 _atom_site_hse06_10hf_ddec_charge
 _atom_site_hse06_10hf_ddec_spin_density
 _atom_site_hse06_10hf_ddec_sum_bond_order
 _atom_site_hse06_10hf_magmom
 _atom_site_hse06_ddec_charge
 _atom_site_hse06_ddec_spin_density
 _atom_site_hse06_ddec_sum_bond_order
 _atom_site_hse06_magmom
 _atom_site_pbe_cm5_charge
 _atom_site_pbe_ddec_charge
 _atom_site_pbe_ddec_spin_density
 _atom_site_pbe_ddec_sum_bond_order
 _atom_site_pbe_magmom
Cr  Cr0  1  0.24095820  0.65561417  0.61285961  1  1.739551  0.004594  3.602944  0.003  1.808619  0.003479  4.071461  0.003  1.891136  0.003622  4.045398  0.002  1.282701  1.753446  0.003088  4.090409  0.002
Cr  Cr1  1  0.75904053  0.34438728  0.38714055  1  1.739416  0.00502  3.602944  0.003  1.808442  0.003481  4.071541  0.003  1.890995  0.003654  4.045433  0.003  1.282614  1.753273  0.003087  4.090473  0.002
Cr  Cr2  1  0.29473259  0.48663956  0.87222374  1  1.734652  0.006497  3.611545  0.004  1.803386  0.004678  4.079666  0.003  1.885679  0.00472  4.054227  0.003  1.282836  1.748202  0.004354  4.0986  0.003
Cr  Cr3  1  0.70526456  0.51336310  0.12777706  1  1.734784  0.006722  3.611665  0.004  1.803536  0.004677  4.079775  0.003  1.885835  0.004738  4.054323  0.003  1.282919  1.748349  0.004357  4.098712  0.003
Cu  Cu4  1  0.49999997  0.00000053  0.00000131  1  0.81141  -0.700272  1.891186  -0.524  0.779434  -0.772174  2.262149  -0.618  0.848838  -0.829296  2.212041  -0.69  0.790955  0.742109  -0.732638  2.293361  -0.571
Cu  Cu5  1  0.99999822  0.49999885  0.49999952  1  0.803776  -0.699379  1.890707  -0.523  0.768946  -0.77088  2.263587  -0.617  0.839002  -0.827868  2.213365  -0.689  0.788648  0.729809  -0.731377  2.296899  -0.57
H  H6  1  0.07202740  0.12170920  0.28771067  1  0.319616  -0.000491  0.927699  -0.001  0.306989  -0.000386  0.980465  -0.001  0.315211  -0.00029  0.973331  -0.001  0.309835  0.301603  -0.000464  0.985131  -0.001
H  H7  1  0.92797610  0.87828620  0.71229427  1  0.319639  -0.000491  0.927643  -0.001  0.307006  -0.000386  0.980411  -0.001  0.315227  -0.000289  0.973285  -0.001  0.309854  0.301621  -0.000464  0.985072  -0.001
H  H8  1  0.82793789  0.21258315  0.10666204  1  0.296834  -0.000535  0.937202  -0.001  0.277803  -0.000428  1.003193  -0.001  0.285107  -0.000324  0.997694  -0.001  0.305985  0.272582  -0.000525  1.007517  -0.001
H  H9  1  0.17206139  0.78742194  0.89333481  1  0.296814  -0.000536  0.937262  -0.001  0.277781  -0.000428  1.003272  -0.001  0.285085  -0.000324  0.997775  -0.001  0.305971  0.27256  -0.000525  1.007596  -0.001
H  H10  1  0.67317637  0.10643089  0.41470478  1  0.300927  -0.000502  0.940301  -0.001  0.282298  -0.000406  1.00557  -0.001  0.289873  -0.000306  0.999715  -0.001  0.304531  0.276708  -0.000494  1.010264  -0.001
H  H11  1  0.32682765  0.89356815  0.58529459  1  0.300953  -0.000502  0.940251  -0.001  0.282278  -0.000406  1.005588  -0.001  0.289846  -0.000306  0.999735  -0.001  0.304523  0.27669  -0.000494  1.010284  -0.001
H  H12  1  0.39459404  0.47979843  0.18830420  1  0.314479  -0.000495  0.939438  -0.001  0.301893  -0.000389  0.992477  -0.001  0.310084  -0.000295  0.985406  -0.001  0.308871  0.296664  -0.00047  0.996835  -0.001
H  H13  1  0.60540358  0.52020061  0.81169522  1  0.314468  -0.000495  0.939445  -0.001  0.30188  -0.000389  0.992487  -0.001  0.310072  -0.000295  0.985414  -0.001  0.308887  0.296652  -0.00047  0.996842  -0.001
H  H14  1  0.17882747  0.23411457  0.09957585  1  0.10461  -0.000113  0.956448  -0.001  0.114488  -0.000168  1.017868  0.0  0.116587  -0.000114  1.014421  0.0  0.132934  0.113051  -0.000199  1.02022  0.0
H  H15  1  0.82117177  0.76588325  0.90042823  1  0.104532  -0.00011  0.956538  -0.001  0.114415  -0.000168  1.017945  0.0  0.116516  -0.000114  1.014494  0.0  0.132899  0.112975  -0.000199  1.020294  0.0
H  H16  1  0.25546167  0.82624746  0.37878604  1  0.110069  -0.000635  0.980456  -0.001  0.115896  -0.000529  1.04725  -0.001  0.117812  -0.000394  1.046952  0.0  0.119329  0.11442  -0.000611  1.04791  -0.001
H  H17  1  0.74454233  0.17374673  0.62121839  1  0.110055  -0.000635  0.980505  -0.001  0.115917  -0.000529  1.047245  -0.001  0.117836  -0.000394  1.046943  0.0  0.11932  0.114439  -0.000611  1.047909  -0.001
H  H18  1  0.50519046  0.74692568  0.23446108  1  0.107732  -0.000111  1.000547  -0.001  0.114179  -0.000244  1.066578  -0.001  0.116739  -0.000152  1.065189  0.0  0.112792  0.112502  -0.000343  1.067884  -0.001
H  H19  1  0.49481142  0.25307094  0.76554072  1  0.107679  -0.000113  1.000584  -0.001  0.114169  -0.000244  1.066567  -0.001  0.116728  -0.000152  1.065179  0.0  0.112784  0.112491  -0.000343  1.067871  -0.001
H  H20  1  0.56279555  0.27771644  0.03632976  1  0.099447  -8.2e-05  0.972299  -0.001  0.106047  -0.000122  1.039929  0.0  0.10794  -6.4e-05  1.036743  0.0  0.129794  0.104945  -0.000181  1.04173  0.0
H  H21  1  0.43720529  0.72228502  0.96366861  1  0.099499  -8.2e-05  0.972237  -0.001  0.106062  -0.000122  1.039906  0.0  0.107954  -6.5e-05  1.036721  0.0  0.129811  0.104959  -0.000181  1.041702  0.0
H  H22  1  0.01360907  0.90897312  0.15839103  1  0.113069  -0.000583  0.943629  -0.001  0.124545  -0.000476  0.998735  -0.001  0.126491  -0.000346  0.99898  0.0  0.123429  0.12369  -0.000604  0.997691  -0.001
H  H23  1  0.98639076  0.09103317  0.84160696  1  0.113003  -0.000586  0.943737  -0.001  0.124507  -0.000476  0.998805  -0.001  0.126454  -0.000346  0.999051  0.0  0.123414  0.123653  -0.000604  0.997757  -0.001
H  H24  1  0.84428628  0.77556177  0.10620282  1  0.102624  -0.000186  0.986686  -0.001  0.111256  -0.000331  1.049214  -0.001  0.112438  -0.000231  1.049255  -0.001  0.114225  0.110196  -0.000431  1.049808  -0.001
H  H25  1  0.15571355  0.22444210  0.89379807  1  0.102666  -0.000182  0.986737  -0.001  0.111307  -0.000331  1.049245  -0.001  0.11249  -0.000231  1.049282  -0.001  0.11428  0.110234  -0.000431  1.049859  -0.001
H  H26  1  0.93689345  0.85900051  0.48500272  1  0.094375  -5.8e-05  0.969872  0.0  0.100582  -0.000111  1.039275  0.0  0.10265  -5.3e-05  1.035939  0.0  0.12896  0.099345  -0.000167  1.041346  0.0
H  H27  1  0.06310897  0.14099732  0.51499793  1  0.094351  -5.8e-05  0.9699  0.0  0.100589  -0.000111  1.039272  0.0  0.102658  -5.3e-05  1.035935  0.0  0.128955  0.09935  -0.000167  1.041346  0.0
H  H28  1  0.49408626  0.03287149  0.34262914  1  0.112447  -0.000608  0.944481  -0.001  0.123958  -0.000512  0.999514  -0.001  0.12606  -0.00037  0.999464  0.0  0.123138  0.122698  -0.000656  0.999136  -0.001
H  H29  1  0.50591670  0.96712998  0.65736822  1  0.112451  -0.000608  0.944495  -0.001  0.123962  -0.000512  0.999528  -0.001  0.126063  -0.00037  0.999479  0.0  0.123133  0.122704  -0.000656  0.999151  -0.001
H  H30  1  0.66198701  0.70158183  0.37773867  1  0.107617  -0.000183  0.974676  -0.001  0.115777  -0.000354  1.036403  -0.001  0.117397  -0.000243  1.036008  -0.001  0.115475  0.11449  -0.000451  1.037217  -0.001
H  H31  1  0.33801277  0.29841962  0.62226059  1  0.107663  -0.000183  0.974597  -0.001  0.115815  -0.000354  1.036336  -0.001  0.117435  -0.000243  1.035941  -0.001  0.115484  0.114526  -0.000451  1.037152  -0.001
H  H32  1  0.34279149  0.45882962  0.38907912  1  0.109882  -7.1e-05  0.956609  -0.001  0.120683  -0.000115  1.015116  0.0  0.122968  -7.3e-05  1.0115  0.0  0.133615  0.119171  -0.000149  1.017692  0.0
H  H33  1  0.65720452  0.54116821  0.61092006  1  0.109871  -7.3e-05  0.956571  -0.001  0.12067  -0.000115  1.015084  0.0  0.122955  -7.3e-05  1.011471  0.0  0.133616  0.119159  -0.000149  1.017665  0.0
H  H34  1  0.15030948  0.52972042  0.09751278  1  0.112893  -0.000616  0.977418  -0.001  0.120443  -0.000494  1.041624  -0.001  0.122826  -0.000369  1.040695  0.0  0.11922  0.118647  -0.000593  1.04263  -0.001
H  H35  1  0.84968759  0.47027742  0.90248551  1  0.112808  -0.000616  0.977494  -0.001  0.120347  -0.000494  1.04172  -0.001  0.12273  -0.000369  1.040791  0.0  0.119173  0.118552  -0.000593  1.042721  -0.001
H  H36  1  0.92078346  0.54691314  0.26042494  1  0.102219  -6.8e-05  1.00814  0.0  0.106849  -0.000219  1.079312  -0.001  0.10947  -0.000133  1.077821  0.0  0.112828  0.105496  -0.000316  1.08007  -0.001
H  H37  1  0.07921362  0.45308713  0.73957119  1  0.102153  -6.6e-05  1.008199  0.0  0.106779  -0.000219  1.079376  -0.001  0.109401  -0.000133  1.077881  0.0  0.112787  0.105435  -0.000316  1.080121  -0.001
C  C38  1  0.23578018  0.11279465  0.15501132  1  0.209551  0.009489  3.646489  0.005  0.154166  0.002675  3.915944  0.001  0.169787  0.004065  3.928293  0.002  0.13627  0.1444  0.001394  3.907076  0.0
C  C39  1  0.76422332  0.88720075  0.84499437  1  0.209584  0.009466  3.646603  0.005  0.154198  0.002674  3.916044  0.001  0.169824  0.004065  3.928389  0.002  0.136242  0.144431  0.001393  3.90717  0.0
C  C40  1  0.27767052  0.89763335  0.29985645  1  -0.013262  -0.005004  3.690192  -0.005  -0.04662  -0.002466  3.94339  -0.003  -0.045423  -0.002104  3.963269  -0.002  3.4e-05  -0.046901  -0.002788  3.929538  -0.003
C  C41  1  0.72233296  0.10236205  0.70014773  1  -0.013345  -0.00501  3.69008  -0.005  -0.046739  -0.002466  3.943259  -0.003  -0.045543  -0.002105  3.963139  -0.002  1.1e-05  -0.047022  -0.002788  3.929406  -0.003
C  C42  1  0.40025100  0.85963964  0.22748879  1  -0.017648  0.002489  3.734715  0.001  -0.046593  0.000171  4.002761  0.0  -0.044464  0.001193  4.024056  0.0  -0.0086  -0.048156  -0.000635  3.988746  -0.001
C  C43  1  0.59975192  0.14035456  0.77251426  1  -0.017484  0.002506  3.734656  0.001  -0.046466  0.000171  4.002686  0.0  -0.044337  0.001194  4.023984  0.0  -0.008536  -0.048034  -0.000635  3.988685  -0.001
C  C44  1  0.66003580  0.15819734  0.06281532  1  0.210947  0.010512  3.64548  0.006  0.156258  0.003105  3.914187  0.001  0.171669  0.004475  3.927131  0.002  0.13712  0.146562  0.001908  3.904524  0.0
C  C45  1  0.33996191  0.84180895  0.93718293  1  0.210968  0.010485  3.645507  0.006  0.1563  0.003106  3.914241  0.001  0.171715  0.004473  3.927179  0.002  0.137174  0.146608  0.001909  3.904573  0.0
C  C46  1  0.89583433  0.96367731  0.12572317  1  -0.004575  -0.004781  3.688654  -0.005  -0.043558  -0.002416  3.951211  -0.003  -0.041535  -0.002095  3.970665  -0.002  0.000122  -0.044914  -0.002713  3.937194  -0.003
C  C47  1  0.10416760  0.03632657  0.87427443  1  -0.004585  -0.004714  3.68869  -0.005  -0.043586  -0.002416  3.951248  -0.003  -0.041564  -0.002094  3.970705  -0.002  0.00011  -0.044941  -0.002713  3.937224  -0.003
C  C48  1  0.81122504  0.89886565  0.10031989  1  -0.0182  0.002028  3.744613  0.001  -0.048319  -9.1e-05  4.015787  -0.001  -0.046399  0.000959  4.038556  0.0  -0.010389  -0.049239  -0.00084  4.000734  -0.001
C  C49  1  0.18877532  0.10113943  0.89967910  1  -0.018255  0.001931  3.744628  0.0  -0.04839  -9.2e-05  4.015807  -0.001  -0.046473  0.000961  4.038581  0.0  -0.010486  -0.049299  -0.00084  4.00077  -0.001
C  C50  1  0.84154099  0.85916566  0.45019761  1  0.211936  0.009957  3.644196  0.005  0.15807  0.002995  3.911804  0.001  0.173338  0.004382  3.924771  0.002  0.138024  0.148353  0.00178  3.902452  0.0
C  C51  1  0.15845983  0.14083338  0.54980140  1  0.212009  0.009945  3.644153  0.005  0.15812  0.002996  3.911756  0.001  0.173384  0.004384  3.92472  0.002  0.13807  0.148403  0.001781  3.902408  0.0
C  C52  1  0.61024320  0.94698530  0.37663084  1  -0.002122  -0.005045  3.688953  -0.005  -0.041979  -0.002534  3.951152  -0.003  -0.040116  -0.002183  3.970629  -0.003  0.001237  -0.043057  -0.002901  3.937178  -0.003
C  C53  1  0.38975924  0.05301496  0.62336841  1  -0.002137  -0.005025  3.689054  -0.005  -0.041994  -0.002533  3.951239  -0.003  -0.040133  -0.002183  3.970714  -0.003  0.001262  -0.043079  -0.002901  3.937268  -0.003
C  C54  1  0.69454854  0.78357433  0.39376253  1  -0.009734  0.001992  3.72839  0.0  -0.037778  -0.000258  3.998548  -0.001  -0.03571  0.000814  4.020774  0.0  -0.006595  -0.038676  -0.001049  3.983539  -0.002
C  C55  1  0.30545227  0.21642472  0.60623573  1  -0.009822  0.001971  3.728434  0.0  -0.037848  -0.000258  3.998598  -0.001  -0.035781  0.000812  4.020826  0.0  -0.006645  -0.038738  -0.00105  3.983579  -0.002
C  C56  1  0.25740550  0.48122167  0.33326461  1  0.218003  0.010239  3.632412  0.006  0.164177  0.003081  3.896539  0.001  0.18016  0.004444  3.908494  0.002  0.140247  0.153792  0.001925  3.888364  0.0
C  C57  1  0.74259262  0.51877375  0.66673570  1  0.217974  0.010277  3.632498  0.006  0.164132  0.003081  3.896629  0.001  0.180118  0.004445  3.908585  0.002  0.140214  0.153746  0.001925  3.888464  0.0
C  C58  1  0.15494749  0.51646379  0.18206097  1  -0.02103  -0.004658  3.693956  -0.005  -0.055376  -0.002396  3.949924  -0.003  -0.05485  -0.00206  3.970053  -0.002  -0.002931  -0.054974  -0.002743  3.935356  -0.003
C  C59  1  0.84505170  0.48353406  0.81793630  1  -0.021013  -0.004655  3.694019  -0.005  -0.055358  -0.002396  3.949996  -0.003  -0.054831  -0.002059  3.970125  -0.002  -0.002926  -0.054961  -0.002742  3.935424  -0.003
C  C60  1  0.04246795  0.52536947  0.26288432  1  -0.019259  0.00184  3.751697  0.0  -0.051592  -8.2e-05  4.026352  -0.001  -0.049042  0.000978  4.047798  0.0  -0.009358  -0.053213  -0.000845  4.011288  -0.001
C  C61  1  0.95752648  0.47462957  0.73711474  1  -0.019071  0.001823  3.751641  0.0  -0.051406  -8.3e-05  4.026278  -0.001  -0.048854  0.00098  4.047725  0.0  -0.00927  -0.053031  -0.000845  4.011193  -0.001
N  N62  1  0.37255114  0.99475052  0.13786448  1  -0.345511  -0.081574  3.328443  -0.108  -0.30432  -0.057013  3.636775  -0.079  -0.333555  -0.046434  3.658045  -0.069  -0.371093  -0.286348  -0.06381  3.622767  -0.085
N  N63  1  0.62744970  0.00524608  0.86214047  1  -0.345586  -0.081567  3.328399  -0.108  -0.304392  -0.057014  3.636738  -0.079  -0.333627  -0.046435  3.658007  -0.069  -0.371132  -0.286419  -0.063812  3.622722  -0.085
N  N64  1  0.17596299  0.05731295  0.25261156  1  -0.28138  -0.001484  3.454137  -0.003  -0.212934  -0.001381  3.677483  -0.002  -0.228971  -0.000914  3.691511  -0.002  -0.379237  -0.202656  -0.001787  3.667364  -0.003
N  N65  1  0.82404158  0.94268245  0.74739476  1  -0.281294  -0.001478  3.454107  -0.003  -0.212825  -0.001381  3.677436  -0.002  -0.228869  -0.000914  3.691473  -0.002  -0.379159  -0.202556  -0.001787  3.667327  -0.003
N  N66  1  0.66483412  0.02130721  0.06153576  1  -0.346143  -0.082846  3.335715  -0.109  -0.304444  -0.057556  3.643133  -0.08  -0.334151  -0.046797  3.665499  -0.069  -0.37226  -0.286174  -0.063999  3.628255  -0.085
N  N67  1  0.33516515  0.97869546  0.93846400  1  -0.346229  -0.082828  3.335854  -0.109  -0.304505  -0.057555  3.643252  -0.08  -0.334211  -0.046798  3.665614  -0.069  -0.372279  -0.286235  -0.064  3.628375  -0.085
N  N68  1  0.79855958  0.12679472  0.10144125  1  -0.276291  -0.001518  3.478941  -0.003  -0.208344  -0.001308  3.708767  -0.002  -0.22465  -0.00083  3.724696  -0.002  -0.377255  -0.197065  -0.001727  3.697686  -0.002
N  N69  1  0.20144132  0.87321158  0.89855660  1  -0.276195  -0.001523  3.478979  -0.003  -0.20825  -0.001307  3.708801  -0.002  -0.224558  -0.00083  3.724734  -0.002  -0.377219  -0.196975  -0.001727  3.69772  -0.002
N  N70  1  0.83824839  0.73074382  0.43960076  1  -0.347875  -0.083147  3.321634  -0.11  -0.305574  -0.058337  3.628248  -0.081  -0.335428  -0.047413  3.650813  -0.07  -0.370706  -0.287013  -0.064786  3.61365  -0.086
N  N71  1  0.16175244  0.26925522  0.56039901  1  -0.34784  -0.083139  3.321588  -0.11  -0.305556  -0.058336  3.628219  -0.081  -0.335412  -0.047411  3.650787  -0.07  -0.370718  -0.286999  -0.064785  3.613622  -0.086
N  N72  1  0.70477142  0.99178647  0.41267673  1  -0.27909  -0.001319  3.480517  -0.002  -0.209973  -0.001245  3.707816  -0.002  -0.226095  -0.000769  3.723455  -0.001  -0.377327  -0.198662  -0.001656  3.696754  -0.002
N  N73  1  0.29523206  0.00821136  0.58732379  1  -0.279115  -0.001321  3.480403  -0.002  -0.209964  -0.001246  3.707741  -0.002  -0.226072  -0.000769  3.723374  -0.001  -0.37732  -0.19865  -0.001656  3.69668  -0.002
N  N74  1  0.10782617  0.50336857  0.35625028  1  -0.346765  -0.081097  3.334825  -0.107  -0.304177  -0.056389  3.643422  -0.078  -0.333931  -0.046155  3.664273  -0.068  -0.374258  -0.285717  -0.062929  3.629965  -0.083
N  N75  1  0.89216983  0.49662927  0.64374815  1  -0.346772  -0.081104  3.334754  -0.107  -0.30415  -0.056388  3.643316  -0.078  -0.333908  -0.046154  3.664164  -0.068  -0.374242  -0.285692  -0.062928  3.629867  -0.083
N  N76  1  0.28889936  0.48872854  0.22832195  1  -0.278848  -0.001376  3.455583  -0.003  -0.211055  -0.001181  3.680103  -0.002  -0.227127  -0.000772  3.694466  -0.001  -0.377728  -0.200576  -0.001596  3.669228  -0.002
N  N77  1  0.71109717  0.51126809  0.77167749  1  -0.278816  -0.001383  3.455538  -0.003  -0.21102  -0.00118  3.680049  -0.002  -0.227096  -0.000773  3.694412  -0.001  -0.377722  -0.200542  -0.001596  3.669174  -0.002
O  O78  1  0.09013312  0.81565671  0.63039598  1  -0.708478  0.000159  1.377603  0.0  -0.723169  0.000181  1.631588  0.0  -0.74675  0.000136  1.622231  0.0  -0.505872  -0.708533  0.000215  1.638688  0.0
O  O79  1  0.90986765  0.18433992  0.36960141  1  -0.708446  0.000116  1.377506  0.0  -0.723133  0.000186  1.63149  0.0  -0.746727  0.00013  1.622126  0.0  -0.505838  -0.708506  0.000215  1.638595  0.0
O  O80  1  0.19762319  0.59967989  0.52559294  1  -0.681764  -1.9e-05  1.361094  -0.002  -0.697832  0.000575  1.632552  -0.002  -0.722371  0.000655  1.62078  -0.002  -0.490916  -0.683325  0.000345  1.6425  -0.002
O  O81  1  0.80237711  0.40032037  0.47440582  1  -0.681725  -0.000111  1.361165  -0.003  -0.697747  0.000572  1.632621  -0.002  -0.722294  0.000651  1.620839  -0.002  -0.490897  -0.683244  0.000345  1.64257  -0.002
O  O82  1  0.39149680  0.69782630  0.57189194  1  -0.690063  -0.000129  1.342202  0.0  -0.699794  2.9e-05  1.582806  0.0  -0.721815  -3.3e-05  1.573368  0.0  -0.499169  -0.685238  -8.5e-05  1.590075  0.0
O  O83  1  0.60850511  0.30217273  0.42810921  1  -0.690011  -0.000209  1.34223  0.0  -0.699766  2.9e-05  1.582852  0.0  -0.721799  -3.9e-05  1.573406  0.0  -0.499151  -0.685205  -8.5e-05  1.590111  0.0
O  O84  1  0.28844574  0.49284391  0.73684201  1  -0.874732  -0.000317  1.721178  -0.001  -0.895514  -0.000163  2.03499  0.0  -0.939846  -9.4e-05  2.032917  0.0  -0.57444  -0.866522  -2.1e-05  2.037308  0.0
O  O85  1  0.71155457  0.50715877  0.26315536  1  -0.874706  -0.000316  1.721214  -0.001  -0.89546  -0.000163  2.035003  0.0  -0.939802  -9.3e-05  2.032922  0.0  -0.57442  -0.866471  -2.1e-05  2.037321  0.0
O  O86  1  0.32902429  0.30508476  0.94986643  1  -0.684218  -0.000292  1.385536  -0.003  -0.698851  0.000464  1.661008  -0.002  -0.723331  0.000519  1.649194  -0.002  -0.491581  -0.68467  0.000359  1.671347  -0.002
O  O87  1  0.67097449  0.69491910  0.05013686  1  -0.684202  -0.000335  1.385455  -0.003  -0.698848  0.000464  1.660882  -0.002  -0.723346  0.000517  1.649103  -0.002  -0.491623  -0.684659  0.000359  1.671218  -0.002
O  O88  1  0.12713659  0.61952677  0.90352794  1  -0.692222  -0.000322  1.327165  0.0  -0.700462  -5.8e-05  1.568676  0.0  -0.722435  -0.000117  1.559644  0.0  -0.501523  -0.685712  -8.4e-05  1.575492  0.0
O  O89  1  0.87285848  0.38048315  0.09646818  1  -0.69231  -0.000338  1.327317  0.0  -0.700534  -5.7e-05  1.568822  0.0  -0.722507  -0.00012  1.559789  0.0  -0.501555  -0.685784  -8.5e-05  1.575643  0.0
O  O90  1  0.43684655  0.52866044  0.88294734  1  -0.701885  0.000157  1.399385  0.0  -0.714339  0.000248  1.654472  0.0  -0.73738  0.000132  1.644485  0.0  -0.502142  -0.699616  0.000286  1.66198  0.0
O  O91  1  0.56315063  0.47134464  0.11705357  1  -0.701951  0.000101  1.399407  0.0  -0.714423  0.000248  1.654513  0.0  -0.737462  0.000128  1.644523  0.0  -0.502141  -0.699693  0.000285  1.66202  0.0
