# generated using pymatgen
data_Zn4H12C18O13
_symmetry_space_group_name_H-M   'P 1'
_cell_length_a   15.30780110
_cell_length_b   21.69271075
_cell_length_c   17.03524900
_cell_angle_alpha   59.35572886
_cell_angle_beta   66.86433826
_cell_angle_gamma   90.34777001
_symmetry_Int_Tables_number   1
_chemical_formula_structural   Zn4H12C18O13
_chemical_formula_sum   'Zn8 H24 C36 O26'
_cell_volume   4320.57000184
_cell_formula_units_Z   2
loop_
 _symmetry_equiv_pos_site_id
 _symmetry_equiv_pos_as_xyz
  1  'x, y, z'
loop_
 _atom_site_type_symbol
 _atom_site_label
 _atom_site_symmetry_multiplicity
 _atom_site_fract_x
 _atom_site_fract_y
 _atom_site_fract_z
 _atom_site_occupancy
 _atom_site_pbe_bader_charge
 _atom_site_pbe_bader_spin_density
 _atom_site_pbe_cm5_charge
 _atom_site_pbe_ddec_charge
 _atom_site_pbe_ddec_spin_density
 _atom_site_pbe_ddec_sum_bond_order
 _atom_site_pbe_magmom
Zn  Zn0  1  0.94002865  0.89194732  0.10480000  1  1.306436  0  0.670978  0.968656  0  2.358379  0
Zn  Zn1  1  0.93980877  0.04333166  0.10063943  1  1.30776  0  0.670495  0.970339  0  2.353404  0
Zn  Zn2  1  0.90835511  0.03298036  0.93256566  1  1.304759  0  0.667437  0.957631  0  2.395863  0
Zn  Zn3  1  0.11741029  0.03862023  0.92375319  1  1.316981  0  0.667506  0.960492  0  2.385764  0
Zn  Zn4  1  0.50915541  0.60953107  0.93750587  1  1.315993  0  0.670592  0.968418  0  2.35767  0
Zn  Zn5  1  0.51283721  0.46051809  0.93520649  1  1.315912  0  0.671102  0.971563  0  2.352023  0
Zn  Zn6  1  0.33472282  0.46063378  0.11624238  1  1.316292  0  0.667065  0.960299  0  2.382083  0
Zn  Zn7  1  0.54471378  0.46796673  0.10504200  1  1.305837  0  0.666593  0.955585  0  2.399563  0
H  H8  1  0.77219369  0.88248908  0.43967059  1  0.070627  0  0.112613  0.13208  0  0.978955  0
H  H9  1  0.77175905  0.74541198  0.42695385  1  0.099805  0  0.113167  0.112565  0  0.973885  0
H  H10  1  0.67672270  0.76176401  0.61338559  1  0.099058  0  0.113157  0.112407  0  0.973161  0
H  H11  1  0.67752446  0.62577866  0.59812658  1  0.086532  0  0.113105  0.132078  0  0.979305  0
H  H12  1  0.69316898  0.86525771  0.98268838  1  0.092698  0  0.113221  0.131921  0  0.978085  0
H  H13  1  0.80317073  0.74656551  0.06024715  1  0.10052  0  0.112655  0.111623  0  0.974324  0
H  H14  1  0.64484266  0.75374349  0.98429666  1  0.090327  0  0.112994  0.111587  0  0.974283  0
H  H15  1  0.75545207  0.63528777  0.06089872  1  0.098903  0  0.113481  0.132387  0  0.979482  0
H  H16  1  0.26990261  0.87291200  0.89418013  1  0.091192  0  0.112986  0.131738  0  0.979102  0
H  H17  1  0.12403651  0.74018935  0.11146601  1  0.085178  0  0.113088  0.112259  0  0.972793  0
H  H18  1  0.32175948  0.75584596  0.93978583  1  0.093458  0  0.112192  0.110804  0  0.974736  0
H  H19  1  0.17745296  0.62184707  0.15657853  1  0.110612  0  0.113354  0.132742  0  0.978988  0
H  H20  1  0.80474367  0.23481274  0.88108398  1  0.084452  0  0.113003  0.131938  0  0.978597  0
H  H21  1  0.74982097  0.19133728  0.10089690  1  0.115032  0  0.113474  0.113058  0  0.972004  0
H  H22  1  0.70912115  0.31576140  0.92574947  1  0.110356  0  0.114106  0.114062  0  0.971698  0
H  H23  1  0.65493659  0.27051534  0.14617485  1  0.079154  0  0.113231  0.132174  0  0.979154  0
H  H24  1  0.29627986  0.19001362  0.93745297  1  0.090205  0  0.112762  0.131357  0  0.980107  0
H  H25  1  0.11441130  0.21274220  0.07472803  1  0.09195  0  0.113296  0.112775  0  0.974143  0
H  H26  1  0.33995220  0.29068777  0.95874090  1  0.108816  0  0.11325  0.112685  0  0.973365  0
H  H27  1  0.15769759  0.31279524  0.09651353  1  0.105366  0  0.112782  0.131804  0  0.979714  0
H  H28  1  0.08017679  0.15952287  0.59581937  1  0.096959  0  0.113176  0.133165  0  0.97727  0
H  H29  1  0.25116757  0.22123426  0.61080868  1  0.094088  0  0.113806  0.114059  0  0.974329  0
H  H30  1  0.20441486  0.27239432  0.42643498  1  0.089243  0  0.114223  0.114399  0  0.974391  0
H  H31  1  0.37446849  0.33420057  0.44250843  1  0.102774  0  0.11303  0.13194  0  0.977439  0
C  C32  1  0.84760221  0.89297108  0.29295918  1  1.534751  0  0.220114  0.644156  0  4.176533  0
C  C33  1  0.78807072  0.84990631  0.40607480  1  -0.032634  0  -0.085919  -0.229172  0  3.872749  0
C  C34  1  0.75383798  0.77512316  0.46495391  1  -0.04782  0  -0.066918  -0.020866  0  3.996283  0
C  C35  1  0.69486552  0.73236294  0.57495249  1  0.013237  0  -0.066574  -0.021748  0  3.995672  0
C  C36  1  0.66111168  0.65756122  0.63292226  1  -0.046398  0  -0.086179  -0.229074  0  3.874054  0
C  C37  1  0.60174136  0.61313976  0.74610718  1  1.49874  0  0.22027  0.645502  0  4.174273  0
C  C38  1  0.80419457  0.88237050  0.02482561  1  1.550193  0  0.218691  0.644506  0  4.17474  0
C  C39  1  0.74266319  0.83818261  0.01305577  1  -0.03365  0  -0.085209  -0.225505  0  3.876842  0
C  C40  1  0.75127226  0.77070652  0.03140076  1  -0.046659  0  -0.067043  -0.022954  0  4.005268  0
C  C41  1  0.69672790  0.72957983  0.01314520  1  -0.024708  0  -0.067397  -0.022182  0  4.004804  0
C  C42  1  0.70577730  0.66232295  0.03080316  1  -0.038624  0  -0.085308  -0.22644  0  3.879333  0
C  C43  1  0.64496566  0.61846401  0.01798872  1  1.538085  0  0.218024  0.642531  0  4.1767  0
C  C44  1  0.13889937  0.88680089  0.99124238  1  1.546034  0  0.21912  0.643573  0  4.176802  0
C  C45  1  0.20501725  0.84219555  0.96924457  1  -0.065792  0  -0.085941  -0.226402  0  3.87888  0
C  C46  1  0.18961840  0.76884476  0.03671854  1  0.005845  0  -0.067035  -0.023536  0  4.003052  0
C  C47  1  0.25634073  0.72687102  0.01468375  1  -0.028868  0  -0.067552  -0.02242  0  4.004024  0
C  C48  1  0.24182805  0.65348454  0.08115280  1  -0.030746  0  -0.086445  -0.228382  0  3.877984  0
C  C49  1  0.30905485  0.61028993  0.05656044  1  1.51597  0  0.218378  0.642836  0  4.174401  0
C  C50  1  0.84402731  0.14102832  0.98336422  1  1.524324  0  0.216499  0.639674  0  4.184396  0
C  C51  1  0.80034599  0.20490735  0.95753505  1  -0.018612  0  -0.085806  -0.225105  0  3.881607  0
C  C52  1  0.75328512  0.22364883  0.02472240  1  -0.042693  0  -0.069133  -0.026489  0  4.007481  0
C  C53  1  0.70594758  0.28326621  0.00178208  1  -0.042793  0  -0.068072  -0.025637  0  4.005867  0
C  C54  1  0.65862563  0.30107517  0.07002135  1  -0.038062  0  -0.086312  -0.226121  0  3.881983  0
C  C55  1  0.61312491  0.36396532  0.04691598  1  1.54924  0  0.215833  0.638678  0  4.183125  0
C  C56  1  0.14777200  0.12446694  0.00404698  1  1.515433  0  0.218647  0.642447  0  4.183867  0
C  C57  1  0.21937621  0.18162922  0.98689756  1  -0.028424  0  -0.086967  -0.227538  0  3.878046  0
C  C58  1  0.19260152  0.22305344  0.02624923  1  -0.028201  0  -0.067235  -0.022883  0  4.001341  0
C  C59  1  0.26174136  0.28030134  0.00722693  1  -0.039363  0  -0.066964  -0.02173  0  3.997659  0
C  C60  1  0.23469426  0.32141853  0.04704200  1  -0.042879  0  -0.086413  -0.228309  0  3.875649  0
C  C61  1  0.30590611  0.37820936  0.03099665  1  1.520292  0  0.218561  0.643292  0  4.179198  0
C  C62  1  0.08678265  0.11111752  0.74111162  1  1.562723  0  0.21672  0.641588  0  4.17876  0
C  C63  1  0.12555729  0.16437098  0.62927673  1  -0.127548  0  -0.085742  -0.227743  0  3.875323  0
C  C64  1  0.20954969  0.21891008  0.57246322  1  0.069871  0  -0.067804  -0.023102  0  4.00604  0
C  C65  1  0.24595542  0.27458381  0.46491311  1  -0.009916  0  -0.068795  -0.024742  0  4.007206  0
C  C66  1  0.32940677  0.32953081  0.40865366  1  -0.110651  0  -0.084757  -0.224254  0  3.875898  0
C  C67  1  0.36741533  0.38428208  0.29729953  1  1.559091  0  0.216098  0.638284  0  4.181225  0
O  O68  1  0.97586992  0.00056823  0.01862079  1  -1.204342  0  -0.574763  -1.033146  0  2.543801  0
O  O69  1  0.87061582  0.96361185  0.24774957  1  -1.144952  0  -0.319817  -0.550385  0  2.282077  0
O  O70  1  0.87060906  0.85697875  0.25043409  1  -1.165432  0  -0.319349  -0.555516  0  2.31126  0
O  O71  1  0.57972666  0.54271037  0.78926937  1  -1.14353  0  -0.320677  -0.552031  0  2.283336  0
O  O72  1  0.57796381  0.64775622  0.79061542  1  -1.162785  0  -0.318869  -0.554718  0  2.305489  0
O  O73  1  0.80262735  0.95073128  0.98416242  1  -1.163973  0  -0.323363  -0.552453  0  2.280973  0
O  O74  1  0.85431403  0.85052636  0.07188194  1  -1.172236  0  -0.318095  -0.556478  0  2.299743  0
O  O75  1  0.64792241  0.55045155  0.05687847  1  -1.157784  0  -0.323744  -0.551478  0  2.283125  0
O  O76  1  0.59417140  0.65021366  0.97177359  1  -1.173908  0  -0.3172  -0.555038  0  2.299793  0
O  O77  1  0.17196743  0.95695507  0.92410461  1  -1.170749  0  -0.321014  -0.551245  0  2.291004  0
O  O78  1  0.05654054  0.85328161  0.07314098  1  -1.171094  0  -0.319626  -0.555384  0  2.294252  0
O  O79  1  0.27781792  0.53987073  0.12226765  1  -1.153311  0  -0.320688  -0.550895  0  2.286814  0
O  O80  1  0.39063041  0.64524207  0.97381180  1  -1.171152  0  -0.319453  -0.555451  0  2.29722  0
O  O81  1  0.86702720  0.12169483  0.91967752  1  -1.151932  0  -0.321509  -0.551107  0  2.292175  0
O  O82  1  0.85446424  0.11012825  0.06500714  1  -1.173123  0  -0.318353  -0.55504  0  2.295793  0
O  O83  1  0.58985998  0.38168886  0.11230167  1  -1.164555  0  -0.320363  -0.549063  0  2.293671  0
O  O84  1  0.60130892  0.39550115  0.96605691  1  -1.175663  0  -0.31866  -0.554628  0  2.290541  0
O  O85  1  0.18447744  0.09480640  0.95404796  1  -1.153114  0  -0.321863  -0.550597  0  2.288133  0
O  O86  1  0.05705487  0.10970110  0.06534699  1  -1.164909  0  -0.318622  -0.556509  0  2.309394  0
O  O87  1  0.26868801  0.40716635  0.08188486  1  -1.156182  0  -0.322382  -0.551347  0  2.286448  0
O  O88  1  0.39680819  0.39333181  0.96983416  1  -1.163978  0  -0.3185  -0.55672  0  2.305419  0
O  O89  1  0.99984291  0.06901888  0.78905905  1  -1.163927  0  -0.326002  -0.556496  0  2.2681  0
O  O90  1  0.14108736  0.11171267  0.78189573  1  -1.170421  0  -0.320459  -0.556212  0  2.305049  0
O  O91  1  0.45333242  0.42755644  0.25019835  1  -1.166427  0  -0.325624  -0.555206  0  2.269586  0
O  O92  1  0.31341333  0.38404677  0.25604811  1  -1.173648  0  -0.320181  -0.554617  0  2.301679  0
O  O93  1  0.47597842  0.50092809  0.02017299  1  -1.222935  0  -0.574183  -1.033565  0  2.544737  0
