# generated using pymatgen
data_CaH18(CO)10
_symmetry_space_group_name_H-M   'P 1'
_cell_length_a   12.16151458
_cell_length_b   11.65425042
_cell_length_c   11.65386663
_cell_angle_alpha   89.99907114
_cell_angle_beta   89.99973395
_cell_angle_gamma   89.99931876
_symmetry_Int_Tables_number   1
_chemical_formula_structural   CaH18(CO)10
_chemical_formula_sum   'Ca4 H72 C40 O40'
_cell_volume   1651.74139898
_cell_formula_units_Z   4
loop_
 _symmetry_equiv_pos_site_id
 _symmetry_equiv_pos_as_xyz
  1  'x, y, z'
loop_
 _atom_site_type_symbol
 _atom_site_label
 _atom_site_symmetry_multiplicity
 _atom_site_fract_x
 _atom_site_fract_y
 _atom_site_fract_z
 _atom_site_occupancy
 _atom_site_pbe_bader_charge
 _atom_site_pbe_bader_spin_density
 _atom_site_pbe_cm5_charge
 _atom_site_pbe_ddec_charge
 _atom_site_pbe_ddec_spin_density
 _atom_site_pbe_ddec_sum_bond_order
 _atom_site_pbe_magmom
Ca  Ca0  1  0.00000267  0.78186119  0.78185948  1  1.601376  0  0.840743  1.292671  0  1.551976  0
Ca  Ca1  1  0.49999410  0.21814242  0.21814136  1  1.601239  0  0.840699  1.292756  0  1.551783  0
Ca  Ca2  1  0.74999422  0.71813403  0.28186340  1  1.601276  0  0.840688  1.292738  0  1.551898  0
Ca  Ca3  1  0.25000936  0.28186331  0.71814095  1  1.601298  0  0.840647  1.292782  0  1.551811  0
H  H4  1  0.79397052  0.96914964  0.89928471  1  0.048021  0  0.122017  0.045883  0  0.946731  0
H  H5  1  0.29397276  0.03085836  0.10071093  1  0.048085  0  0.121985  0.045669  0  0.94674  0
H  H6  1  0.54396576  0.60071043  0.46914329  1  0.048098  0  0.122008  0.045784  0  0.94682  0
H  H7  1  0.04399209  0.39929783  0.53084540  1  0.048316  0  0.121993  0.045751  0  0.946698  0
H  H8  1  0.95601377  0.53085003  0.39928142  1  0.048164  0  0.122046  0.045883  0  0.946759  0
H  H9  1  0.45602401  0.46914241  0.60071199  1  0.048171  0  0.122024  0.045834  0  0.946861  0
H  H10  1  0.20603657  0.89926632  0.96914112  1  0.047882  0  0.122063  0.045826  0  0.946843  0
H  H11  1  0.70601579  0.10073496  0.03085823  1  0.048142  0  0.122024  0.045719  0  0.94683  0
H  H12  1  0.80405384  0.85893037  0.07665475  1  0.100028  0  0.117507  0.060007  0  1.093583  0
H  H13  1  0.30404482  0.14107837  0.92334085  1  0.099811  0  0.117531  0.060011  0  1.093759  0
H  H14  1  0.55403995  0.42333735  0.35892550  1  0.099738  0  0.117546  0.060031  0  1.09358  0
H  H15  1  0.05406589  0.57665449  0.64107775  1  0.100608  0  0.117547  0.059968  0  1.093665  0
H  H16  1  0.94595213  0.64106766  0.57664829  1  0.099984  0  0.117491  0.060048  0  1.093601  0
H  H17  1  0.44595082  0.35892832  0.42334258  1  0.100537  0  0.117501  0.06001  0  1.093727  0
H  H18  1  0.19596019  0.07663778  0.85892172  1  0.100117  0  0.117562  0.060066  0  1.09365  0
H  H19  1  0.69594254  0.92335417  0.14106478  1  0.100705  0  0.117557  0.060084  0  1.093456  0
H  H20  1  0.77672212  0.64537065  0.92653668  1  0.039333  0  0.107196  0.048025  0  1.046156  0
H  H21  1  0.27672792  0.35463240  0.07346501  1  0.039534  0  0.107231  0.048072  0  1.046196  0
H  H22  1  0.52670426  0.57346215  0.14536345  1  0.039558  0  0.107206  0.04803  0  1.046121  0
H  H23  1  0.02672007  0.42654288  0.85463302  1  0.039445  0  0.107195  0.048035  0  1.046135  0
H  H24  1  0.97327269  0.85462257  0.42653496  1  0.039325  0  0.107238  0.048071  0  1.04617  0
H  H25  1  0.47327395  0.14537139  0.57346440  1  0.039304  0  0.107226  0.04812  0  1.046146  0
H  H26  1  0.22330168  0.92653443  0.64535992  1  0.039483  0  0.107232  0.048078  0  1.046086  0
H  H27  1  0.72327352  0.07344520  0.35464194  1  0.03936  0  0.107226  0.048096  0  1.04613  0
H  H28  1  0.60388059  0.62058118  0.01766370  1  0.00341  0  0.09267  0.030482  0  0.98702  0
H  H29  1  0.10388635  0.37942040  0.98233510  1  0.003521  0  0.092655  0.030468  0  0.987163  0
H  H30  1  0.35386047  0.48233349  0.12059328  1  0.003797  0  0.092612  0.030477  0  0.98699  0
H  H31  1  0.85387710  0.51766955  0.87940560  1  0.00355  0  0.092667  0.030554  0  0.987192  0
H  H32  1  0.14611871  0.87940975  0.51765088  1  0.003494  0  0.092684  0.030584  0  0.986981  0
H  H33  1  0.64611798  0.12058791  0.48234608  1  0.003405  0  0.092667  0.03052  0  0.987153  0
H  H34  1  0.39613864  0.01766267  0.62059841  1  0.003551  0  0.092583  0.030467  0  0.987157  0
H  H35  1  0.89611718  0.98232358  0.37941321  1  0.003377  0  0.092691  0.030547  0  0.987061  0
H  H36  1  0.60104388  0.72994829  0.84854585  1  0.036061  0  0.094699  0.062398  0  0.982813  0
H  H37  1  0.10105190  0.27006276  0.15145296  1  0.035873  0  0.094677  0.062403  0  0.982865  0
H  H38  1  0.35103214  0.65145117  0.22994704  1  0.036161  0  0.094727  0.062466  0  0.98271  0
H  H39  1  0.85104906  0.34855018  0.77005357  1  0.036203  0  0.094672  0.062416  0  0.98269  0
H  H40  1  0.14895507  0.77004843  0.34853450  1  0.03593  0  0.094747  0.062449  0  0.982996  0
H  H41  1  0.64894950  0.22994577  0.65146331  1  0.035824  0  0.09469  0.062412  0  0.982921  0
H  H42  1  0.39897739  0.84853975  0.72995023  1  0.035936  0  0.094727  0.062367  0  0.98276  0
H  H43  1  0.89894714  0.15145076  0.27006567  1  0.035925  0  0.094687  0.062447  0  0.982854  0
H  H44  1  0.50793305  0.79928411  0.94522493  1  0.065393  0  0.107624  0.095751  0  0.999447  0
H  H45  1  0.00794250  0.20072971  0.05478447  1  0.065586  0  0.107568  0.09575  0  0.999449  0
H  H46  1  0.25792242  0.55477911  0.29929147  1  0.064976  0  0.107642  0.095763  0  0.999483  0
H  H47  1  0.75794924  0.44522930  0.70069998  1  0.065457  0  0.107596  0.095696  0  0.999523  0
H  H48  1  0.24206203  0.70069989  0.44522900  1  0.065444  0  0.107576  0.095724  0  0.99931  0
H  H49  1  0.74206359  0.29928382  0.55478310  1  0.065156  0  0.107643  0.095798  0  0.999416  0
H  H50  1  0.49207930  0.94522441  0.79930396  1  0.064863  0  0.107591  0.095744  0  0.999516  0
H  H51  1  0.99205761  0.05477243  0.20070978  1  0.065246  0  0.107582  0.095724  0  0.999396  0
H  H52  1  0.79856212  0.74748033  0.78608029  1  0.628752  0  0.285335  0.323002  0  1.041309  0
H  H53  1  0.29856916  0.25251989  0.21392134  1  0.628665  0  0.285366  0.3229  0  1.041048  0
H  H54  1  0.54856056  0.71389923  0.24747345  1  0.628614  0  0.285292  0.32294  0  1.041357  0
H  H55  1  0.04857955  0.28609782  0.75252123  1  0.628555  0  0.28536  0.323021  0  1.041278  0
H  H56  1  0.95142449  0.75252803  0.28608287  1  0.628576  0  0.285319  0.32294  0  1.041386  0
H  H57  1  0.45143926  0.24747218  0.71392171  1  0.628662  0  0.285302  0.32296  0  1.04136  0
H  H58  1  0.20144147  0.78608282  0.74747312  1  0.628747  0  0.285233  0.322653  0  1.041414  0
H  H59  1  0.70142206  0.21391421  0.25254511  1  0.628474  0  0.285246  0.322827  0  1.041505  0
H  H60  1  0.96586119  0.83920810  0.05126480  1  0.617634  0  0.338857  0.379634  0  0.877242  0
H  H61  1  0.46585506  0.16078079  0.94871485  1  0.61739  0  0.338816  0.379666  0  0.877204  0
H  H62  1  0.71585358  0.44874621  0.33922171  1  0.617825  0  0.338905  0.379736  0  0.877168  0
H  H63  1  0.21587560  0.55125753  0.66076644  1  0.617508  0  0.338893  0.379711  0  0.877042  0
H  H64  1  0.78414247  0.66078262  0.55128341  1  0.617335  0  0.338858  0.37972  0  0.87715  0
H  H65  1  0.28414208  0.33921605  0.44872084  1  0.617382  0  0.33887  0.379768  0  0.877097  0
H  H66  1  0.03414668  0.05123611  0.83921627  1  0.617903  0  0.339021  0.379904  0  0.877038  0
H  H67  1  0.53412777  0.94875253  0.16076816  1  0.617649  0  0.338887  0.379706  0  0.877147  0
H  H68  1  0.89148839  0.63193016  0.09327841  1  0.605381  0  0.333999  0.369325  0  0.890757  0
H  H69  1  0.39149228  0.36807588  0.90673237  1  0.605171  0  0.334025  0.369268  0  0.890807  0
H  H70  1  0.64148380  0.40672330  0.13193303  1  0.605445  0  0.333991  0.36933  0  0.890835  0
H  H71  1  0.14149007  0.59328128  0.86805965  1  0.605419  0  0.334109  0.369396  0  0.890686  0
H  H72  1  0.85850844  0.86805731  0.59326854  1  0.605388  0  0.33405  0.36928  0  0.890718  0
H  H73  1  0.35851580  0.13192594  0.40673548  1  0.605277  0  0.334027  0.369292  0  0.890892  0
H  H74  1  0.10851525  0.09326324  0.63193097  1  0.605236  0  0.334036  0.369384  0  0.890751  0
H  H75  1  0.60849890  0.90672027  0.36805838  1  0.6053  0  0.334022  0.36928  0  0.890693  0
C  C76  1  0.76425109  0.87996776  0.89787221  1  0.97465  0  0.081052  0.308435  0  3.951456  0
C  C77  1  0.26425304  0.12003971  0.10213038  1  0.974788  0  0.081173  0.3091  0  3.950798  0
C  C78  1  0.51423782  0.60213398  0.37996863  1  0.975182  0  0.081232  0.308924  0  3.950932  0
C  C79  1  0.01424965  0.39788835  0.62002873  1  0.974254  0  0.081136  0.308799  0  3.951564  0
C  C80  1  0.98574472  0.62002849  0.39787168  1  0.974255  0  0.08098  0.308355  0  3.951039  0
C  C81  1  0.48574865  0.37996275  0.60213194  1  0.974649  0  0.081036  0.308515  0  3.951471  0
C  C82  1  0.23577081  0.89786395  0.87996896  1  0.975638  0  0.081091  0.308606  0  3.951462  0
C  C83  1  0.73574289  0.10214214  0.12004059  1  0.974419  0  0.08101  0.308743  0  3.951131  0
C  C84  1  0.81638425  0.81225442  0.99638819  1  0.408963  0  -0.018437  0.029743  0  3.89469  0
C  C85  1  0.31638130  0.18775285  0.00360108  1  0.408989  0  -0.018447  0.029509  0  3.894508  0
C  C86  1  0.56637852  0.50360794  0.31225706  1  0.408855  0  -0.018426  0.029805  0  3.89437  0
C  C87  1  0.06638543  0.49639320  0.68775301  1  0.408967  0  -0.018475  0.029678  0  3.894745  0
C  C88  1  0.93361151  0.68774491  0.49638787  1  0.40914  0  -0.018427  0.029648  0  3.894974  0
C  C89  1  0.43361853  0.31225292  0.50360647  1  0.408891  0  -0.018399  0.029822  0  3.894288  0
C  C90  1  0.18361944  0.99637824  0.81225462  1  0.409315  0  -0.018527  0.029694  0  3.895103  0
C  C91  1  0.68360752  0.00361903  0.18774432  1  0.409278  0  -0.018441  0.029639  0  3.894584  0
C  C92  1  0.76460686  0.69407028  0.00636961  1  0.413996  0  -0.015761  0.08751  0  3.877875  0
C  C93  1  0.26460771  0.30594320  0.99362955  1  0.413768  0  -0.015885  0.08747  0  3.878212  0
C  C94  1  0.51460003  0.49363515  0.19407070  1  0.413599  0  -0.015688  0.087562  0  3.87778  0
C  C95  1  0.01460610  0.50637687  0.80593439  1  0.413879  0  -0.015821  0.087645  0  3.878056  0
C  C96  1  0.98538884  0.80592460  0.50636464  1  0.413836  0  -0.015797  0.087537  0  3.877854  0
C  C97  1  0.48539573  0.19406321  0.49363383  1  0.41416  0  -0.015824  0.087411  0  3.877939  0
C  C98  1  0.23540440  0.00636325  0.69406965  1  0.413427  0  -0.015771  0.08739  0  3.877759  0
C  C99  1  0.73538735  0.99362397  0.30593389  1  0.413928  0  -0.015956  0.087414  0  3.878124  0
C  C100  1  0.64066491  0.70751397  0.02864899  1  0.57753  0  -0.022233  0.159276  0  4.010369  0
C  C101  1  0.14067264  0.29249234  0.97134970  1  0.577601  0  -0.02216  0.159135  0  4.010945  0
C  C102  1  0.39065586  0.47134431  0.20752669  1  0.577419  0  -0.0222  0.159167  0  4.010234  0
C  C103  1  0.89066876  0.52866431  0.79247894  1  0.577104  0  -0.022215  0.158986  0  4.010691  0
C  C104  1  0.10933268  0.79247850  0.52864885  1  0.57762  0  -0.022249  0.158968  0  4.010451  0
C  C105  1  0.60932929  0.20751186  0.47135423  1  0.57764  0  -0.022224  0.159055  0  4.010752  0
C  C106  1  0.35934931  0.02864873  0.70753090  1  0.577761  0  -0.022128  0.159052  0  4.010523  0
C  C107  1  0.85932604  0.97134824  0.29248255  1  0.577802  0  -0.022203  0.159144  0  4.010363  0
C  C108  1  0.59465515  0.77904563  0.92955205  1  0.402651  0  -0.081426  -0.04641  0  3.887613  0
C  C109  1  0.09466097  0.22096034  0.07044507  1  0.402553  0  -0.081327  -0.046382  0  3.887815  0
C  C110  1  0.34464102  0.57044517  0.27905415  1  0.402696  0  -0.081532  -0.046487  0  3.887562  0
C  C111  1  0.84465970  0.42956311  0.72095420  1  0.402737  0  -0.081343  -0.046223  0  3.887433  0
C  C112  1  0.15534085  0.72095320  0.42954148  1  0.402848  0  -0.081434  -0.046363  0  3.887574  0
C  C113  1  0.65534667  0.27904693  0.57045116  1  0.402835  0  -0.081381  -0.046327  0  3.887547  0
C  C114  1  0.40536410  0.92954238  0.77905687  1  0.402805  0  -0.081431  -0.046298  0  3.887616  0
C  C115  1  0.90534090  0.07044892  0.22095730  1  0.402554  0  -0.081324  -0.046368  0  3.887406  0
O  O116  1  0.79294796  0.83521486  0.78884691  1  -1.176887  0  -0.421698  -0.567096  0  2.29508  0
O  O117  1  0.29295445  0.16479058  0.21114787  1  -1.17692  0  -0.421726  -0.566993  0  2.295413  0
O  O118  1  0.54293519  0.71115363  0.33521089  1  -1.176716  0  -0.421669  -0.567153  0  2.294973  0
O  O119  1  0.04294809  0.28886494  0.66478124  1  -1.176702  0  -0.421784  -0.567275  0  2.295201  0
O  O120  1  0.95704604  0.66479260  0.28884146  1  -1.17645  0  -0.421651  -0.566986  0  2.294633  0
O  O121  1  0.45704658  0.33520239  0.71114423  1  -1.176796  0  -0.421639  -0.567019  0  2.295183  0
O  O122  1  0.20706960  0.78884416  0.83520706  1  -1.176884  0  -0.42162  -0.566722  0  2.295486  0
O  O123  1  0.70704582  0.21115109  0.16480515  1  -1.176467  0  -0.421548  -0.566885  0  2.295029  0
O  O124  1  0.93460098  0.80470774  0.98202402  1  -1.150852  0  -0.414173  -0.527688  0  2.278911  0
O  O125  1  0.43460250  0.19528751  0.01795573  1  -1.150554  0  -0.414194  -0.5278  0  2.278712  0
O  O126  1  0.68459728  0.51797892  0.30470218  1  -1.150929  0  -0.414252  -0.527818  0  2.278862  0
O  O127  1  0.18460679  0.48203462  0.69529808  1  -1.150745  0  -0.414234  -0.527842  0  2.278651  0
O  O128  1  0.81539104  0.69528715  0.48203568  1  -1.15068  0  -0.414227  -0.527826  0  2.278817  0
O  O129  1  0.31538983  0.30470859  0.51796590  1  -1.150594  0  -0.414261  -0.52796  0  2.278613  0
O  O130  1  0.06541180  0.98201336  0.80468967  1  -1.151166  0  -0.41427  -0.527852  0  2.279301  0
O  O131  1  0.56539352  0.01797835  0.19529467  1  -1.15107  0  -0.414217  -0.527785  0  2.278933  0
O  O132  1  0.81143337  0.63091375  0.10067179  1  -1.133792  0  -0.422777  -0.521778  0  2.309492  0
O  O133  1  0.31144223  0.36909233  0.89932979  1  -1.133534  0  -0.422737  -0.521668  0  2.309739  0
O  O134  1  0.56143132  0.39933761  0.13090952  1  -1.133669  0  -0.422816  -0.521867  0  2.309483  0
O  O135  1  0.06144407  0.60067045  0.86908942  1  -1.133738  0  -0.422869  -0.521881  0  2.309535  0
O  O136  1  0.93856176  0.86908217  0.60066252  1  -1.133593  0  -0.42283  -0.521685  0  2.309468  0
O  O137  1  0.43856507  0.13091389  0.39933353  1  -1.133608  0  -0.422793  -0.521723  0  2.309657  0
O  O138  1  0.18856691  0.10066782  0.63090280  1  -1.133311  0  -0.422789  -0.521805  0  2.309155  0
O  O139  1  0.68856216  0.89932937  0.36908973  1  -1.133838  0  -0.422716  -0.521679  0  2.309575  0
O  O140  1  0.62012328  0.75297387  0.13761249  1  -1.20093  0  -0.473588  -0.705906  0  2.175564  0
O  O141  1  0.12012318  0.24702495  0.86239055  1  -1.200905  0  -0.473573  -0.705889  0  2.175682  0
O  O142  1  0.37011455  0.36238552  0.25299492  1  -1.201092  0  -0.473531  -0.705879  0  2.175401  0
O  O143  1  0.87012144  0.63762333  0.74700906  1  -1.200811  0  -0.473565  -0.705843  0  2.175457  0
O  O144  1  0.12987612  0.74702627  0.63761817  1  -1.20111  0  -0.473628  -0.705767  0  2.175527  0
O  O145  1  0.62987859  0.25297416  0.36239085  1  -1.200895  0  -0.473557  -0.705853  0  2.175824  0
O  O146  1  0.37988706  0.13761621  0.75298271  1  -1.20108  0  -0.473597  -0.705859  0  2.17573  0
O  O147  1  0.87986706  0.86238567  0.24701952  1  -1.200936  0  -0.473591  -0.70587  0  2.175595  0
O  O148  1  0.64893558  0.88859774  0.91656826  1  -1.060289  0  -0.231224  -0.276954  0  2.425703  0
O  O149  1  0.14894186  0.11140762  0.08343812  1  -1.060337  0  -0.23135  -0.277115  0  2.425626  0
O  O150  1  0.39892579  0.58342465  0.38860816  1  -1.060625  0  -0.231351  -0.277198  0  2.42562  0
O  O151  1  0.89894035  0.41657530  0.61139316  1  -1.060364  0  -0.231211  -0.277055  0  2.425634  0
O  O152  1  0.10106214  0.61139702  0.41656821  1  -1.060256  0  -0.231164  -0.276894  0  2.425529  0
O  O153  1  0.60106077  0.38860116  0.58343317  1  -1.060244  0  -0.231222  -0.276988  0  2.425569  0
O  O154  1  0.35107950  0.91656027  0.88860611  1  -1.060686  0  -0.231296  -0.277008  0  2.426108  0
O  O155  1  0.85105597  0.08344194  0.11140051  1  -1.060294  0  -0.231302  -0.27711  0  2.425466  0
