# generated using pymatgen
data_ZnH3C5O4
_symmetry_space_group_name_H-M   'P 1'
_cell_length_a   4.99070057
_cell_length_b   8.58497783
_cell_length_c   24.86889745
_cell_angle_alpha   95.06776327
_cell_angle_beta   89.99982544
_cell_angle_gamma   89.99985584
_symmetry_Int_Tables_number   1
_chemical_formula_structural   ZnH3C5O4
_chemical_formula_sum   'Zn8 H24 C40 O32'
_cell_volume   1061.34408929
_cell_formula_units_Z   8
loop_
 _symmetry_equiv_pos_site_id
 _symmetry_equiv_pos_as_xyz
  1  'x, y, z'
loop_
 _atom_site_type_symbol
 _atom_site_label
 _atom_site_symmetry_multiplicity
 _atom_site_fract_x
 _atom_site_fract_y
 _atom_site_fract_z
 _atom_site_occupancy
 _atom_site_pbe_bader_spin_density
 _atom_site_pbe_cm5_charge
 _atom_site_pbe_ddec_charge
 _atom_site_pbe_ddec_spin_density
 _atom_site_pbe_ddec_sum_bond_order
 _atom_site_pbe_magmom
Zn  Zn0  1  0.64288720  0.67682732  0.40161751  1  0  0.710115  0.979895  0  2.285153  0
Zn  Zn1  1  0.14289032  0.32317571  0.09838174  1  0  0.710122  0.979894  0  2.285225  0
Zn  Zn2  1  0.35711697  0.32317472  0.59838505  1  0  0.710157  0.98  0  2.285024  0
Zn  Zn3  1  0.85712387  0.67682868  0.90161527  1  0  0.710126  0.979925  0  2.285226  0
Zn  Zn4  1  0.71749750  0.40120524  0.27754677  1  0  0.657222  0.988136  0  2.283688  0
Zn  Zn5  1  0.21749955  0.59880937  0.22245158  1  0  0.657161  0.988059  0  2.283774  0
Zn  Zn6  1  0.28250066  0.59879563  0.72245334  1  0  0.657219  0.988108  0  2.283707  0
Zn  Zn7  1  0.78249861  0.40119735  0.77755072  1  0  0.657208  0.988146  0  2.283676  0
H  H8  1  0.25656069  0.38669444  0.48241707  1  0  0.110001  0.119704  0  1.009013  0
H  H9  1  0.75656567  0.61330841  0.01758211  1  0  0.110002  0.119687  0  1.009028  0
H  H10  1  0.74343546  0.61331228  0.51758604  1  0  0.110021  0.119733  0  1.008942  0
H  H11  1  0.24344050  0.38668195  0.98241366  1  0  0.109996  0.119692  0  1.008969  0
H  H12  1  0.65963326  0.02091062  0.46785382  1  0  0.112522  0.134098  0  1.021978  0
H  H13  1  0.15962854  0.97909240  0.03214582  1  0  0.112542  0.134116  0  1.021943  0
H  H14  1  0.34037492  0.97908791  0.53215024  1  0  0.112565  0.134088  0  1.021959  0
H  H15  1  0.84038364  0.02090381  0.96784973  1  0  0.112555  0.134119  0  1.022034  0
H  H16  1  0.15999283  0.10389228  0.33226075  1  0  0.110283  0.13024  0  1.027014  0
H  H17  1  0.65999431  0.89610840  0.16773882  1  0  0.110256  0.130227  0  1.026925  0
H  H18  1  0.84000132  0.89610859  0.66774419  1  0  0.11025  0.130183  0  1.02709  0
H  H19  1  0.34000785  0.10388664  0.83225870  1  0  0.110239  0.130197  0  1.02712  0
H  H20  1  0.65137310  0.03492775  0.30482118  1  0  0.115598  0.11772  0  1.004793  0
H  H21  1  0.15136997  0.96507878  0.19517777  1  0  0.115581  0.117599  0  1.004963  0
H  H22  1  0.34862105  0.96507663  0.69518306  1  0  0.115598  0.117691  0  1.004804  0
H  H23  1  0.84862417  0.03491977  0.80481463  1  0  0.11557  0.117642  0  1.004864  0
H  H24  1  0.91596144  0.89639781  0.29161847  1  0  0.116162  0.1181  0  0.972237  0
H  H25  1  0.41596184  0.10360361  0.20838178  1  0  0.11616  0.118105  0  0.972193  0
H  H26  1  0.08403070  0.10360658  0.70838337  1  0  0.116171  0.118049  0  0.972324  0
H  H27  1  0.58403231  0.89638674  0.79161721  1  0  0.116174  0.118069  0  0.972255  0
H  H28  1  0.10436849  0.57023347  0.31584532  1  0  0.284462  0.38165  0  0.948337  0
H  H29  1  0.60436573  0.42977314  0.18415367  1  0  0.28442  0.381635  0  0.948368  0
H  H30  1  0.89563567  0.42976975  0.68415487  1  0  0.284475  0.381672  0  0.948313  0
H  H31  1  0.39563643  0.57023708  0.81584834  1  0  0.284498  0.381736  0  0.948201  0
C  C32  1  0.23344657  0.25012931  0.40562584  1  0  -0.015611  -0.016485  0  3.958759  0
C  C33  1  0.73344580  0.74987475  0.09437339  1  0  -0.015634  -0.016513  0  3.958977  0
C  C34  1  0.76653756  0.74987389  0.59437836  1  0  -0.015625  -0.016605  0  3.9593  0
C  C35  1  0.26654034  0.25011561  0.90562359  1  0  -0.015708  -0.016691  0  3.959191  0
C  C36  1  0.15912585  0.28897152  0.45945428  1  0  -0.074137  -0.097264  0  3.910517  0
C  C37  1  0.65913007  0.71102915  0.04054569  1  0  -0.074128  -0.09718  0  3.910553  0
C  C38  1  0.84086228  0.71103519  0.54055003  1  0  -0.074192  -0.097344  0  3.91069  0
C  C39  1  0.34086809  0.28896004  0.95945165  1  0  -0.074165  -0.097253  0  3.910677  0
C  C40  1  0.95209269  0.20664259  0.48197423  1  0  -0.016324  -0.029004  0  3.991074  0
C  C41  1  0.45209700  0.79336111  0.01802485  1  0  -0.016306  -0.029033  0  3.99104  0
C  C42  1  0.04789745  0.79335828  0.51802990  1  0  -0.016245  -0.028915  0  3.990861  0
C  C43  1  0.54790516  0.20663509  0.98197070  1  0  -0.016238  -0.028893  0  3.990858  0
C  C44  1  0.82383664  0.08443045  0.45112099  1  0  -0.085118  -0.188311  0  3.931344  0
C  C45  1  0.32383395  0.91556996  0.04887847  1  0  -0.085092  -0.188264  0  3.931427  0
C  C46  1  0.17616552  0.91556691  0.54888304  1  0  -0.085105  -0.188206  0  3.93113  0
C  C47  1  0.67617623  0.08442508  0.95111704  1  0  -0.085111  -0.188315  0  3.93128  0
C  C48  1  0.90312259  0.04470244  0.39806350  1  0  0.080833  0.258639  0  4.033838  0
C  C49  1  0.40311291  0.95529549  0.10193745  1  0  0.0808  0.258564  0  4.033732  0
C  C50  1  0.09688358  0.95529492  0.60194133  1  0  0.080894  0.258645  0  4.033372  0
C  C51  1  0.59688925  0.04469604  0.89805956  1  0  0.08082  0.258592  0  4.033493  0
C  C52  1  0.10485791  0.12801834  0.37449745  1  0  -0.08879  -0.192835  0  3.900281  0
C  C53  1  0.60485613  0.87197891  0.12550165  1  0  -0.08881  -0.192871  0  3.900267  0
C  C54  1  0.89514425  0.87198135  0.62550745  1  0  -0.088802  -0.192778  0  3.900242  0
C  C55  1  0.39514403  0.12801028  0.87449409  1  0  -0.0887  -0.192675  0  3.900276  0
C  C56  1  0.44331490  0.34392847  0.38001865  1  0  0.226889  0.607225  0  4.159478  0
C  C57  1  0.94332415  0.65607759  0.11997850  1  0  0.22682  0.607042  0  4.159545  0
C  C58  1  0.55668526  0.65607591  0.61998599  1  0  0.226817  0.607102  0  4.159766  0
C  C59  1  0.05668803  0.34391394  0.88001650  1  0  0.226805  0.607138  0  4.159262  0
C  C60  1  0.84118590  0.25500102  0.53679658  1  0  0.231086  0.614925  0  4.125058  0
C  C61  1  0.34119168  0.74500474  0.96320221  1  0  0.231056  0.614963  0  4.124878  0
C  C62  1  0.15880625  0.74499868  0.46320591  1  0  0.231028  0.614949  0  4.125013  0
C  C63  1  0.65881449  0.25499731  0.03679513  1  0  0.230965  0.614848  0  4.125262  0
C  C64  1  0.72890932  0.92086446  0.31433445  1  0  -0.065716  -0.132495  0  3.860435  0
C  C65  1  0.22890817  0.07914077  0.18566522  1  0  -0.065655  -0.132286  0  3.86049  0
C  C66  1  0.27108883  0.07913758  0.68566892  1  0  -0.06569  -0.132305  0  3.860518  0
C  C67  1  0.77109400  0.92085894  0.81433084  1  0  -0.065636  -0.132194  0  3.860467  0
C  C68  1  0.53155868  0.79233823  0.29705447  1  0  0.223876  0.630099  0  4.122887  0
C  C69  1  0.03155470  0.20766732  0.20294492  1  0  0.223804  0.629883  0  4.123003  0
C  C70  1  0.46843747  0.20766848  0.70294904  1  0  0.223812  0.630047  0  4.122937  0
C  C71  1  0.96844345  0.79233005  0.79705026  1  0  0.223822  0.629916  0  4.122969  0
O  O72  1  0.48673010  0.30784700  0.32961985  1  0  -0.315288  -0.559691  0  2.381206  0
O  O73  1  0.98675447  0.69216834  0.17037595  1  0  -0.315255  -0.559637  0  2.38138  0
O  O74  1  0.51327607  0.69215737  0.67038439  1  0  -0.315276  -0.559519  0  2.381017  0
O  O75  1  0.01323367  0.30781383  0.82962118  1  0  -0.315296  -0.559617  0  2.381007  0
O  O76  1  0.98522503  0.56445641  0.28465597  1  0  -0.587777  -0.868773  0  2.188636  0
O  O77  1  0.48522990  0.43555776  0.21534261  1  0  -0.587738  -0.868753  0  2.188645  0
O  O78  1  0.01477312  0.43554329  0.71534531  1  0  -0.5878  -0.868818  0  2.188627  0
O  O79  1  0.51477226  0.56444896  0.78465889  1  0  -0.587831  -0.868888  0  2.188606  0
O  O80  1  0.56162849  0.45096416  0.40933723  1  0  -0.316106  -0.562406  0  2.37864  0
O  O81  1  0.06163476  0.54903784  0.09066044  1  0  -0.316073  -0.562274  0  2.378536  0
O  O82  1  0.43836766  0.54903553  0.59066808  1  0  -0.31605  -0.562366  0  2.378762  0
O  O83  1  0.93840146  0.45097358  0.90933236  1  0  -0.315993  -0.562359  0  2.378627  0
O  O84  1  0.59380182  0.22167044  0.54255413  1  0  -0.306766  -0.545891  0  2.385988  0
O  O85  1  0.09380554  0.77833222  0.95744633  1  0  -0.306745  -0.545877  0  2.386036  0
O  O86  1  0.40618632  0.77832926  0.45744837  1  0  -0.306743  -0.54592  0  2.385844  0
O  O87  1  0.90619462  0.22166750  0.04255134  1  0  -0.306693  -0.545846  0  2.385998  0
O  O88  1  0.97912801  0.32868860  0.57393088  1  0  -0.316825  -0.562442  0  2.367044  0
O  O89  1  0.47913267  0.67132162  0.92606636  1  0  -0.316807  -0.562449  0  2.366909  0
O  O90  1  0.02086614  0.67131461  0.42607052  1  0  -0.316772  -0.562369  0  2.367032  0
O  O91  1  0.52087149  0.32868161  0.07392900  1  0  -0.316752  -0.562366  0  2.367225  0
O  O92  1  0.43150293  0.79591143  0.25043170  1  0  -0.301623  -0.538667  0  2.305671  0
O  O93  1  0.93149014  0.20409581  0.24956791  1  0  -0.301578  -0.538583  0  2.305638  0
O  O94  1  0.56848921  0.20409646  0.74957145  1  0  -0.301585  -0.538694  0  2.305719  0
O  O95  1  0.06849600  0.79590157  0.75042767  1  0  -0.301604  -0.538665  0  2.305752  0
O  O96  1  0.47604542  0.68799903  0.32889108  1  0  -0.305733  -0.572583  0  2.429239  0
O  O97  1  0.97603935  0.31200580  0.17110842  1  0  -0.305751  -0.572578  0  2.429275  0
O  O98  1  0.52395073  0.31200417  0.67111353  1  0  -0.305722  -0.572615  0  2.429295  0
O  O99  1  0.02395880  0.68799275  0.82888639  1  0  -0.305728  -0.572542  0  2.429243  0
O  O100  1  0.76900346  0.92012717  0.37127370  1  0  -0.183246  -0.213608  0  2.683815  0
O  O101  1  0.26900317  0.07987566  0.12872587  1  0  -0.183231  -0.213566  0  2.683719  0
O  O102  1  0.23099870  0.07987720  0.62873015  1  0  -0.183338  -0.213726  0  2.683785  0
O  O103  1  0.73101302  0.92012055  0.87127007  1  0  -0.183295  -0.213686  0  2.683781  0
