# generated using pymatgen
data_ZnH16(CN)10
_symmetry_space_group_name_H-M   'P 1'
_cell_length_a   8.52062998
_cell_length_b   8.88032616
_cell_length_c   8.93687651
_cell_angle_alpha   89.99949942
_cell_angle_beta   90.00009018
_cell_angle_gamma   95.95777691
_symmetry_Int_Tables_number   1
_chemical_formula_structural   ZnH16(CN)10
_chemical_formula_sum   'Zn2 H32 C20 N20'
_cell_volume   672.56497613
_cell_formula_units_Z   2
loop_
 _symmetry_equiv_pos_site_id
 _symmetry_equiv_pos_as_xyz
  1  'x, y, z'
loop_
 _atom_site_type_symbol
 _atom_site_label
 _atom_site_symmetry_multiplicity
 _atom_site_fract_x
 _atom_site_fract_y
 _atom_site_fract_z
 _atom_site_occupancy
 _atom_site_pbe_bader_spin_density
 _atom_site_pbe_cm5_charge
 _atom_site_pbe_ddec_charge
 _atom_site_pbe_ddec_spin_density
 _atom_site_pbe_ddec_sum_bond_order
 _atom_site_pbe_magmom
Zn  Zn0  1  0.24095591  0.92621839  0.16779975  1  0  0.691048  0.578883  0  2.451797  0
Zn  Zn1  1  0.75904579  0.07378213  0.66779843  1  0  0.69105  0.578936  0  2.451769  0
H  H2  1  0.80954640  0.29449658  0.48010330  1  0  0.291703  0.225923  0  1.023062  0
H  H3  1  0.19045800  0.70550236  0.98010685  1  0  0.2917  0.22591  0  1.023111  0
H  H4  1  0.75200497  0.30145628  0.84860334  1  0  0.289782  0.218653  0  1.040445  0
H  H5  1  0.24799569  0.69854267  0.34860664  1  0  0.289774  0.218645  0  1.040468  0
H  H6  1  0.94984255  0.19973933  0.31009251  1  0  0.112831  0.072449  0  0.996436  0
H  H7  1  0.05015444  0.80025882  0.81009839  1  0  0.112839  0.072476  0  0.996415  0
H  H8  1  0.60188197  0.20103480  0.02331980  1  0  0.112434  0.070169  0  0.998112  0
H  H9  1  0.39811833  0.79896586  0.52332172  1  0  0.11243  0.07017  0  0.998102  0
H  H10  1  0.50722215  0.32379513  0.62185829  1  0  0.096172  0.067724  0  1.018759  0
H  H11  1  0.49277976  0.67620806  0.12185991  1  0  0.096176  0.067724  0  1.01875  0
H  H12  1  0.65909540  0.46363414  0.67906906  1  0  0.10633  0.086163  0  0.984271  0
H  H13  1  0.34090420  0.53636854  0.17907279  1  0  0.106324  0.08615  0  0.984306  0
H  H14  1  0.05036508  0.33776018  0.71363381  1  0  0.09587  0.069308  0  1.015675  0
H  H15  1  0.94964123  0.66223882  0.21364294  1  0  0.095859  0.069267  0  1.015686  0
H  H16  1  0.93056221  0.47142918  0.63693146  1  0  0.104151  0.081876  0  0.996632  0
H  H17  1  0.06944028  0.52856822  0.13694046  1  0  0.104107  0.081755  0  0.99672  0
H  H18  1  0.52290894  0.50290566  0.91578572  1  0  0.091156  0.088645  0  1.014158  0
H  H19  1  0.47709189  0.49709384  0.41579223  1  0  0.091167  0.088633  0  1.014146  0
H  H20  1  0.36469401  0.48549267  0.78779242  1  0  0.093267  0.094622  0  1.006181  0
H  H21  1  0.63530826  0.51451134  0.28779789  1  0  0.093228  0.094577  0  1.006201  0
H  H22  1  0.08732586  0.49773463  0.41055074  1  0  0.090742  0.080887  0  1.031798  0
H  H23  1  0.91267026  0.50226490  0.91055935  1  0  0.090709  0.080897  0  1.031725  0
H  H24  1  0.23580395  0.48729134  0.54844695  1  0  0.094072  0.095701  0  0.996115  0
H  H25  1  0.76419062  0.51271021  0.04846046  1  0  0.094097  0.095722  0  0.99609  0
H  H26  1  0.30307753  0.21564265  0.84415328  1  0  0.089903  0.091946  0  0.988252  0
H  H27  1  0.69692219  0.78435859  0.34415650  1  0  0.08991  0.091938  0  0.988262  0
H  H28  1  0.35111957  0.28911133  0.02438448  1  0  0.093758  0.091594  0  1.040497  0
H  H29  1  0.64888097  0.71089158  0.52438530  1  0  0.093748  0.091585  0  1.040489  0
H  H30  1  0.24128288  0.21413799  0.50565466  1  0  0.09094  0.093515  0  0.983273  0
H  H31  1  0.75871870  0.78586395  0.00566355  1  0  0.090924  0.093506  0  0.983374  0
H  H32  1  0.22188910  0.28092558  0.32060760  1  0  0.095724  0.094346  0  1.038164  0
H  H33  1  0.77811295  0.71907588  0.82061637  1  0  0.09569  0.094295  0  1.038186  0
C  C34  1  0.00155653  0.01766074  0.44951828  1  0  0.219398  0.248461  0  3.982051  0
C  C35  1  0.99844114  0.98233053  0.94952173  1  0  0.219303  0.24837  0  3.982071  0
C  C36  1  0.50310582  0.02014829  0.88545282  1  0  0.219764  0.24909  0  3.976935  0
C  C37  1  0.49689405  0.97985373  0.38545293  1  0  0.219741  0.249024  0  3.977063  0
C  C38  1  0.99981001  0.18345697  0.42176698  1  0  0.012527  0.066219  0  3.801288  0
C  C39  1  0.00018823  0.81654021  0.92177264  1  0  0.01263  0.066394  0  3.801435  0
C  C40  1  0.54308290  0.18556028  0.91397552  1  0  0.012163  0.067847  0  3.795392  0
C  C41  1  0.45691440  0.81443923  0.41397701  1  0  0.012178  0.067819  0  3.79541  0
C  C42  1  0.57181993  0.37325101  0.71953655  1  0  -0.075098  -0.018  0  3.872001  0
C  C43  1  0.42817699  0.62674793  0.21953962  1  0  -0.075104  -0.018002  0  3.871926  0
C  C44  1  0.00143370  0.37883967  0.60925932  1  0  -0.075819  -0.019366  0  3.864856  0
C  C45  1  0.99856864  0.62115685  0.10926776  1  0  -0.075756  -0.019105  0  3.864722  0
C  C46  1  0.45855432  0.42516688  0.83612731  1  0  -0.167455  -0.176128  0  3.942505  0
C  C47  1  0.54144422  0.57483444  0.33612988  1  0  -0.167406  -0.176042  0  3.942413  0
C  C48  1  0.13200543  0.42470942  0.49648603  1  0  -0.167037  -0.170437  0  3.933614  0
C  C49  1  0.86799088  0.57529049  0.99649619  1  0  -0.167032  -0.170526  0  3.933702  0
C  C50  1  0.39756286  0.27602203  0.91151555  1  0  -0.163877  -0.191562  0  3.879207  0
C  C51  1  0.60243574  0.72397863  0.41151692  1  0  -0.163872  -0.191525  0  3.879149  0
C  C52  1  0.16513385  0.27252233  0.43053303  1  0  -0.163442  -0.192368  0  3.885438  0
C  C53  1  0.83486605  0.72747930  0.93054293  1  0  -0.163395  -0.192346  0  3.885772  0
N  N54  1  0.91696449  0.94396875  0.55858212  1  0  -0.241901  -0.25033  0  3.505944  0
N  N55  1  0.08303664  0.05602820  0.05858293  1  0  -0.241873  -0.25032  0  3.505925  0
N  N56  1  0.57168617  0.94655288  0.77615787  1  0  -0.242776  -0.251166  0  3.509079  0
N  N57  1  0.42831350  0.05344896  0.27615697  1  0  -0.242745  -0.251106  0  3.509199  0
N  N58  1  0.39331161  0.92524967  0.95411486  1  0  -0.231788  -0.265442  0  3.368371  0
N  N59  1  0.60668819  0.07475062  0.45411516  1  0  -0.231828  -0.265533  0  3.368396  0
N  N60  1  0.08797978  0.92198809  0.37829378  1  0  -0.232281  -0.264066  0  3.377627  0
N  N61  1  0.91202066  0.07800834  0.87829041  1  0  -0.232269  -0.264087  0  3.377546  0
N  N62  1  0.90078955  0.25272040  0.53661658  1  0  -0.474378  -0.339374  0  3.361072  0
N  N63  1  0.09921298  0.74727901  0.03662148  1  0  -0.474387  -0.339393  0  3.360964  0
N  N64  1  0.50138498  0.80307616  0.77570414  1  0  -0.093845  -0.075114  0  3.277967  0
N  N65  1  0.49861351  0.19692569  0.27570098  1  0  -0.093848  -0.075136  0  3.277959  0
N  N66  1  0.39493548  0.79064871  0.88198622  1  0  -0.101574  -0.101939  0  3.32568  0
N  N67  1  0.60506322  0.20935334  0.38198423  1  0  -0.101546  -0.101818  0  3.325438  0
N  N68  1  0.95319057  0.79934517  0.55618037  1  0  -0.09756  -0.08335  0  3.26905  0
N  N69  1  0.04681174  0.20065180  0.05617427  1  0  -0.097536  -0.083317  0  3.269253  0
N  N70  1  0.05532447  0.78659855  0.44848777  1  0  -0.099303  -0.093857  0  3.321816  0
N  N71  1  0.94467954  0.21339727  0.94848104  1  0  -0.09936  -0.093896  0  3.321867  0
N  N72  1  0.65262229  0.25364474  0.79492924  1  0  -0.47561  -0.341589  0  3.369084  0
N  N73  1  0.34737845  0.74635581  0.29493115  1  0  -0.475616  -0.341577  0  3.369161  0
