# generated using pymatgen
data_Zr6H37C50N7O32
_symmetry_space_group_name_H-M   'P 1'
_cell_length_a   14.76852159
_cell_length_b   14.79634636
_cell_length_c   14.81060992
_cell_angle_alpha   60.28427361
_cell_angle_beta   60.01455068
_cell_angle_gamma   60.03818792
_symmetry_Int_Tables_number   1
_chemical_formula_structural   Zr6H37C50N7O32
_chemical_formula_sum   'Zr6 H37 C50 N7 O32'
_cell_volume   2294.28575406
_cell_formula_units_Z   1
loop_
 _symmetry_equiv_pos_site_id
 _symmetry_equiv_pos_as_xyz
  1  'x, y, z'
loop_
 _atom_site_type_symbol
 _atom_site_label
 _atom_site_symmetry_multiplicity
 _atom_site_fract_x
 _atom_site_fract_y
 _atom_site_fract_z
 _atom_site_occupancy
 _atom_site_pbe_bader_charge
 _atom_site_pbe_bader_spin_density
 _atom_site_pbe_cm5_charge
 _atom_site_pbe_ddec_charge
 _atom_site_pbe_ddec_spin_density
 _atom_site_pbe_ddec_sum_bond_order
 _atom_site_pbe_magmom
Zr  Zr0  1  0.87657947  0.88258972  0.61855128  1  2.637008  0  1.627581  2.371456  0  2.748916  0
Zr  Zr1  1  0.11746061  0.11725204  0.38317568  1  2.62403  0  1.630268  2.357022  0  2.809793  0
Zr  Zr2  1  0.11541095  0.88195477  0.61854760  1  2.629903  0  1.628281  2.363433  0  2.785392  0
Zr  Zr3  1  0.87841871  0.12182204  0.37884931  1  2.637286  0  1.628284  2.372443  0  2.750861  0
Zr  Zr4  1  0.11564453  0.88219406  0.37953201  1  2.635487  0  1.625087  2.367716  0  2.765266  0
Zr  Zr5  1  0.87759261  0.12171607  0.61793276  1  2.630019  0  1.625917  2.367917  0  2.766215  0
H  H6  1  0.08969927  0.71985302  0.59324871  1  0.598829  0  0.332705  0.424918  0  0.854327  0
H  H7  1  0.09312882  0.09369087  0.21842096  1  0.610737  0  0.332434  0.42436  0  0.854892  0
H  H8  1  0.09175931  0.09342179  0.59496832  1  0.623362  0  0.333729  0.427531  0  0.852168  0
H  H9  1  0.71429538  0.09741749  0.59218895  1  0.60313  0  0.331114  0.422301  0  0.858241  0
H  H10  1  0.84763656  0.58642224  0.64364559  1  0.115452  0  0.100367  0.107601  0  1.018035  0
H  H11  1  0.13789162  0.59374903  0.35365007  1  0.068632  0  0.105073  0.117541  0  1.009033  0
H  H12  1  0.85557936  0.41495453  0.63908001  1  0.084441  0  0.101825  0.104924  0  1.006766  0
H  H13  1  0.58251711  0.85367981  0.91850000  1  0.070402  0  0.101882  0.108185  0  1.014718  0
H  H14  1  0.59740832  0.13531531  0.92019170  1  0.071967  0  0.104427  0.116356  0  1.01328  0
H  H15  1  0.41264892  0.85949505  0.08837396  1  0.076596  0  0.102619  0.105818  0  1.006846  0
H  H16  1  0.14076559  0.85292705  0.08362448  1  0.111464  0  0.100331  0.107908  0  1.011538  0
H  H17  1  0.84592623  0.13820860  0.09679793  1  0.078107  0  0.106073  0.117583  0  1.009492  0
H  H18  1  0.13404645  0.85788835  0.91495264  1  0.066385  0  0.100267  0.102483  0  1.012232  0
H  H19  1  0.58321059  0.42449071  0.64056975  1  0.072801  0  0.100102  0.108854  0  1.010656  0
H  H20  1  0.59606450  0.41862809  0.34734550  1  0.118662  0  0.105995  0.116857  0  1.013493  0
H  H21  1  0.41092150  0.59156283  0.63670606  1  0.060085  0  0.100472  0.102903  0  1.014425  0
H  H22  1  0.74410623  0.63113639  0.95877757  1  0.038489  0  0.090107  0.097814  0  0.997851  0
H  H23  1  0.83116901  0.54075653  0.87842164  1  0.039361  0  0.089999  0.096468  0  0.995385  0
H  H24  1  0.82615450  0.37634324  0.05250443  1  0.033805  0  0.087748  0.09264  0  0.999946  0
H  H25  1  0.74217176  0.46643873  0.13318470  1  0.026532  0  0.08775  0.092652  0  1.003367  0
H  H26  1  0.58082140  0.14581047  0.35054535  1  0.063107  0  0.100654  0.11002  0  1.009685  0
H  H27  1  0.59708094  0.85195037  0.63355561  1  0.080791  0  0.107758  0.121151  0  1.002267  0
H  H28  1  0.40908184  0.13957346  0.36020488  1  0.07703  0  0.099733  0.101219  0  1.014828  0
H  H29  1  0.16057135  0.35808842  0.31852511  1  0.489054  0  0.299472  0.306762  0  0.99715  0
H  H30  1  0.20724696  0.46801005  0.26340020  1  0.434457  0  0.306104  0.2968  0  0.949753  0
H  H31  1  0.36957220  0.14886084  0.17491112  1  0.494792  0  0.300817  0.307588  0  0.988098  0
H  H32  1  0.48133828  0.19287071  0.07529492  1  0.429592  0  0.307277  0.298413  0  0.943923  0
H  H33  1  0.82264464  0.17081108  0.84977382  1  0.490767  0  0.302234  0.311025  0  0.994271  0
H  H34  1  0.77668072  0.22872206  0.94961441  1  0.431647  0  0.308614  0.299015  0  0.946428  0
H  H35  1  0.35650084  0.66462904  0.31478940  1  0.489637  0  0.303823  0.312796  0  0.99055  0
H  H36  1  0.46894007  0.56330396  0.25789616  1  0.454079  0  0.310867  0.302335  0  0.944644  0
H  H37  1  0.35892266  0.81562691  0.66012625  1  0.503889  0  0.303749  0.312937  0  0.988876  0
H  H38  1  0.47128184  0.76057390  0.70516490  1  0.40827  0  0.3129  0.304912  0  0.939303  0
H  H39  1  0.18334886  0.33010670  0.13552252  1  0.484648  0  0.291802  0.297677  0  1.003312  0
H  H40  1  0.24895116  0.41171589  0.01384990  1  0.430043  0  0.294807  0.280766  0  0.970971  0
H  H41  1  0.15047576  0.67291707  0.85929833  1  0.495737  0  0.297263  0.303655  0  0.99631  0
H  H42  1  0.18687588  0.58304588  0.97608240  1  0.41781  0  0.296803  0.282353  0  0.96836  0
C  C43  1  0.99171828  0.70142839  0.49696706  1  1.544081  0  0.238017  0.643858  0  4.08397  0
C  C44  1  0.30832930  0.99691221  0.19967781  1  1.504909  0  0.230891  0.648843  0  4.089786  0
C  C45  1  0.99721793  0.30766456  0.49724779  1  1.506231  0  0.231069  0.649143  0  4.082867  0
C  C46  1  0.69697814  0.99785096  0.80630749  1  1.559576  0  0.239738  0.64663  0  4.079673  0
C  C47  1  0.99334100  0.70215042  0.80703973  1  1.51099  0  0.233404  0.654553  0  4.089336  0
C  C48  1  0.69795873  0.00019341  0.49238199  1  1.535019  0  0.240184  0.646176  0  4.081986  0
C  C49  1  0.99899857  0.30606210  0.19812790  1  1.492846  0  0.233202  0.655178  0  4.086718  0
C  C50  1  0.30646669  0.99467167  0.49883454  1  1.510339  0  0.230974  0.649448  0  4.085772  0
C  C51  1  0.30526373  0.69920359  0.49413021  1  1.487472  0  0.231946  0.651383  0  4.078791  0
C  C52  1  0.99148620  0.99843964  0.80895438  1  1.513463  0  0.231045  0.648283  0  4.082775  0
C  C53  1  0.69895619  0.31077479  0.49479504  1  1.533848  0  0.239573  0.646695  0  4.078532  0
C  C54  1  0.99497210  0.99726297  0.19842379  1  1.537148  0  0.238734  0.644138  0  4.08196  0
C  C55  1  0.99982496  0.40748248  0.49478657  1  -0.039939  0  -0.030736  -0.168926  0  3.911607  0
C  C56  1  0.99295418  0.59959178  0.49753219  1  -0.082601  0  -0.014978  -0.00861  0  4.004491  0
C  C57  1  0.08206660  0.45775769  0.41166586  1  0.451734  0  0.114326  0.31401  0  4.054391  0
C  C58  1  0.91211537  0.54982866  0.57994790  1  -0.001224  0  -0.107829  -0.148393  0  4.032734  0
C  C59  1  0.07589766  0.55399005  0.41582051  1  -0.005816  0  -0.09599  -0.214699  0  3.925427  0
C  C60  1  0.91690120  0.45542279  0.57719617  1  0.005449  0  -0.086617  -0.072237  0  4.030323  0
C  C61  1  0.40939302  0.99904839  0.10062168  1  -0.043504  0  -0.029784  -0.16742  0  3.915394  0
C  C62  1  0.59860228  0.99557084  0.90979424  1  -0.093246  0  -0.013764  -0.008298  0  3.995994  0
C  C63  1  0.46220288  0.07841315  0.05428816  1  0.471431  0  0.110765  0.307513  0  4.047672  0
C  C64  1  0.54802677  0.91576410  0.95670837  1  0.069566  0  -0.103066  -0.138295  0  4.021554  0
C  C65  1  0.55638429  0.07466505  0.95816842  1  0.00143  0  -0.095021  -0.214125  0  3.926471  0
C  C66  1  0.45474122  0.91910650  0.05029591  1  -0.059411  0  -0.086332  -0.073795  0  4.027616  0
C  C67  1  0.98686154  0.99931233  0.91071045  1  -0.010972  0  -0.029983  -0.167228  0  3.909825  0
C  C68  1  0.99281850  0.99608867  0.09922593  1  -0.095324  0  -0.014945  -0.009333  0  4.002061  0
C  C69  1  0.90309292  0.08100802  0.96183905  1  0.433254  0  0.112074  0.310393  0  4.058529  0
C  C70  1  0.07514683  0.91520402  0.04924608  1  0.012852  0  -0.106426  -0.142524  0  4.027604  0
C  C71  1  0.90886950  0.07683025  0.05615199  1  0.044417  0  -0.095365  -0.216512  0  3.925288  0
C  C72  1  0.07084839  0.91817522  0.95661339  1  -0.012383  0  -0.087098  -0.072729  0  4.03083  0
C  C73  1  0.40658793  0.60066602  0.49020073  1  0.012314  0  -0.030574  -0.171064  0  3.911692  0
C  C74  1  0.59887445  0.41270720  0.49322756  1  0.031005  0  -0.014578  -0.008407  0  4.002308  0
C  C75  1  0.45889905  0.55222410  0.40574757  1  0.443041  0  0.113704  0.314178  0  4.063529  0
C  C76  1  0.54780728  0.46074639  0.57611886  1  -0.016687  0  -0.10717  -0.14486  0  4.028769  0
C  C77  1  0.55520653  0.45796359  0.41006057  1  -0.067883  0  -0.096173  -0.219357  0  3.92527  0
C  C78  1  0.45319059  0.55291593  0.57338050  1  -0.026223  0  -0.087104  -0.072045  0  4.031002  0
C  C79  1  0.99735537  0.60295200  0.90568125  1  0.050622  0  -0.029575  -0.198025  0  3.97588  0
C  C80  1  0.00070948  0.40569521  0.09964374  1  0.057766  0  -0.028118  -0.193161  0  3.979264  0
C  C81  1  0.91817972  0.55053228  0.95750809  1  0.004342  0  -0.020906  0.047639  0  3.956502  0
C  C82  1  0.08569932  0.45258517  0.04610481  1  0.429025  0  0.09683  0.188551  0  3.990937  0
C  C83  1  0.91796689  0.45866925  0.05137597  1  -0.069498  0  -0.023853  0.041612  0  3.955573  0
C  C84  1  0.08040714  0.55377729  0.95431192  1  0.38889  0  0.101087  0.196261  0  3.998402  0
C  C85  1  0.81636230  0.55592378  0.95102624  1  -0.012904  0  -0.156146  -0.194903  0  3.903604  0
C  C86  1  0.81470898  0.45201877  0.05995318  1  -0.010113  0  -0.15607  -0.190401  0  3.90863  0
C  C87  1  0.40696980  0.99228930  0.50004027  1  0.068633  0  -0.031607  -0.171982  0  3.918006  0
C  C88  1  0.59803493  0.99802392  0.49230347  1  -0.023712  0  -0.0146  -0.007884  0  4.00446  0
C  C89  1  0.45965524  0.90850395  0.57983814  1  0.403293  0  0.114826  0.314487  0  4.066989  0
C  C90  1  0.54635597  0.08058909  0.41341512  1  0.006449  0  -0.107225  -0.14709  0  4.029531  0
C  C91  1  0.55543573  0.91416947  0.57329556  1  -0.019754  0  -0.095002  -0.217114  0  3.921764  0
C  C92  1  0.45221562  0.07652837  0.41882982  1  -0.037312  0  -0.087477  -0.071146  0  4.032221  0
N  N93  1  0.16739194  0.41641731  0.32984855  1  -1.251594  0  -0.593722  -0.612883  0  3.354785  0
N  N94  1  0.42464175  0.16002550  0.09669974  1  -1.248464  0  -0.594943  -0.616304  0  3.32567  0
N  N95  1  0.81677976  0.16171386  0.92500691  1  -1.270807  0  -0.593661  -0.618393  0  3.343257  0
N  N96  1  0.41904850  0.59099383  0.32300317  1  -1.272528  0  -0.590502  -0.613868  0  3.353552  0
N  N97  1  0.42078576  0.82513431  0.66302088  1  -1.241497  0  -0.590243  -0.613582  0  3.349705  0
N  N98  1  0.17723110  0.40724614  0.07878941  1  -1.247343  0  -0.607131  -0.621853  0  3.335425  0
N  N99  1  0.16337735  0.59557083  0.91570432  1  -1.228815  0  -0.602265  -0.607034  0  3.333147  0
O  O100  1  0.91545709  0.74035399  0.57449411  1  -1.177318  0  -0.353992  -0.615603  0  2.279228  0
O  O101  1  0.26610309  0.07278010  0.24270011  1  -1.1833  0  -0.363238  -0.632499  0  2.325703  0
O  O102  1  0.07334515  0.26502269  0.42093105  1  -1.187862  0  -0.360946  -0.626987  0  2.315788  0
O  O103  1  0.73445861  0.92281418  0.76501562  1  -1.179511  0  -0.354831  -0.617658  0  2.277557  0
O  O104  1  0.06960772  0.74510969  0.76387086  1  -1.195763  0  -0.369366  -0.633292  0  2.339357  0
O  O105  1  0.73588330  0.07819280  0.41715319  1  -1.179924  0  -0.355338  -0.616538  0  2.271306  0
O  O106  1  0.92147601  0.26758608  0.23667075  1  -1.1765  0  -0.351134  -0.608256  0  2.258674  0
O  O107  1  0.26388229  0.91878588  0.57480561  1  -1.195597  0  -0.358929  -0.627465  0  2.313149  0
O  O108  1  0.26240822  0.74093342  0.41843569  1  -1.190813  0  -0.361172  -0.630119  0  2.314035  0
O  O109  1  0.91647213  0.07591983  0.76551311  1  -1.191256  0  -0.358011  -0.625583  0  2.319414  0
O  O110  1  0.73667565  0.27019196  0.57309932  1  -1.177884  0  -0.356809  -0.620648  0  2.27188  0
O  O111  1  0.07299165  0.92125462  0.23652824  1  -1.181864  0  -0.356899  -0.619325  0  2.272737  0
O  O112  1  0.06994924  0.92286793  0.76790136  1  -1.196908  0  -0.357933  -0.628745  0  2.270805  0
O  O113  1  0.73877321  0.26990455  0.41883792  1  -1.179571  0  -0.356573  -0.622727  0  2.290736  0
O  O114  1  0.91955427  0.07498820  0.23747265  1  -1.182709  0  -0.355692  -0.622267  0  2.291258  0
O  O115  1  0.26412296  0.73780088  0.57225093  1  -1.186346  0  -0.359126  -0.629041  0  2.272697  0
O  O116  1  0.91684864  0.73983026  0.76772114  1  -1.174106  0  -0.346271  -0.605964  0  2.246888  0
O  O117  1  0.26550261  0.07231915  0.42341471  1  -1.191259  0  -0.363637  -0.633889  0  2.288013  0
O  O118  1  0.07598804  0.26244724  0.24004635  1  -1.192447  0  -0.363243  -0.632007  0  2.323826  0
O  O119  1  0.73727385  0.92461523  0.56926914  1  -1.18063  0  -0.358189  -0.622003  0  2.300459  0
O  O120  1  0.73552874  0.07570128  0.76533566  1  -1.18279  0  -0.357647  -0.62516  0  2.28628  0
O  O121  1  0.06795881  0.74175035  0.41989343  1  -1.18315  0  -0.358546  -0.625621  0  2.289385  0
O  O122  1  0.26697370  0.92217032  0.23668592  1  -1.186862  0  -0.35398  -0.624232  0  2.267206  0
O  O123  1  0.92081902  0.26757975  0.57477935  1  -1.188466  0  -0.359432  -0.630046  0  2.273312  0
O  O124  1  0.79475247  0.07029797  0.56560651  1  -1.22939  0  -0.691311  -1.064256  0  2.354969  0
O  O125  1  0.06473936  0.06717548  0.56789045  1  -1.246264  0  -0.700126  -1.070451  0  2.376465  0
O  O126  1  0.06581697  0.06698864  0.29841191  1  -1.238663  0  -0.698144  -1.069893  0  2.374172  0
O  O127  1  0.06298521  0.79993483  0.56639513  1  -1.225821  0  -0.695129  -1.067488  0  2.365067  0
O  O128  1  0.14657710  0.94985806  0.45040505  1  -1.193607  0  -0.797668  -1.144525  0  2.147778  0
O  O129  1  0.94715748  0.95272532  0.44949891  1  -1.198682  0  -0.789195  -1.14528  0  2.125447  0
O  O130  1  0.94821058  0.14987147  0.45011619  1  -1.196113  0  -0.795221  -1.146208  0  2.141872  0
O  O131  1  0.94654326  0.95286991  0.64735370  1  -1.198824  0  -0.793199  -1.145823  0  2.137533  0
