# generated using pymatgen
data_AlH9C21(ClO2)3
_symmetry_space_group_name_H-M   'P 1'
_cell_length_a   3.97866590
_cell_length_b   24.68985855
_cell_length_c   24.68989437
_cell_angle_alpha   120.00003990
_cell_angle_beta   90.00031888
_cell_angle_gamma   90.00000906
_symmetry_Int_Tables_number   1
_chemical_formula_structural   AlH9C21(ClO2)3
_chemical_formula_sum   'Al2 H18 C42 Cl6 O12'
_cell_volume   2100.41815145
_cell_formula_units_Z   2
loop_
 _symmetry_equiv_pos_site_id
 _symmetry_equiv_pos_as_xyz
  1  'x, y, z'
loop_
 _atom_site_type_symbol
 _atom_site_label
 _atom_site_symmetry_multiplicity
 _atom_site_fract_x
 _atom_site_fract_y
 _atom_site_fract_z
 _atom_site_occupancy
 _atom_site_pbe_bader_charge
 _atom_site_pbe_bader_spin_density
 _atom_site_pbe_cm5_charge
 _atom_site_pbe_ddec_charge
 _atom_site_pbe_ddec_spin_density
 _atom_site_pbe_ddec_sum_bond_order
 _atom_site_pbe_magmom
Al  Al0  1  0.99230603  0.49999977  0.50000192  1  2.505291  0  0.423737  1.601485  0  2.567881  0
Al  Al1  1  0.99230640  0.16666676  0.83333559  1  2.505166  0  0.42374  1.601466  0  2.567936  0
H  H2  1  0.49843076  0.44323713  0.73251841  1  0.066459  0  0.102773  0.113481  0  1.018532  0
H  H3  1  0.49845862  0.22342526  0.60081420  1  0.066348  0  0.102762  0.113484  0  1.018519  0
H  H4  1  0.51798667  0.33797646  0.83229314  1  0.059051  0  0.110915  0.116026  0  0.977856  0
H  H5  1  0.50373728  0.39758208  0.77722882  1  0.030486  0  0.102615  0.102804  0  1.01245  0
H  H6  1  0.51799873  0.32868547  0.50103996  1  0.059016  0  0.110908  0.116097  0  0.977833  0
H  H7  1  0.50374610  0.26908089  0.55610484  1  0.030387  0  0.102562  0.102712  0  1.012462  0
H  H8  1  0.49846068  0.78927883  0.55675869  1  0.064899  0  0.102771  0.113505  0  1.018506  0
H  H9  1  0.49845433  0.87738446  0.77657035  1  0.064784  0  0.102779  0.11348  0  1.018512  0
H  H10  1  0.51798164  0.99431666  0.66202491  1  0.070769  0  0.110908  0.116018  0  0.977845  0
H  H11  1  0.50373963  0.87964632  0.60241715  1  0.031797  0  0.102619  0.102792  0  1.012478  0
H  H12  1  0.51800425  0.67235161  0.67131053  1  0.070718  0  0.110903  0.116006  0  0.977862  0
H  H13  1  0.50374927  0.78702045  0.73091490  1  0.031824  0  0.102617  0.102792  0  1.012473  0
H  H14  1  0.49844962  0.26747928  0.21072322  1  0.021042  0  0.102757  0.113461  0  1.018558  0
H  H15  1  0.49844570  0.39918673  0.12261699  1  0.021195  0  0.102792  0.113488  0  1.018428  0
H  H16  1  0.51799793  0.16770694  0.00568804  1  0.12429  0  0.110894  0.116068  0  0.977891  0
H  H17  1  0.50374384  0.22277073  0.12035778  1  0.033517  0  0.102572  0.102718  0  1.012418  0
H  H18  1  0.51799592  0.49895922  0.32765045  1  0.124302  0  0.110936  0.116104  0  0.977777  0
H  H19  1  0.50374549  0.44389367  0.21298082  1  0.033694  0  0.10261  0.102799  0  1.012416  0
C  C20  1  0.49496433  0.45154512  0.40406815  1  1.6083  0  0.278258  0.671134  0  4.058354  0
C  C21  1  0.49496925  0.45251867  0.54845528  1  1.608375  0  0.278132  0.67076  0  4.058636  0
C  C22  1  0.49496428  0.59593388  0.54747931  1  1.625616  0  0.27824  0.671044  0  4.058503  0
C  C23  1  0.49497056  0.21414470  0.78487877  1  1.607515  0  0.278255  0.671073  0  4.058511  0
C  C24  1  0.49496045  0.07073215  0.78585694  1  1.626123  0  0.278292  0.671114  0  4.05849  0
C  C25  1  0.49496794  0.21512206  0.92927019  1  1.605701  0  0.278153  0.670831  0  4.05864  0
C  C26  1  0.50124832  0.41880310  0.58446076  1  0.008202  0  -0.010292  -0.088049  0  3.931231  0
C  C27  1  0.50124344  0.24786074  0.74887283  1  0.008472  0  -0.010295  -0.088323  0  3.931664  0
C  C28  1  0.49450345  0.44986752  0.64999140  1  -0.082282  0  0.022173  0.146018  0  4.022661  0
C  C29  1  0.49655741  0.41644474  0.68168301  1  0.105656  0  -0.094711  -0.199173  0  3.957734  0
C  C30  1  0.49450640  0.21679487  0.68334120  1  -0.082591  0  0.022263  0.146261  0  4.022626  0
C  C31  1  0.49656940  0.25021671  0.65165053  1  0.105448  0  -0.09482  -0.199418  0  3.957767  0
C  C32  1  0.51018922  0.31336800  0.78131028  1  0.152751  0  -0.076791  -0.07237  0  3.982611  0
C  C33  1  0.50329695  0.34672438  0.74973934  1  -0.027929  0  -0.091652  -0.138225  0  3.98701  0
C  C34  1  0.51019798  0.35329311  0.55202200  1  0.152569  0  -0.076799  -0.072652  0  3.982416  0
C  C35  1  0.50330422  0.31993754  0.58359374  1  -0.027777  0  -0.091558  -0.137928  0  3.986864  0
C  C36  1  0.49797440  0.35075856  0.64941882  1  -0.056358  0  -0.001232  0.088697  0  3.983387  0
C  C37  1  0.49797496  0.31590423  0.68391420  1  -0.014654  0  -0.001132  0.088947  0  3.983087  0
C  C38  1  0.50124839  0.66565597  0.58119407  1  -0.033537  0  -0.010288  -0.088206  0  3.931592  0
C  C39  1  0.50124337  0.00101107  0.75214038  1  -0.033529  0  -0.010316  -0.088376  0  3.931631  0
C  C40  1  0.49450945  0.70012098  0.55012892  1  -0.057949  0  0.022204  0.146114  0  4.022746  0
C  C41  1  0.49657354  0.76523454  0.58355140  1  0.04423  0  -0.094757  -0.199322  0  3.957773  0
C  C42  1  0.49450593  0.96654270  0.78320377  1  -0.057785  0  0.022196  0.146183  0  4.022559  0
C  C43  1  0.49657136  0.90142897  0.74978066  1  0.044538  0  -0.094731  -0.19923  0  3.957685  0
C  C44  1  0.51018797  0.96794059  0.68663175  1  0.098198  0  -0.076733  -0.072349  0  3.982459  0
C  C45  1  0.50330316  0.90301338  0.65327403  1  -0.041453  0  -0.091691  -0.138171  0  3.986957  0
C  C46  1  0.51019973  0.69872664  0.64670310  1  0.098175  0  -0.076808  -0.072465  0  3.98265  0
C  C47  1  0.50330605  0.76365252  0.68005808  1  -0.041296  0  -0.091671  -0.138156  0  3.987169  0
C  C48  1  0.49798216  0.79865698  0.64923681  1  0.138349  0  -0.001116  0.088906  0  3.983123  0
C  C49  1  0.49798278  0.86800858  0.68409402  1  0.015212  0  -0.001214  0.088761  0  3.983102  0
C  C50  1  0.50124918  0.41553920  0.33434571  1  -0.00108  0  -0.010262  -0.088344  0  3.931695  0
C  C51  1  0.50124510  0.25112734  0.99899246  1  0.000215  0  -0.010296  -0.088069  0  3.931311  0
C  C52  1  0.49451013  0.35000674  0.29987999  1  -0.017924  0  0.022274  0.146304  0  4.022743  0
C  C53  1  0.49657253  0.31831641  0.23476870  1  0.158675  0  -0.094787  -0.199354  0  3.957739  0
C  C54  1  0.49450064  0.31665812  0.03345813  1  -0.017391  0  0.02218  0.146001  0  4.022661  0
C  C55  1  0.49656274  0.34834885  0.09857309  1  0.158632  0  -0.094698  -0.199127  0  3.957656  0
C  C56  1  0.51019427  0.21868873  0.03206272  1  -0.089161  0  -0.076781  -0.072622  0  3.982665  0
C  C57  1  0.50330110  0.25026079  0.09698933  1  0.165384  0  -0.091611  -0.138009  0  3.98696  0
C  C58  1  0.51019888  0.44797713  0.30127686  1  -0.08906  0  -0.076778  -0.072391  0  3.982593  0
C  C59  1  0.50330853  0.41640408  0.23634880  1  0.165125  0  -0.091731  -0.138329  0  3.987213  0
C  C60  1  0.49798201  0.35058034  0.20134487  1  -0.176684  0  -0.001158  0.088896  0  3.983057  0
C  C61  1  0.49797581  0.31608510  0.13199430  1  -0.052491  0  -0.001216  0.08878  0  3.983282  0
Cl  Cl62  1  0.50150657  0.53070252  0.69387809  1  -0.213419  0  -0.015568  -0.086108  0  1.498034  0
Cl  Cl63  1  0.50151049  0.13595933  0.63945586  1  -0.213365  0  -0.015625  -0.086168  0  1.497983  0
Cl  Cl64  1  0.50151546  0.66317108  0.46929371  1  -0.215136  0  -0.015617  -0.086144  0  1.498039  0
Cl  Cl65  1  0.50150412  0.00348980  0.86403880  1  -0.215107  0  -0.015612  -0.08616  0  1.498019  0
Cl  Cl66  1  0.50150804  0.30612233  0.33683108  1  -0.217215  0  -0.01565  -0.086208  0  1.498  0
Cl  Cl67  1  0.50150399  0.36054467  0.99650988  1  -0.217246  0  -0.015586  -0.086128  0  1.498059  0
O  O68  1  0.72669291  0.56852422  0.56039979  1  -1.248922  0  -0.235384  -0.592128  0  2.353964  0
O  O69  1  0.72669324  0.49187526  0.43147862  1  -1.253727  0  -0.235421  -0.592184  0  2.353927  0
O  O70  1  0.72670203  0.43960004  0.50812640  1  -1.252873  0  -0.235385  -0.592069  0  2.354033  0
O  O71  1  0.25545872  0.56881237  0.50918672  1  -1.250577  0  -0.232303  -0.595744  0  2.402901  0
O  O72  1  0.25546958  0.49081292  0.55962811  1  -1.253561  0  -0.23226  -0.595622  0  2.402965  0
O  O73  1  0.25545736  0.44037290  0.43118915  1  -1.253308  0  -0.232333  -0.595778  0  2.40288  0
O  O74  1  0.72670092  0.17479335  0.90186036  1  -1.25216  0  -0.235373  -0.592071  0  2.354028  0
O  O75  1  0.72669464  0.22706394  0.82520748  1  -1.252685  0  -0.235418  -0.592146  0  2.354018  0
O  O76  1  0.72669119  0.09814254  0.77293780  1  -1.24914  0  -0.235414  -0.592175  0  2.354032  0
O  O77  1  0.25547013  0.22629396  0.90214825  1  -1.253211  0  -0.232247  -0.595633  0  2.403016  0
O  O78  1  0.25546123  0.09785368  0.82414987  1  -1.2509  0  -0.232353  -0.595741  0  2.402825  0
O  O79  1  0.25545791  0.17585104  0.77370733  1  -1.253011  0  -0.232319  -0.595748  0  2.402878  0
