# generated using pymatgen
data_CoAgH6C14(NO4)2
_symmetry_space_group_name_H-M   'P 1'
_cell_length_a   6.83334303
_cell_length_b   6.83269233
_cell_length_c   15.00842408
_cell_angle_alpha   103.13959690
_cell_angle_beta   103.12149893
_cell_angle_gamma   89.97416333
_symmetry_Int_Tables_number   1
_chemical_formula_structural   CoAgH6C14(NO4)2
_chemical_formula_sum   'Co2 Ag2 H12 C28 N4 O16'
_cell_volume   663.61479418
_cell_formula_units_Z   2
loop_
 _symmetry_equiv_pos_site_id
 _symmetry_equiv_pos_as_xyz
  1  'x, y, z'
loop_
 _atom_site_type_symbol
 _atom_site_label
 _atom_site_symmetry_multiplicity
 _atom_site_fract_x
 _atom_site_fract_y
 _atom_site_fract_z
 _atom_site_occupancy
 _atom_site_hle17_bader_spin_density
 _atom_site_hle17_ddec_charge
 _atom_site_hle17_ddec_spin_density
 _atom_site_hle17_ddec_sum_bond_order
 _atom_site_hle17_magmom
 _atom_site_hse06_10hf_bader_spin_density
 _atom_site_hse06_10hf_ddec_charge
 _atom_site_hse06_10hf_ddec_spin_density
 _atom_site_hse06_10hf_ddec_sum_bond_order
 _atom_site_hse06_10hf_magmom
 _atom_site_hse06_bader_spin_density
 _atom_site_hse06_ddec_charge
 _atom_site_hse06_ddec_spin_density
 _atom_site_hse06_ddec_sum_bond_order
 _atom_site_hse06_magmom
 _atom_site_pbe_bader_spin_density
 _atom_site_pbe_cm5_charge
 _atom_site_pbe_ddec_charge
 _atom_site_pbe_ddec_spin_density
 _atom_site_pbe_ddec_sum_bond_order
 _atom_site_pbe_magmom
Co  Co0  1  0.37488102  0.12505487  0.74994343  1  0  0.808006  0  2.934558  0  0  0.88062  0  3.321679  0  0  0.957155  0  3.272948  0  0  0.830149  0.83988  0  3.354824  0
Co  Co1  1  0.62511486  0.87494270  0.25005563  1  0  0.808203  0  2.934483  0  0  0.880757  0  3.3216  0  0  0.957213  0  3.272903  0  0  0.830108  0.839958  0  3.354764  0
Ag  Ag2  1  0.87514645  0.62497965  0.75004119  1  0  0.703248  0  1.004442  0  0  0.587564  0  1.38553  0  0  0.627927  0  1.331234  0  0  0.447661  0.558903  0  1.423401  0
Ag  Ag3  1  0.12485685  0.37501641  0.24995715  1  0  0.70327  0  1.004472  0  0  0.587594  0  1.38555  0  0  0.62795  0  1.33126  0  0  0.447654  0.558935  0  1.423425  0
H  H4  1  0.81890031  0.40953191  0.05685204  1  0  0.143623  0  0.945223  0  0  0.148738  0  1.011093  0  0  0.153638  0  1.007499  0  0  0.118775  0.144987  0  1.013982  0
H  H5  1  0.64702988  0.31931979  0.55699526  1  0  0.144171  0  0.946347  0  0  0.149155  0  1.012247  0  0  0.154048  0  1.00868  0  0  0.119375  0.145397  0  1.01515  0
H  H6  1  0.91020799  0.73775397  0.55709226  1  0  0.142309  0  0.947002  0  0  0.147888  0  1.01249  0  0  0.15274  0  1.008955  0  0  0.118456  0.144164  0  1.015345  0
H  H7  1  0.23739493  0.14718609  0.05703088  1  0  0.142264  0  0.94698  0  0  0.147655  0  1.01253  0  0  0.152568  0  1.008914  0  0  0.119099  0.143898  0  1.015413  0
H  H8  1  0.18109256  0.59046565  0.94314671  1  0  0.143596  0  0.945186  0  0  0.148689  0  1.011103  0  0  0.15359  0  1.00751  0  0  0.118764  0.144937  0  1.01399  0
H  H9  1  0.35297564  0.68068981  0.44300335  1  0  0.144175  0  0.946458  0  0  0.149158  0  1.012342  0  0  0.154061  0  1.008747  0  0  0.119396  0.145398  0  1.015246  0
H  H10  1  0.08979391  0.26224361  0.44290875  1  0  0.142313  0  0.947066  0  0  0.1479  0  1.012534  0  0  0.152753  0  1.008998  0  0  0.118446  0.144204  0  1.015355  0
H  H11  1  0.76260294  0.85282051  0.94296998  1  0  0.142239  0  0.947036  0  0  0.147645  0  1.012559  0  0  0.152558  0  1.008941  0  0  0.119086  0.143882  0  1.01544  0
H  H12  1  0.57245577  0.32264590  0.14566161  1  0  0.120853  0  0.929991  0  0  0.12862  0  0.990948  0  0  0.133846  0  0.986277  0  0  0.114888  0.124453  0  0.994916  0
H  H13  1  0.82303256  0.07295708  0.64574553  1  0  0.120778  0  0.930494  0  0  0.129001  0  0.991061  0  0  0.13426  0  0.986341  0  0  0.114691  0.124842  0  0.995015  0
H  H14  1  0.42754226  0.67736372  0.85434024  1  0  0.120826  0  0.930104  0  0  0.128629  0  0.99103  0  0  0.133858  0  0.986352  0  0  0.114884  0.124461  0  0.994998  0
H  H15  1  0.17696822  0.92704802  0.35425480  1  0  0.120681  0  0.930458  0  0  0.128903  0  0.991063  0  0  0.134161  0  0.986343  0  0  0.114646  0.124742  0  0.995019  0
C  C16  1  0.72198405  0.33772909  0.85232441  1  0  0.596196  0  3.874788  0  0  0.551114  0  4.17442  0  0  0.588132  0  4.166495  0  0  0.217564  0.525343  0  4.179333  0
C  C17  1  0.51445854  0.22217224  0.35246424  1  0  0.594591  0  3.876713  0  0  0.550384  0  4.175356  0  0  0.587415  0  4.167401  0  0  0.216741  0.524604  0  4.180296  0
C  C18  1  0.83797418  0.63004264  0.35252351  1  0  0.596135  0  3.874643  0  0  0.550998  0  4.17499  0  0  0.58808  0  4.166948  0  0  0.217091  0.525187  0  4.17999  0
C  C19  1  0.13005153  0.01454124  0.85248312  1  0  0.596555  0  3.875844  0  0  0.552083  0  4.174729  0  0  0.589151  0  4.16666  0  0  0.217298  0.526275  0  4.179739  0
C  C20  1  0.27801490  0.66226997  0.14767312  1  0  0.596236  0  3.874725  0  0  0.551142  0  4.174332  0  0  0.588164  0  4.166396  0  0  0.217473  0.525359  0  4.179277  0
C  C21  1  0.48554920  0.77782233  0.64753573  1  0  0.594296  0  3.877043  0  0  0.550091  0  4.175783  0  0  0.58712  0  4.167838  0  0  0.216571  0.524316  0  4.180709  0
C  C22  1  0.16201777  0.36996548  0.64747823  1  0  0.596209  0  3.874691  0  0  0.551031  0  4.17501  0  0  0.588103  0  4.166975  0  0  0.217087  0.52522  0  4.180002  0
C  C23  1  0.86994419  0.98545332  0.14751562  1  0  0.596915  0  3.87543  0  0  0.552387  0  4.174387  0  0  0.58945  0  4.166318  0  0  0.217436  0.526578  0  4.179407  0
C  C24  1  0.61777083  0.28514464  0.92249803  1  0  0.09937  0  3.704383  0  0  0.107771  0  3.944201  0  0  0.112586  0  3.958593  0  0  0.122737  0.103702  0  3.935875  0
C  C25  1  0.63715834  0.11797133  0.42262035  1  0  0.101641  0  3.70475  0  0  0.109324  0  3.945088  0  0  0.114131  0  3.959488  0  0  0.123424  0.105234  0  3.936733  0
C  C26  1  0.78538197  0.80438835  0.42266114  1  0  0.101556  0  3.700832  0  0  0.108684  0  3.942906  0  0  0.113505  0  3.957247  0  0  0.123163  0.104584  0  3.934598  0
C  C27  1  0.30430670  0.13719520  0.92258750  1  0  0.10016  0  3.701762  0  0  0.10778  0  3.942305  0  0  0.112581  0  3.956692  0  0  0.122737  0.103732  0  3.933974  0
C  C28  1  0.38222650  0.71485145  0.07750503  1  0  0.099289  0  3.704667  0  0  0.107852  0  3.944253  0  0  0.112659  0  3.958637  0  0  0.122817  0.103783  0  3.935932  0
C  C29  1  0.36284375  0.88203072  0.57737447  1  0  0.10189  0  3.704245  0  0  0.109377  0  3.9449  0  0  0.114184  0  3.959308  0  0  0.123466  0.105298  0  3.936545  0
C  C30  1  0.21461966  0.19560469  0.57733605  1  0  0.101526  0  3.700662  0  0  0.108821  0  3.942491  0  0  0.113653  0  3.956832  0  0  0.123197  0.10473  0  3.934193  0
C  C31  1  0.69569657  0.86279940  0.07741801  1  0  0.09997  0  3.701731  0  0  0.107597  0  3.942325  0  0  0.112391  0  3.95671  0  0  0.122697  0.103555  0  3.933991  0
C  C32  1  0.67302577  0.33327052  0.02044429  1  0  -0.075566  0  3.618388  0  0  -0.101834  0  3.86902  0  0  -0.104636  0  3.884643  0  0  -0.057802  -0.100191  0  3.8595  0
C  C33  1  0.68693074  0.17336201  0.52056884  1  0  -0.077085  0  3.618017  0  0  -0.103244  0  3.869475  0  0  -0.106055  0  3.885158  0  0  -0.058156  -0.101591  0  3.859934  0
C  C34  1  0.83370138  0.84717615  0.52061646  1  0  -0.073863  0  3.617192  0  0  -0.100227  0  3.868528  0  0  -0.102982  0  3.884278  0  0  -0.056394  -0.098594  0  3.858935  0
C  C35  1  0.34689350  0.18691183  0.02053988  1  0  -0.072848  0  3.61816  0  0  -0.098841  0  3.868248  0  0  -0.101639  0  3.883912  0  0  -0.05695  -0.0972  0  3.858697  0
C  C36  1  0.32697913  0.66672706  0.97955703  1  0  -0.075418  0  3.618302  0  0  -0.101747  0  3.868977  0  0  -0.104543  0  3.8846  0  0  -0.057771  -0.1001  0  3.859448  0
C  C37  1  0.31307714  0.82663555  0.47942878  1  0  -0.077137  0  3.61811  0  0  -0.103251  0  3.869644  0  0  -0.106067  0  3.885339  0  0  -0.058205  -0.101594  0  3.860098  0
C  C38  1  0.16629379  0.15283645  0.47938206  1  0  -0.073863  0  3.617135  0  0  -0.100296  0  3.86846  0  0  -0.103058  0  3.884214  0  0  -0.0564  -0.098683  0  3.858851  0
C  C39  1  0.65310705  0.81308876  0.97946130  1  0  -0.072738  0  3.617928  0  0  -0.09871  0  3.867992  0  0  -0.101502  0  3.883656  0  0  -0.056895  -0.09706  0  3.858433  0
C  C40  1  0.53416262  0.28427334  0.06891126  1  0  -0.018515  0  3.646338  0  0  -0.037533  0  3.90685  0  0  -0.033039  0  3.918767  0  0  -0.06467  -0.041509  0  3.900261  0
C  C41  1  0.78454803  0.03448539  0.56900548  1  0  -0.017536  0  3.643778  0  0  -0.036747  0  3.90432  0  0  -0.032212  0  3.91607  0  0  -0.064757  -0.040736  0  3.897805  0
C  C42  1  0.46583334  0.71572573  0.93108730  1  0  -0.018526  0  3.646324  0  0  -0.03759  0  3.906843  0  0  -0.033095  0  3.918751  0  0  -0.064668  -0.041563  0  3.900249  0
C  C43  1  0.21545569  0.96551821  0.43099567  1  0  -0.017406  0  3.643566  0  0  -0.03661  0  3.904098  0  0  -0.032071  0  3.915849  0  0  -0.064726  -0.040602  0  3.897583  0
N  N44  1  0.43901139  0.18916714  0.87846470  1  0  -0.257131  0  3.492534  0  0  -0.232269  0  3.758575  0  0  -0.253178  0  3.778519  0  0  -0.355055  -0.221175  0  3.746928  0
N  N45  1  0.68921778  0.93913312  0.37856809  1  0  -0.259205  0  3.494691  0  0  -0.233818  0  3.761066  0  0  -0.254748  0  3.781065  0  0  -0.356222  -0.222599  0  3.749271  0
N  N46  1  0.56098716  0.81082441  0.12153336  1  0  -0.257114  0  3.492551  0  0  -0.232314  0  3.758575  0  0  -0.253199  0  3.778507  0  0  -0.355055  -0.221213  0  3.746916  0
N  N47  1  0.31078444  0.06087048  0.62143423  1  0  -0.259329  0  3.494656  0  0  -0.233938  0  3.761075  0  0  -0.254886  0  3.78108  0  0  -0.356268  -0.222763  0  3.749321  0
O  O48  1  0.62514131  0.27015782  0.76461407  1  0  -0.51845  0  2.054641  0  0  -0.50682  0  2.329344  0  0  -0.54512  0  2.32285  0  0  -0.284473  -0.480778  0  2.332959  0
O  O49  1  0.49451800  0.12524598  0.26476073  1  0  -0.517995  0  2.055319  0  0  -0.506739  0  2.329772  0  0  -0.545003  0  2.323231  0  0  -0.284329  -0.480724  0  2.333504  0
O  O50  1  0.77027486  0.63918631  0.26479895  1  0  -0.519207  0  2.055885  0  0  -0.507469  0  2.330667  0  0  -0.545761  0  2.324125  0  0  -0.284324  -0.481391  0  2.334299  0
O  O51  1  0.13931955  0.99457722  0.76474828  1  0  -0.519139  0  2.05408  0  0  -0.507832  0  2.32868  0  0  -0.546187  0  2.322212  0  0  -0.2847  -0.481777  0  2.332349  0
O  O52  1  0.37486369  0.72984129  0.23539074  1  0  -0.518548  0  2.054541  0  0  -0.506923  0  2.329214  0  0  -0.54522  0  2.322728  0  0  -0.284469  -0.480867  0  2.332838  0
O  O53  1  0.50547604  0.87474555  0.73523553  1  0  -0.517812  0  2.055393  0  0  -0.506533  0  2.329843  0  0  -0.544806  0  2.323301  0  0  -0.284248  -0.480526  0  2.333567  0
O  O54  1  0.22972099  0.36081123  0.73519611  1  0  -0.519207  0  2.05599  0  0  -0.507478  0  2.330817  0  0  -0.545789  0  2.3243  0  0  -0.284363  -0.481409  0  2.334447  0
O  O55  1  0.86067660  0.00542490  0.23525661  1  0  -0.519302  0  2.05375  0  0  -0.507966  0  2.328365  0  0  -0.546321  0  2.321916  0  0  -0.284708  -0.481899  0  2.332035  0
O  O56  1  0.87966184  0.44715249  0.87570509  1  0  -0.546511  0  2.000624  0  0  -0.496254  0  2.247457  0  0  -0.525522  0  2.237897  0  0  -0.284332  -0.474499  0  2.252892  0
O  O57  1  0.42824499  0.37991450  0.37583029  1  0  -0.545915  0  2.001738  0  0  -0.495671  0  2.247698  0  0  -0.524921  0  2.23818  0  0  -0.283811  -0.4739  0  2.253037  0
O  O58  1  0.94764719  0.49572306  0.37592191  1  0  -0.546068  0  2.000931  0  0  -0.495698  0  2.247992  0  0  -0.525049  0  2.238526  0  0  -0.284043  -0.473898  0  2.253372  0
O  O59  1  0.99580923  0.92839515  0.87590164  1  0  -0.546564  0  2.003164  0  0  -0.496494  0  2.249703  0  0  -0.525776  0  2.240107  0  0  -0.283805  -0.474701  0  2.255091  0
O  O60  1  0.12033138  0.55285113  0.12429831  1  0  -0.546506  0  2.000508  0  0  -0.496261  0  2.247342  0  0  -0.525524  0  2.23778  0  0  -0.284303  -0.474503  0  2.252789  0
O  O61  1  0.57175720  0.62008908  0.62416737  1  0  -0.545796  0  2.002074  0  0  -0.495529  0  2.248032  0  0  -0.524778  0  2.238515  0  0  -0.283735  -0.473767  0  2.253375  0
O  O62  1  0.05236204  0.50427149  0.62407687  1  0  -0.546046  0  2.001213  0  0  -0.495678  0  2.248288  0  0  -0.525028  0  2.238823  0  0  -0.284011  -0.473876  0  2.25366  0
O  O63  1  0.00418808  0.07160092  0.12409874  1  0  -0.546745  0  2.003121  0  0  -0.496642  0  2.249691  0  0  -0.525915  0  2.240094  0  0  -0.283928  -0.474853  0  2.25509  0
