# generated using pymatgen
data_SnH13(C3N)3
_symmetry_space_group_name_H-M   'P 1'
_cell_length_a   7.19158119
_cell_length_b   10.74729247
_cell_length_c   14.81680000
_cell_angle_alpha   90.00000000
_cell_angle_beta   90.00000000
_cell_angle_gamma   90.00000000
_symmetry_Int_Tables_number   1
_chemical_formula_structural   SnH13(C3N)3
_chemical_formula_sum   'Sn4 H52 C36 N12'
_cell_volume   1145.19086326
_cell_formula_units_Z   4
loop_
 _symmetry_equiv_pos_site_id
 _symmetry_equiv_pos_as_xyz
  1  'x, y, z'
loop_
 _atom_site_type_symbol
 _atom_site_label
 _atom_site_symmetry_multiplicity
 _atom_site_fract_x
 _atom_site_fract_y
 _atom_site_fract_z
 _atom_site_occupancy
 _atom_site_hle17_bader_spin_density
 _atom_site_hle17_ddec_charge
 _atom_site_hle17_ddec_spin_density
 _atom_site_hle17_ddec_sum_bond_order
 _atom_site_hle17_magmom
 _atom_site_hse06_10hf_bader_spin_density
 _atom_site_hse06_10hf_ddec_charge
 _atom_site_hse06_10hf_ddec_spin_density
 _atom_site_hse06_10hf_ddec_sum_bond_order
 _atom_site_hse06_10hf_magmom
 _atom_site_hse06_bader_spin_density
 _atom_site_hse06_ddec_charge
 _atom_site_hse06_ddec_spin_density
 _atom_site_hse06_ddec_sum_bond_order
 _atom_site_hse06_magmom
 _atom_site_pbe_bader_charge
 _atom_site_pbe_bader_spin_density
 _atom_site_pbe_cm5_charge
 _atom_site_pbe_ddec_charge
 _atom_site_pbe_ddec_spin_density
 _atom_site_pbe_ddec_sum_bond_order
 _atom_site_pbe_magmom
Sn  Sn0  1  0.62062986  0.84406561  0.74930754  1  0  1.218008  0  2.978608  0  0  1.071241  0  3.466122  0  0  1.103161  0  3.461101  0  1.634391  0  0.52074  1.04967  0  3.468828  0
Sn  Sn1  1  0.12062994  0.15593509  0.25069313  1  0  1.218047  0  2.978571  0  0  1.071272  0  3.466107  0  0  1.103197  0  3.461068  0  1.634379  0  0.520756  1.0497  0  3.468816  0
Sn  Sn2  1  0.62063125  0.65593451  0.24930754  1  0  1.218033  0  2.978623  0  0  1.071274  0  3.466126  0  0  1.103182  0  3.461118  0  1.634373  0  0.520729  1.049701  0  3.468834  0
Sn  Sn3  1  0.12063272  0.34406526  0.75069313  1  0  1.218015  0  2.978597  0  0  1.07126  0  3.466126  0  0  1.10317  0  3.461114  0  1.634358  0  0.520723  1.049687  0  3.468832  0
H  H4  1  0.22098756  0.61650039  0.09597349  1  0  0.089019  0  0.97407  0  0  0.098428  0  1.036512  0  0  0.100736  0  1.036427  0  0.083479  0  0.100221  0.096755  0  1.036687  0
H  H5  1  0.72100278  0.38349659  0.90403528  1  0  0.08906  0  0.97409  0  0  0.098392  0  1.036609  0  0  0.1007  0  1.036525  0  0.083051  0  0.100188  0.09672  0  1.036782  0
H  H6  1  0.22098756  0.88350159  0.59597281  1  0  0.08907  0  0.974033  0  0  0.098447  0  1.036505  0  0  0.100754  0  1.03642  0  0.083503  0  0.100227  0.096775  0  1.036679  0
H  H7  1  0.72099443  0.11650004  0.40402854  1  0  0.089052  0  0.974171  0  0  0.098431  0  1.03663  0  0  0.100737  0  1.036546  0  0.083167  0  0.100215  0.096758  0  1.036804  0
H  H8  1  0.20885393  0.46521857  0.96960342  1  0  0.101236  0  0.974882  0  0  0.110751  0  1.038894  0  0  0.112792  0  1.039582  0  0.107311  0  0.1039  0.109258  0  1.038524  0
H  H9  1  0.70886914  0.53477655  0.03040603  1  0  0.101322  0  0.974787  0  0  0.110811  0  1.038846  0  0  0.112852  0  1.039534  0  0.107275  0  0.103902  0.109314  0  1.038484  0
H  H10  1  0.20884976  0.03478364  0.46960207  1  0  0.101245  0  0.974837  0  0  0.110766  0  1.038846  0  0  0.112806  0  1.039535  0  0.10732  0  0.103902  0.109274  0  1.038477  0
H  H11  1  0.70885385  0.96521520  0.53039658  1  0  0.10121  0  0.974893  0  0  0.110731  0  1.038908  0  0  0.112771  0  1.039598  0  0.107269  0  0.103891  0.109238  0  1.038538  0
H  H12  1  0.56463104  0.78098275  0.57299147  1  0  0.14532  0  1.007775  0  0  0.160808  0  1.071446  0  0  0.163208  0  1.072763  0  0.042956  0  0.080072  0.159127  0  1.070539  0
H  H13  1  0.06463113  0.21901702  0.42700786  1  0  0.145316  0  1.007765  0  0  0.160798  0  1.071445  0  0  0.1632  0  1.07276  0  0.042956  0  0.080055  0.159116  0  1.070543  0
H  H14  1  0.56463243  0.71901644  0.07299012  1  0  0.145283  0  1.007801  0  0  0.160775  0  1.071465  0  0  0.163174  0  1.07279  0  0.042924  0  0.080053  0.159096  0  1.070555  0
H  H15  1  0.06463391  0.28098240  0.92700853  1  0  0.145357  0  1.00769  0  0  0.160828  0  1.071386  0  0  0.163229  0  1.072702  0  0.042939  0  0.080071  0.159144  0  1.070488  0
H  H16  1  0.40755015  0.69536304  0.64217645  1  0  0.145492  0  0.997964  0  0  0.165855  0  1.051552  0  0  0.168333  0  1.052152  0  0.046972  0  0.081923  0.164157  0  1.051019  0
H  H17  1  0.90755146  0.30463580  0.35782288  1  0  0.145506  0  0.997969  0  0  0.165879  0  1.051539  0  0  0.168358  0  1.052135  0  0.047045  0  0.081926  0.164181  0  1.051006  0
H  H18  1  0.40755154  0.80463615  0.14217577  1  0  0.145505  0  0.997974  0  0  0.165867  0  1.051562  0  0  0.168347  0  1.052157  0  0.046997  0  0.081929  0.164169  0  1.051031  0
H  H19  1  0.90755285  0.19536362  0.85782288  1  0  0.145522  0  0.997968  0  0  0.165904  0  1.051526  0  0  0.168383  0  1.052122  0  0.047008  0  0.081951  0.164205  0  1.050993  0
H  H20  1  0.64520720  0.64801158  0.63519383  1  0  0.152238  0  1.007199  0  0  0.164861  0  1.072802  0  0  0.167914  0  1.072483  0  0.108142  0  0.083795  0.162553  0  1.073287  0
H  H21  1  0.14520451  0.35198819  0.36480617  1  0  0.152262  0  1.007189  0  0  0.164884  0  1.072789  0  0  0.167937  0  1.072472  0  0.108155  0  0.083789  0.16258  0  1.07327  0
H  H22  1  0.64520720  0.85198761  0.13519316  1  0  0.152263  0  1.00714  0  0  0.164878  0  1.072749  0  0  0.167931  0  1.072431  0  0.108189  0  0.083815  0.162577  0  1.073227  0
H  H23  1  0.14520729  0.14801123  0.86480549  1  0  0.152228  0  1.007198  0  0  0.164852  0  1.0728  0  0  0.167906  0  1.07248  0  0.10816  0  0.08378  0.162544  0  1.073285  0
H  H24  1  0.40665049  0.74778555  0.88334998  1  0  0.154523  0  0.988293  0  0  0.171364  0  1.046432  0  0  0.173971  0  1.04777  0  0.036061  0  0.082837  0.169518  0  1.045554  0
H  H25  1  0.90665180  0.25221515  0.11665002  1  0  0.154508  0  0.988282  0  0  0.171352  0  1.046424  0  0  0.173958  0  1.047763  0  0.036047  0  0.082833  0.169506  0  1.045544  0
H  H26  1  0.40665327  0.75221550  0.38334931  1  0  0.154511  0  0.988263  0  0  0.171358  0  1.046403  0  0  0.173966  0  1.047739  0  0.036112  0  0.082841  0.169512  0  1.045524  0
H  H27  1  0.90665319  0.24778613  0.61665002  1  0  0.154509  0  0.988294  0  0  0.171354  0  1.046432  0  0  0.173962  0  1.047768  0  0.036124  0  0.082831  0.169507  0  1.045553  0
H  H28  1  0.30878189  0.89342874  0.84723827  1  0  0.154728  0  0.998799  0  0  0.168378  0  1.062202  0  0  0.171448  0  1.061941  0  0.101119  0  0.083254  0.166111  0  1.062546  0
H  H29  1  0.80878180  0.10657103  0.15276106  1  0  0.154736  0  0.998765  0  0  0.168384  0  1.062172  0  0  0.171455  0  1.061912  0  0.101129  0  0.083255  0.166113  0  1.062521  0
H  H30  1  0.30878467  0.60657045  0.34723760  1  0  0.154745  0  0.998765  0  0  0.168393  0  1.062172  0  0  0.171465  0  1.061908  0  0.101375  0  0.083279  0.166123  0  1.062519  0
H  H31  1  0.80878458  0.39343025  0.65276240  1  0  0.154725  0  0.998799  0  0  0.16837  0  1.062212  0  0  0.171443  0  1.061947  0  0.101139  0  0.083266  0.166099  0  1.06256  0
H  H32  1  0.50348733  0.89101790  0.92176043  1  0  0.145163  0  0.990643  0  0  0.164683  0  1.045939  0  0  0.167067  0  1.046574  0  0.027392  0  0.081014  0.162973  0  1.045503  0
H  H33  1  0.00348880  0.10898187  0.07823889  1  0  0.14512  0  0.990663  0  0  0.164651  0  1.04595  0  0  0.167033  0  1.046588  0  0.027375  0  0.080999  0.162941  0  1.045515  0
H  H34  1  0.50349011  0.60898222  0.42176111  1  0  0.145088  0  0.990669  0  0  0.164623  0  1.045957  0  0  0.167004  0  1.046596  0  0.027396  0  0.080995  0.162913  0  1.045522  0
H  H35  1  0.00349158  0.39101848  0.57823889  1  0  0.145098  0  0.990673  0  0  0.164635  0  1.045953  0  0  0.167013  0  1.046597  0  0.027372  0  0.08099  0.162923  0  1.045519  0
H  H36  1  0.94169972  0.94319663  0.68339655  1  0  0.148276  0  1.011077  0  0  0.163611  0  1.075631  0  0  0.165899  0  1.077133  0  0.044373  0  0.079598  0.161963  0  1.074625  0
H  H37  1  0.44170258  0.05680314  0.31660278  1  0  0.148304  0  1.011027  0  0  0.163639  0  1.075578  0  0  0.165925  0  1.077084  0  0.044385  0  0.079617  0.161992  0  1.074571  0
H  H38  1  0.94170389  0.55680629  0.18339453  1  0  0.148309  0  1.011039  0  0  0.163659  0  1.07557  0  0  0.165948  0  1.077071  0  0.044303  0  0.079616  0.162011  0  1.074564  0
H  H39  1  0.44170537  0.44319348  0.81660547  1  0  0.148302  0  1.01102  0  0  0.163648  0  1.075555  0  0  0.165941  0  1.077053  0  0.044301  0  0.079618  0.162  0  1.074548  0
H  H40  1  0.95736804  0.93868200  0.80340424  1  0  0.150644  0  0.996679  0  0  0.168131  0  1.055085  0  0  0.170589  0  1.05578  0  0.038937  0  0.082451  0.166393  0  1.054572  0
H  H41  1  0.45736812  0.06131963  0.19659441  1  0  0.150632  0  0.996699  0  0  0.168105  0  1.055117  0  0  0.170561  0  1.055815  0  0.03891  0  0.082436  0.166367  0  1.054603  0
H  H42  1  0.95737221  0.56132091  0.30340289  1  0  0.15066  0  0.996685  0  0  0.168142  0  1.055092  0  0  0.170599  0  1.05579  0  0.038915  0  0.082439  0.166404  0  1.054578  0
H  H43  1  0.45737230  0.43867979  0.69659643  1  0  0.150645  0  0.996692  0  0  0.168128  0  1.055098  0  0  0.170585  0  1.055797  0  0.038923  0  0.082433  0.16639  0  1.054585  0
H  H44  1  0.82366726  0.05747029  0.74886818  1  0  0.147641  0  0.997722  0  0  0.167172  0  1.052056  0  0  0.169504  0  1.053109  0  0.037729  0  0.082953  0.165529  0  1.051322  0
H  H45  1  0.32366735  0.94253041  0.25113047  1  0  0.147664  0  0.997674  0  0  0.167182  0  1.05202  0  0  0.169513  0  1.053074  0  0.037742  0  0.082946  0.16554  0  1.051285  0
H  H46  1  0.82367283  0.44253192  0.24886615  1  0  0.147685  0  0.997697  0  0  0.167207  0  1.052034  0  0  0.16954  0  1.053086  0  0.037796  0  0.082934  0.165563  0  1.051302  0
H  H47  1  0.32367291  0.55746878  0.75113385  1  0  0.14769  0  0.997664  0  0  0.16721  0  1.052005  0  0  0.169543  0  1.053056  0  0.037782  0  0.082942  0.165565  0  1.051273  0
H  H48  1  0.82430551  0.85924990  0.96527320  1  0  0.101948  0  0.94972  0  0  0.117313  0  1.001173  0  0  0.119907  0  1.000398  0  0.07724  0  0.109248  0.115434  0  1.001763  0
H  H49  1  0.32429864  0.14075452  0.03472342  1  0  0.101949  0  0.949762  0  0  0.117319  0  1.001203  0  0  0.119904  0  1.000443  0  0.077147  0  0.109279  0.115464  0  1.001764  0
H  H50  1  0.82430551  0.64075022  0.46527253  1  0  0.101973  0  0.949681  0  0  0.117335  0  1.001156  0  0  0.11992  0  1.000393  0  0.077268  0  0.109261  0.115466  0  1.001735  0
H  H51  1  0.32430559  0.35924769  0.53472342  1  0  0.101954  0  0.949736  0  0  0.117308  0  1.001191  0  0  0.119927  0  1.000386  0  0.077206  0  0.109276  0.115432  0  1.001776  0
H  H52  1  0.03188311  0.80918892  0.09455888  1  0  0.090881  0  0.94554  0  0  0.103016  0  1.001787  0  0  0.105777  0  1.000909  0  0.060389  0  0.102435  0.101015  0  1.002506  0
H  H53  1  0.53188998  0.19081457  0.90544180  1  0  0.090866  0  0.945505  0  0  0.103009  0  1.001735  0  0  0.10577  0  1.000858  0  0.060453  0  0.102443  0.101007  0  1.002455  0
H  H54  1  0.03188589  0.69081120  0.59455820  1  0  0.090867  0  0.9455  0  0  0.103001  0  1.001743  0  0  0.105763  0  1.000865  0  0.060417  0  0.102439  0.100999  0  1.002463  0
H  H55  1  0.53189137  0.30918764  0.40543977  1  0  0.090844  0  0.945489  0  0  0.102983  0  1.001718  0  0  0.105744  0  1.000839  0  0.060395  0  0.10243  0.100982  0  1.002437  0
C  C56  1  0.13060549  0.63477941  0.03852924  1  0  -0.073116  0  3.781989  0  0  -0.088785  0  4.036353  0  0  -0.090628  0  4.058006  0  -0.075832  0  -0.09437  -0.087497  0  4.021623  0
C  C57  1  0.63061236  0.36521850  0.96147279  1  0  -0.07323  0  3.781853  0  0  -0.08883  0  4.036212  0  0  -0.090671  0  4.057859  0  -0.075821  0  -0.094354  -0.087542  0  4.021478  0
C  C58  1  0.13060132  0.86522257  0.53852924  1  0  -0.073186  0  3.781926  0  0  -0.088824  0  4.036278  0  0  -0.090667  0  4.057933  0  -0.07571  0  -0.094371  -0.087536  0  4.021548  0
C  C59  1  0.63060958  0.13477720  0.46146671  1  0  -0.073284  0  3.781836  0  0  -0.088938  0  4.036205  0  0  -0.090778  0  4.05785  0  -0.075569  0  -0.094417  -0.08765  0  4.021477  0
C  C60  1  0.12427031  0.54934580  0.96838859  1  0  -0.139077  0  3.739076  0  0  -0.155952  0  3.989222  0  0  -0.157944  0  4.008961  0  -0.025366  0  -0.088317  -0.154477  0  3.975831  0
C  C61  1  0.62427718  0.45065118  0.03162019  1  0  -0.139033  0  3.739016  0  0  -0.155889  0  3.989135  0  0  -0.157882  0  4.008876  0  -0.024894  0  -0.088292  -0.154412  0  3.975743  0
C  C62  1  0.12426614  0.95065525  0.46838791  1  0  -0.139087  0  3.739077  0  0  -0.155951  0  3.989247  0  0  -0.157941  0  4.00899  0  -0.025347  0  -0.088333  -0.154475  0  3.975857  0
C  C63  1  0.62426744  0.04934266  0.53161344  1  0  -0.139  0  3.73897  0  0  -0.155889  0  3.98913  0  0  -0.157876  0  4.008871  0  -0.025324  0  -0.088308  -0.154414  0  3.975741  0
C  C64  1  0.00575812  0.57737798  0.89575347  1  0  0.119785  0  3.831014  0  0  0.114497  0  4.075976  0  0  0.116852  0  4.098485  0  0.3328  0  0.092557  0.1128  0  4.060911  0
C  C65  1  0.50575943  0.42261993  0.10424788  1  0  0.119627  0  3.831267  0  0  0.114303  0  4.07625  0  0  0.116657  0  4.09876  0  0.332766  0  0.092495  0.112607  0  4.061184  0
C  C66  1  0.00575256  0.92262586  0.39575347  1  0  0.119823  0  3.831156  0  0  0.114448  0  4.076216  0  0  0.116792  0  4.098742  0  0.332738  0  0.092526  0.112751  0  4.061151  0
C  C67  1  0.50575526  0.07737670  0.60424383  1  0  0.119723  0  3.831165  0  0  0.114429  0  4.076145  0  0  0.116776  0  4.098673  0  0.332749  0  0.092543  0.112734  0  4.061079  0
C  C68  1  0.55118616  0.72816200  0.63581745  1  0  -0.69706  0  3.535978  0  0  -0.736434  0  3.771675  0  0  -0.749128  0  3.779076  0  -0.517246  0  -0.339849  -0.727651  0  3.766542  0
C  C69  1  0.05118485  0.27183870  0.36418322  1  0  -0.697105  0  3.535976  0  0  -0.736489  0  3.771677  0  0  -0.749189  0  3.779072  0  -0.517342  0  -0.339844  -0.727714  0  3.766533  0
C  C70  1  0.55118616  0.77183719  0.13581678  1  0  -0.697074  0  3.535938  0  0  -0.736438  0  3.77165  0  0  -0.749133  0  3.779048  0  -0.517286  0  -0.339858  -0.727663  0  3.766504  0
C  C71  1  0.05118902  0.22816165  0.86418255  1  0  -0.697134  0  3.535959  0  0  -0.736513  0  3.771668  0  0  -0.749208  0  3.779065  0  -0.517295  0  -0.339861  -0.727731  0  3.766534  0
C  C72  1  0.89906654  0.68816681  0.89435911  1  0  0.114434  0  3.838173  0  0  0.108366  0  4.08436  0  0  0.110737  0  4.107518  0  0.368818  0  0.091997  0.10673  0  4.068796  0
C  C73  1  0.39906245  0.31183203  0.10564224  1  0  0.114501  0  3.838215  0  0  0.108444  0  4.084368  0  0  0.110819  0  4.10752  0  0.369024  0  0.091966  0.106806  0  4.068815  0
C  C74  1  0.89906793  0.81183517  0.39435911  1  0  0.114351  0  3.838185  0  0  0.108282  0  4.084414  0  0  0.110659  0  4.107568  0  0.369006  0  0.092  0.106647  0  4.068853  0
C  C75  1  0.39906384  0.18816553  0.60563887  1  0  0.114525  0  3.838079  0  0  0.108371  0  4.084367  0  0  0.110748  0  4.10753  0  0.369422  0  0.091975  0.106734  0  4.068805  0
C  C76  1  0.43749489  0.84421914  0.86424667  1  0  -0.693329  0  3.529929  0  0  -0.729583  0  3.761764  0  0  -0.742263  0  3.768674  0  -0.479741  0  -0.336968  -0.720747  0  3.756951  0
C  C77  1  0.93749619  0.15578156  0.13575266  1  0  -0.693291  0  3.529881  0  0  -0.729559  0  3.761719  0  0  -0.742236  0  3.768635  0  -0.479734  0  -0.336964  -0.720717  0  3.756912  0
C  C78  1  0.43750045  0.65578098  0.36424532  1  0  -0.693262  0  3.529914  0  0  -0.72954  0  3.761759  0  0  -0.742217  0  3.768673  0  -0.480035  0  -0.336975  -0.720699  0  3.756951  0
C  C79  1  0.93749898  0.34421972  0.63575401  1  0  -0.693247  0  3.529965  0  0  -0.729513  0  3.761776  0  0  -0.742189  0  3.768694  0  -0.479787  0  -0.336948  -0.720669  0  3.75697  0
C  C80  1  0.86561214  0.95960634  0.74637371  1  0  -0.694925  0  3.527829  0  0  -0.735589  0  3.760865  0  0  -0.748398  0  3.768909  0  -0.440172  0  -0.340068  -0.726478  0  3.755099  0
C  C81  1  0.36561222  0.04039436  0.25362494  1  0  -0.694974  0  3.527749  0  0  -0.735596  0  3.760792  0  0  -0.748404  0  3.76884  0  -0.44015  0  -0.340064  -0.726485  0  3.755024  0
C  C82  1  0.86561492  0.54039564  0.24637236  1  0  -0.695034  0  3.52783  0  0  -0.735693  0  3.760857  0  0  -0.748504  0  3.768895  0  -0.440152  0  -0.340046  -0.72658  0  3.755092  0
C  C83  1  0.36561501  0.45960413  0.75362764  1  0  -0.69501  0  3.527758  0  0  -0.735657  0  3.76078  0  0  -0.748472  0  3.768814  0  -0.440151  0  -0.340043  -0.726544  0  3.755014  0
C  C84  1  0.90669629  0.77419499  0.96578006  1  0  -0.141565  0  3.764078  0  0  -0.15655  0  4.011098  0  0  -0.159051  0  4.031737  0  -0.012258  0  -0.086844  -0.154785  0  3.997069  0
C  C85  1  0.40669498  0.22580757  0.03422061  1  0  -0.141668  0  3.764206  0  0  -0.156656  0  4.011236  0  0  -0.159153  0  4.03188  0  -0.01238  0  -0.086882  -0.15491  0  3.997202  0
C  C86  1  0.90669768  0.72580792  0.46577804  1  0  -0.14166  0  3.764236  0  0  -0.156677  0  4.011315  0  0  -0.159172  0  4.031954  0  -0.012517  0  -0.086921  -0.154919  0  3.997283  0
C  C87  1  0.40670055  0.27419278  0.53421522  1  0  -0.141698  0  3.764068  0  0  -0.156648  0  4.011113  0  0  -0.159171  0  4.031748  0  -0.012751  0  -0.086874  -0.154884  0  3.997086  0
C  C88  1  0.02323272  0.74538401  0.03743251  1  0  -0.074236  0  3.779024  0  0  -0.088369  0  4.030762  0  0  -0.090815  0  4.053186  0  -0.035258  0  -0.09222  -0.086579  0  4.015469  0
C  C89  1  0.52323403  0.25461390  0.96257154  1  0  -0.07412  0  3.77892  0  0  -0.088261  0  4.030646  0  0  -0.090705  0  4.053067  0  -0.03519  0  -0.092216  -0.086473  0  4.01536  0
C  C90  1  0.02322855  0.75461797  0.53743116  1  0  -0.074114  0  3.779003  0  0  -0.088216  0  4.030715  0  0  -0.090661  0  4.053139  0  -0.035304  0  -0.092171  -0.086427  0  4.015425  0
C  C91  1  0.52323403  0.24538366  0.46256817  1  0  -0.074003  0  3.778924  0  0  -0.088117  0  4.030617  0  0  -0.090564  0  4.053052  0  -0.034992  0  -0.092151  -0.086328  0  4.015325  0
N  N92  1  0.96599479  0.51577363  0.81679985  1  0  -0.317791  0  3.194869  0  0  -0.249146  0  3.460566  0  0  -0.263558  0  3.478311  0  -0.724514  0  -0.202267  -0.239585  0  3.448662  0
N  N93  1  0.46599488  0.48422242  0.18320353  1  0  -0.31777  0  3.195057  0  0  -0.249085  0  3.460724  0  0  -0.263497  0  3.478471  0  -0.724581  0  -0.202213  -0.239525  0  3.44882  0
N  N94  1  0.96599201  0.98422650  0.31679850  1  0  -0.317898  0  3.195055  0  0  -0.249175  0  3.460714  0  0  -0.263587  0  3.478466  0  -0.724528  0  -0.202241  -0.239614  0  3.448811  0
N  N95  1  0.46599071  0.01577421  0.68319948  1  0  -0.317856  0  3.195054  0  0  -0.249133  0  3.46067  0  0  -0.263556  0  3.478435  0  -0.724447  0  -0.202247  -0.239573  0  3.448765  0
N  N96  1  0.80240907  0.68694139  0.81443497  1  0  -0.303554  0  3.186029  0  0  -0.234491  0  3.449865  0  0  -0.249076  0  3.468474  0  -0.746498  0  -0.199591  -0.224645  0  3.437148  0
N  N97  1  0.30240359  0.31305931  0.18556571  1  0  -0.303503  0  3.186075  0  0  -0.234422  0  3.449874  0  0  -0.249009  0  3.468483  0  -0.746572  0  -0.199569  -0.224576  0  3.437159  0
N  N98  1  0.80240907  0.81305966  0.31443429  1  0  -0.303472  0  3.185883  0  0  -0.234347  0  3.449667  0  0  -0.248931  0  3.468273  0  -0.746476  0  -0.199566  -0.224501  0  3.43695  0
N  N99  1  0.30240777  0.18694104  0.68556301  1  0  -0.303549  0  3.186138  0  0  -0.234443  0  3.449975  0  0  -0.249026  0  3.46858  0  -0.746832  0  -0.199588  -0.224596  0  3.437258  0
N  N100  1  0.84584458  0.58373214  0.76943740  1  0  -0.044667  0  2.98198  0  0  -0.043585  0  3.259244  0  0  -0.037034  0  3.271501  0  -0.091199  0  -0.078502  -0.047549  0  3.250955  0
N  N101  1  0.34583910  0.41626763  0.23056463  1  0  -0.04472  0  2.982181  0  0  -0.043654  0  3.259429  0  0  -0.037102  0  3.27169  0  -0.091168  0  -0.078502  -0.047617  0  3.251139  0
N  N102  1  0.84584180  0.91626891  0.26943672  1  0  -0.044623  0  2.982108  0  0  -0.043576  0  3.259347  0  0  -0.037024  0  3.271605  0  -0.091272  0  -0.078485  -0.04754  0  3.251059  0
N  N103  1  0.34584189  0.08373272  0.73056125  1  0  -0.044642  0  2.982181  0  0  -0.043588  0  3.259418  0  0  -0.037039  0  3.271694  0  -0.091208  0  -0.078496  -0.047551  0  3.251127  0
