# generated using pymatgen
data_CuH20C8S4(ClO6)2
_symmetry_space_group_name_H-M   'P 1'
_cell_length_a   8.26393662
_cell_length_b   9.40345962
_cell_length_c   12.40012338
_cell_angle_alpha   90.00020364
_cell_angle_beta   90.00004640
_cell_angle_gamma   97.42180740
_symmetry_Int_Tables_number   1
_chemical_formula_structural   CuH20C8S4(ClO6)2
_chemical_formula_sum   'Cu2 H40 C16 S8 Cl4 O24'
_cell_volume   955.53551103
_cell_formula_units_Z   2
loop_
 _symmetry_equiv_pos_site_id
 _symmetry_equiv_pos_as_xyz
  1  'x, y, z'
loop_
 _atom_site_type_symbol
 _atom_site_label
 _atom_site_symmetry_multiplicity
 _atom_site_fract_x
 _atom_site_fract_y
 _atom_site_fract_z
 _atom_site_occupancy
 _atom_site_hle17_ddec_charge
 _atom_site_hle17_ddec_spin_density
 _atom_site_hle17_ddec_sum_bond_order
 _atom_site_hle17_magmom
 _atom_site_hse06_10hf_ddec_charge
 _atom_site_hse06_10hf_ddec_spin_density
 _atom_site_hse06_10hf_ddec_sum_bond_order
 _atom_site_hse06_10hf_magmom
 _atom_site_hse06_ddec_charge
 _atom_site_hse06_ddec_spin_density
 _atom_site_hse06_ddec_sum_bond_order
 _atom_site_hse06_magmom
 _atom_site_pbe_cm5_charge
 _atom_site_pbe_ddec_charge
 _atom_site_pbe_ddec_spin_density
 _atom_site_pbe_ddec_sum_bond_order
 _atom_site_pbe_magmom
Cu  Cu0  1  0.00000203  0.00000139  0.99999973  1  0.989186  0.702212  1.65867  0.499  1.009115  0.810685  2.027822  0.638  1.097778  0.891307  1.971109  0.735  0.678231  0.937999  0.749666  2.093401  0.574
Cu  Cu1  1  0.49999906  0.99999746  0.49999973  1  0.989172  -0.702212  1.658648  -0.499  1.009106  -0.810684  2.027768  -0.638  1.097738  -0.891305  1.971069  -0.735  0.678224  0.937989  -0.749666  2.09334  -0.574
H  H2  1  0.82592072  0.41163206  0.07797338  1  0.173277  -0.000283  0.955084  0.0  0.186928  -7.8e-05  1.014496  0.0  0.189052  -5.3e-05  1.013948  0.0  0.106785  0.185239  -8.5e-05  1.015251  0.0
H  H3  1  0.32592754  0.41163205  0.42202386  1  0.173258  0.000279  0.955115  0.0  0.186909  7.7e-05  1.01453  0.0  0.189031  5.3e-05  1.013977  0.0  0.106775  0.185219  8.5e-05  1.01529  0.0
H  H4  1  0.17408081  0.58836749  0.92202392  1  0.173289  -0.000287  0.955099  0.0  0.186935  -7.7e-05  1.014514  0.0  0.189059  -5.3e-05  1.013965  0.0  0.106786  0.185251  -8.5e-05  1.01526  0.0
H  H5  1  0.67407110  0.58836428  0.57797586  1  0.173262  0.000281  0.955057  0.0  0.186924  7.7e-05  1.014481  0.0  0.189047  5.3e-05  1.013929  0.0  0.106799  0.185235  8.5e-05  1.01524  0.0
H  H6  1  0.64962272  0.38100323  0.16421599  1  0.164473  0.000498  0.934106  0.001  0.18183  0.00054  0.991793  0.001  0.183246  0.000389  0.991831  0.001  0.108683  0.180492  0.000631  0.992297  0.001
H  H7  1  0.14963363  0.38100710  0.33578350  1  0.164471  -0.000504  0.934218  -0.001  0.18185  -0.00054  0.991861  -0.001  0.183266  -0.000389  0.991895  -0.001  0.108703  0.180513  -0.000631  0.992369  -0.001
H  H8  1  0.35037471  0.61899310  0.83578293  1  0.164429  0.000495  0.934217  0.001  0.181795  0.00054  0.991899  0.001  0.183211  0.000389  0.99194  0.001  0.108682  0.180459  0.000631  0.992405  0.001
H  H9  1  0.85036275  0.61899030  0.66421703  1  0.16442  -0.000496  0.934245  -0.001  0.1818  -0.00054  0.991899  -0.001  0.183216  -0.000388  0.991937  -0.001  0.108686  0.180464  -0.000631  0.992404  -0.001
H  H10  1  0.62927818  0.33808083  0.02343829  1  0.160415  -0.000144  0.93535  0.0  0.176357  -3.8e-05  0.994427  0.0  0.178578  -5.1e-05  0.99356  0.0  0.104274  0.174656  0.0  0.995304  0.0
H  H11  1  0.12928680  0.33808431  0.47656268  1  0.160433  0.000136  0.935358  0.0  0.176374  3.9e-05  0.994423  0.0  0.178591  5.2e-05  0.993557  0.0  0.104254  0.174674  -0.0  0.995303  0.0
H  H12  1  0.37072214  0.66191872  0.97656063  1  0.160398  -0.000149  0.935351  0.0  0.17635  -3.8e-05  0.994412  0.0  0.178571  -5.1e-05  0.993546  0.0  0.104261  0.174648  0.0  0.99529  0.0
H  H13  1  0.87071185  0.66191202  0.52343785  1  0.160425  0.000145  0.93532  0.0  0.176374  3.8e-05  0.994377  0.0  0.178592  5.2e-05  0.993512  0.0  0.104248  0.174668  -0.0  0.995261  0.0
H  H14  1  0.50754911  0.13261294  0.21688687  1  0.120044  7.2e-05  0.962406  0.0  0.124117  0.000184  1.038054  0.0  0.125395  0.00016  1.038745  0.0  0.102418  0.122888  0.000186  1.038124  0.0
H  H15  1  0.00755250  0.13261547  0.28311349  1  0.120032  -6.7e-05  0.962413  0.0  0.124096  -0.000185  1.038039  0.0  0.125386  -0.000161  1.038718  0.0  0.102424  0.122869  -0.000186  1.038112  0.0
H  H16  1  0.49245047  0.86738982  0.78311286  1  0.12004  6.7e-05  0.962381  0.0  0.124106  0.000184  1.038039  0.0  0.125387  0.000161  1.038727  0.0  0.102418  0.122879  0.000186  1.03811  0.0
H  H17  1  0.99244813  0.86738623  0.71688946  1  0.120051  -6.8e-05  0.962368  0.0  0.124127  -0.000184  1.037998  0.0  0.12543  -0.000161  1.038667  0.0  0.102433  0.122901  -0.000186  1.038072  0.0
H  H18  1  0.48221068  0.10976125  0.07551404  1  0.132501  -0.000164  0.927029  0.0  0.1478  -7.1e-05  0.981334  0.0  0.148847  -5.8e-05  0.981984  0.0  0.111022  0.14705  -6e-05  0.981053  0.0
H  H19  1  0.98221710  0.10976619  0.42448570  1  0.132468  0.000171  0.927042  0.0  0.147729  7.1e-05  0.98138  0.0  0.148777  5.9e-05  0.98203  0.0  0.111001  0.146979  6e-05  0.981102  0.0
H  H20  1  0.51778691  0.89023615  0.92448730  1  0.132478  -0.000166  0.926932  0.0  0.147749  -7.1e-05  0.981289  0.0  0.148797  -5.8e-05  0.981939  0.0  0.111008  0.146999  -6e-05  0.981007  0.0
H  H21  1  0.01778322  0.89023336  0.57551644  1  0.132493  0.000171  0.926992  0.0  0.147774  7.1e-05  0.981333  0.0  0.148822  5.9e-05  0.981986  0.0  0.111025  0.147025  6e-05  0.981055  0.0
H  H22  1  0.63004241  0.87490349  0.10163420  1  0.138496  -0.000382  0.950703  0.0  0.146416  -0.000468  1.016705  -0.001  0.148523  -0.000356  1.015692  0.0  0.110132  0.144744  -0.000537  1.017691  -0.001
H  H23  1  0.13004724  0.87490658  0.39836499  1  0.13847  0.000383  0.950655  0.0  0.146393  0.000468  1.0167  0.001  0.148503  0.000356  1.01569  0.0  0.110131  0.144714  0.000537  1.017698  0.001
H  H24  1  0.36995596  0.12509927  0.89836713  1  0.138492  -0.000385  0.950701  0.0  0.146381  -0.000468  1.016713  -0.001  0.148493  -0.000356  1.015705  0.0  0.11012  0.144723  -0.000537  1.017683  -0.001
H  H25  1  0.86995187  0.12509297  0.60163393  1  0.138501  0.000389  0.950657  0.0  0.146399  0.000468  1.01672  0.001  0.148512  0.000356  1.01571  0.0  0.110124  0.144712  0.000537  1.017726  0.001
H  H26  1  0.41986105  0.87148990  0.13748056  1  0.116883  0.000361  0.950903  0.0  0.126196  0.000211  1.019583  0.0  0.127958  0.000132  1.01999  0.0  0.104573  0.124892  0.000273  1.01953  0.0
H  H27  1  0.91986372  0.87149453  0.36252039  1  0.116849  -0.000361  0.950913  0.0  0.126184  -0.000212  1.019609  0.0  0.127952  -0.00013  1.020013  0.0  0.104556  0.124877  -0.000273  1.019558  0.0
H  H28  1  0.58013958  0.12851180  0.86252320  1  0.116864  0.000359  0.950909  0.0  0.126198  0.000211  1.019545  0.0  0.127968  0.000132  1.019953  0.0  0.104578  0.124893  0.000273  1.01949  0.0
H  H29  1  0.08013555  0.12850609  0.63747934  1  0.116907  -0.000356  0.950882  0.0  0.126253  -0.000212  1.019534  0.0  0.128024  -0.000131  1.019942  0.0  0.104599  0.12495  -0.000273  1.019481  0.0
H  H30  1  0.42662592  0.64781951  0.24276873  1  0.161872  2.6e-05  0.930882  0.0  0.181714  2.3e-05  0.983155  0.0  0.183483  4.4e-05  0.983048  0.0  0.109509  0.180486  -2.5e-05  0.983425  0.0
H  H31  1  0.92662522  0.64782684  0.25722678  1  0.161891  -2.4e-05  0.930886  0.0  0.181719  -2.3e-05  0.983154  0.0  0.183497  -4.4e-05  0.983038  0.0  0.109504  0.18049  2.5e-05  0.983422  0.0
H  H32  1  0.57337319  0.35218003  0.75723100  1  0.161865  2.5e-05  0.930856  0.0  0.181699  2.3e-05  0.983138  0.0  0.183474  4.4e-05  0.983023  0.0  0.109508  0.180473  -2.5e-05  0.983404  0.0
H  H33  1  0.07337334  0.35218557  0.74276972  1  0.161869  -2.8e-05  0.930858  0.0  0.181698  -2.3e-05  0.98315  0.0  0.183477  -4.4e-05  0.983032  0.0  0.109492  0.180472  2.5e-05  0.983416  0.0
H  H34  1  0.63887937  0.64518921  0.21472390  1  0.166637  -8.4e-05  0.931301  0.0  0.184983  -0.000139  0.987295  0.0  0.186778  -0.000109  0.986956  0.0  0.112293  0.18348  -0.000162  0.988042  0.0
H  H35  1  0.13887945  0.64519389  0.28527226  1  0.166687  9e-05  0.931245  0.0  0.185036  0.000139  0.987209  0.0  0.186831  0.00011  0.986869  0.0  0.112332  0.183533  0.000162  0.987958  0.0
H  H36  1  0.36111896  0.35480497  0.78527421  1  0.166644  -8.6e-05  0.93129  0.0  0.185  -0.000139  0.987262  0.0  0.186795  -0.00011  0.986924  0.0  0.112308  0.183499  -0.000162  0.988011  0.0
H  H37  1  0.86111923  0.35481102  0.71472747  1  0.166653  8.3e-05  0.931242  0.0  0.184999  0.000139  0.98723  0.0  0.186793  0.00011  0.986892  0.0  0.112318  0.183497  0.000162  0.987976  0.0
H  H38  1  0.56602763  0.62816137  0.35218297  1  0.175143  0.000161  0.930472  0.0  0.189805  4.8e-05  0.988375  0.0  0.192152  3.6e-05  0.987433  0.0  0.110744  0.188075  4.7e-05  0.989203  0.0
H  H39  1  0.06602669  0.62816858  0.14781310  1  0.17517  -0.000154  0.930536  0.0  0.189811  -4.8e-05  0.988434  0.0  0.192158  -3.6e-05  0.987495  0.0  0.110765  0.18808  -4.7e-05  0.989261  0.0
H  H40  1  0.43397238  0.37183603  0.64781433  1  0.175172  0.000157  0.930494  0.0  0.189802  4.8e-05  0.988429  0.0  0.19215  3.6e-05  0.987487  0.0  0.110753  0.188071  4.7e-05  0.989258  0.0
H  H41  1  0.93397245  0.37183954  0.85218421  1  0.175119  -0.000161  0.930471  0.0  0.189764  -4.8e-05  0.988387  0.0  0.192112  -3.6e-05  0.987444  0.0  0.110727  0.188034  -4.7e-05  0.989213  0.0
C  C42  1  0.71094744  0.34349434  0.09335295  1  -0.429973  0.006656  3.544258  0.007  -0.50444  0.004054  3.794876  0.004  -0.508522  0.002636  3.800206  0.003  -0.23583  -0.501642  0.005093  3.791764  0.005
C  C43  1  0.21095439  0.34349534  0.40664647  1  -0.429956  -0.006623  3.544339  -0.007  -0.504445  -0.004053  3.794946  -0.004  -0.508544  -0.002636  3.800331  -0.003  -0.235819  -0.501621  -0.005092  3.791776  -0.005
C  C44  1  0.28905288  0.65650521  0.90664516  1  -0.429896  0.006673  3.544373  0.007  -0.504382  0.004054  3.795002  0.004  -0.508463  0.002636  3.800334  0.003  -0.23581  -0.501581  0.005092  3.791881  0.005
C  C45  1  0.78904335  0.65650314  0.59335325  1  -0.429913  -0.006651  3.544249  -0.007  -0.504411  -0.004052  3.794847  -0.004  -0.508501  -0.002638  3.800208  -0.003  -0.235821  -0.501592  -0.005092  3.791697  -0.005
C  C46  1  0.55409526  0.08260366  0.14514317  1  -0.221045  0.003423  3.585658  0.004  -0.249194  0.001805  3.829384  0.002  -0.25081  0.001098  3.83972  0.001  -0.15563  -0.248171  0.002395  3.82302  0.003
C  C47  1  0.05409879  0.08260653  0.35485708  1  -0.221002  -0.003442  3.585572  -0.004  -0.249075  -0.001806  3.829307  -0.002  -0.250695  -0.0011  3.839657  -0.001  -0.155623  -0.248038  -0.002395  3.822902  -0.003
C  C48  1  0.44590295  0.91739803  0.85485736  1  -0.220986  0.003433  3.585597  0.004  -0.249144  0.001805  3.829326  0.002  -0.250755  0.001098  3.839681  0.001  -0.155652  -0.248119  0.002394  3.822941  0.003
C  C49  1  0.94589910  0.91739301  0.64514507  1  -0.220997  -0.003432  3.585569  -0.004  -0.249188  -0.001807  3.82944  -0.002  -0.250816  -0.001102  3.839786  -0.001  -0.155651  -0.248154  -0.002395  3.823032  -0.003
C  C50  1  0.54469576  0.92121609  0.15532242  1  -0.229853  -0.008167  3.599112  -0.009  -0.263838  -0.004803  3.852246  -0.005  -0.266798  -0.003118  3.862224  -0.004  -0.15583  -0.262017  -0.00606  3.846281  -0.007
C  C51  1  0.04470049  0.92121892  0.34467766  1  -0.229737  0.008162  3.599009  0.009  -0.26384  0.004804  3.852232  0.005  -0.266825  0.003117  3.862248  0.004  -0.155834  -0.262011  0.00606  3.846277  0.007
C  C52  1  0.45530214  0.07878345  0.84467892  1  -0.229931  -0.008154  3.599314  -0.009  -0.263848  -0.004802  3.852341  -0.005  -0.266842  -0.003118  3.862368  -0.004  -0.155846  -0.262022  -0.006059  3.846362  -0.007
C  C53  1  0.95529862  0.07878063  0.65532207  1  -0.229895  0.008131  3.599151  0.009  -0.26393  0.004804  3.852307  0.005  -0.266931  0.003121  3.862347  0.004  -0.155867  -0.262093  0.006059  3.846355  0.007
C  C54  1  0.55084239  0.67735155  0.27328302  1  -0.423918  -0.002573  3.516604  -0.003  -0.493483  -0.001479  3.757824  -0.002  -0.496815  -0.000906  3.761575  -0.001  -0.225291  -0.491432  -0.001876  3.755829  -0.002
C  C55  1  0.05083994  0.67735593  0.22671399  1  -0.424066  0.002543  3.516714  0.003  -0.493544  0.001479  3.757831  0.002  -0.496887  0.000906  3.761568  0.001  -0.225363  -0.491486  0.001876  3.75583  0.002
C  C56  1  0.44915761  0.32264586  0.72671510  1  -0.423947  -0.00257  3.51664  -0.003  -0.493468  -0.001479  3.757827  -0.002  -0.496805  -0.000904  3.761567  -0.001  -0.225309  -0.491413  -0.001876  3.755833  -0.002
C  C57  1  0.94915948  0.32264576  0.77328332  1  -0.423918  0.002584  3.516557  0.003  -0.493426  0.001479  3.757755  0.002  -0.49677  0.000904  3.761493  0.001  -0.225289  -0.491383  0.001876  3.755788  0.002
S  S58  1  0.76102066  0.16895325  0.12375242  1  0.711196  0.006736  3.465994  0.0  0.682009  0.005039  3.911068  0.0  0.697911  0.002377  3.910372  -0.001  0.304804  0.671569  0.007835  3.909878  0.002
S  S59  1  0.26102619  0.16895302  0.37624817  1  0.711212  -0.00674  3.466021  0.0  0.681957  -0.005039  3.911098  0.0  0.697864  -0.002379  3.910395  0.001  0.304807  0.671519  -0.007834  3.909909  -0.002
S  S60  1  0.23897723  0.83104630  0.87624730  1  0.711149  0.006729  3.466052  0.0  0.681946  0.005038  3.911132  0.0  0.697849  0.002376  3.910438  -0.001  0.304818  0.671503  0.007833  3.909946  0.002
S  S61  1  0.73897276  0.83104546  0.62375317  1  0.711219  -0.006742  3.465989  0.0  0.682003  -0.005038  3.911072  0.0  0.697908  -0.002376  3.910375  0.001  0.304798  0.671562  -0.007833  3.909878  -0.002
S  S62  1  0.59254758  0.86717188  0.29019844  1  0.717593  -0.006647  3.483762  0.0  0.691597  -0.004981  3.926977  0.0  0.708801  -0.002306  3.924748  0.001  0.306131  0.68014  -0.007637  3.927335  -0.002
S  S63  1  0.09254751  0.86717618  0.20980152  1  0.717599  0.006655  3.483804  0.0  0.69161  0.004979  3.92702  0.0  0.708823  0.002304  3.924805  -0.001  0.30617  0.680153  0.007637  3.927379  0.002
S  S64  1  0.40745243  0.13282553  0.70980452  1  0.717618  -0.006647  3.483884  0.0  0.691608  -0.004981  3.927088  0.0  0.708823  -0.002306  3.924871  0.001  0.306162  0.68015  -0.007637  3.927452  -0.002
S  S65  1  0.90745102  0.13282766  0.79019740  1  0.717584  0.006654  3.483921  0.0  0.691581  0.00498  3.927136  0.0  0.708796  0.002304  3.924925  -0.001  0.306108  0.680124  0.007637  3.927491  0.002
Cl  Cl66  1  0.75994518  0.66926472  0.91971453  1  1.392161  -0.000146  6.202339  0.0  1.330899  -0.000163  6.768023  0.0  1.383219  -0.000109  6.743652  0.0  0.724306  1.29487  -0.00019  6.782674  0.0
Cl  Cl67  1  0.25994392  0.66926195  0.58028955  1  1.392308  0.000145  6.202531  0.0  1.331025  0.000163  6.7682  0.0  1.383341  0.000109  6.743835  0.0  0.724322  1.294995  0.00019  6.782856  0.0
Cl  Cl68  1  0.24005666  0.33073698  0.08028277  1  1.39216  -0.000145  6.202426  0.0  1.330886  -0.000163  6.768093  0.0  1.383205  -0.000112  6.743729  0.0  0.72425  1.294856  -0.00019  6.782747  0.0
Cl  Cl69  1  0.74005835  0.33073439  0.41971098  1  1.392223  0.000144  6.202443  0.0  1.330925  0.000163  6.768152  0.0  1.383239  0.000119  6.743786  0.0  0.724249  1.294896  0.00019  6.782808  0.0
O  O70  1  0.80794143  0.10803643  0.01340265  1  -0.644551  0.076605  2.021342  0.099  -0.612746  0.048916  2.336905  0.069  -0.648515  0.03689  2.329511  0.055  -0.360556  -0.586092  0.055737  2.341072  0.075
O  O71  1  0.30793929  0.10803244  0.48659700  1  -0.644595  -0.076599  2.021392  -0.099  -0.612719  -0.048913  2.336905  -0.069  -0.648477  -0.036888  2.329502  -0.055  -0.360539  -0.586082  -0.055732  2.341091  -0.075
O  O72  1  0.19206146  0.89196420  0.98659869  1  -0.644553  0.076605  2.021396  0.099  -0.612724  0.048913  2.336942  0.069  -0.648487  0.036889  2.329545  0.055  -0.360548  -0.586079  0.055734  2.341133  0.075
O  O73  1  0.69206119  0.89196818  0.51340273  1  -0.644609  -0.076597  2.021408  -0.099  -0.612722  -0.048915  2.336901  -0.069  -0.648482  -0.036889  2.329499  -0.055  -0.360527  -0.586085  -0.055735  2.341088  -0.075
O  O74  1  0.44863380  0.90898081  0.35808568  1  -0.637777  -0.072118  2.020065  -0.093  -0.60705  -0.047177  2.336227  -0.066  -0.642525  -0.036229  2.328162  -0.054  -0.36003  -0.580791  -0.053119  2.341438  -0.072
O  O75  1  0.94863240  0.90898435  0.14191458  1  -0.637757  0.072118  2.020012  0.093  -0.60704  0.047177  2.336181  0.066  -0.642522  0.036227  2.328121  0.054  -0.360017  -0.58078  0.053118  2.341397  0.072
O  O76  1  0.55136379  0.09101659  0.64191566  1  -0.637719  -0.07211  2.020056  -0.093  -0.607035  -0.047175  2.336262  -0.066  -0.642509  -0.036228  2.328195  -0.054  -0.360015  -0.580775  -0.053113  2.341473  -0.072
O  O77  1  0.05136401  0.09102163  0.85808757  1  -0.637773  0.072108  2.020133  0.093  -0.607014  0.047173  2.336252  0.066  -0.642493  0.036222  2.328192  0.054  -0.359967  -0.580752  0.053112  2.341473  0.072
O  O78  1  0.81319531  0.81843494  0.88590299  1  -0.60699  -0.001159  1.93453  0.0  -0.600308  -0.001049  2.233212  0.0  -0.615977  -0.001073  2.215498  -0.001  -0.330469  -0.587424  -0.000996  2.24453  0.0
O  O79  1  0.31318943  0.81843340  0.61410072  1  -0.60704  0.001132  1.934714  0.0  -0.600398  0.001052  2.233483  0.0  -0.616065  0.00108  2.215767  0.001  -0.330523  -0.587506  0.000996  2.244795  0.0
O  O80  1  0.18680185  0.18156783  0.11409513  1  -0.606977  -0.00119  1.93465  0.0  -0.600304  -0.001047  2.233345  0.0  -0.615974  -0.001062  2.215632  -0.001  -0.330425  -0.587416  -0.000996  2.244663  0.0
O  O81  1  0.68681058  0.18156400  0.38589901  1  -0.607014  0.001184  1.934532  0.0  -0.600365  0.001046  2.233298  0.0  -0.61603  0.00106  2.215581  0.0  -0.330491  -0.587473  0.000996  2.244609  0.0
O  O82  1  0.66044756  0.67032379  0.01709849  1  -0.546866  1.4e-05  1.86457  0.0  -0.508382  -3.6e-05  2.101484  0.0  -0.524525  -3.1e-05  2.089951  0.0  -0.311219  -0.496938  -2.8e-05  2.108952  0.0
O  O83  1  0.16044720  0.67031550  0.48290662  1  -0.546961  2.5e-05  1.864638  0.0  -0.508462  3.1e-05  2.101551  0.0  -0.524597  2.1e-05  2.090016  0.0  -0.311226  -0.497022  2.8e-05  2.109023  0.0
O  O84  1  0.33956139  0.32967684  0.98290446  1  -0.546908  -4e-06  1.864624  0.0  -0.508395  -3.3e-05  2.101502  0.0  -0.524534  -2.5e-05  2.089971  0.0  -0.311194  -0.496952  -2.8e-05  2.108975  0.0
O  O85  1  0.83955159  0.32968191  0.51709230  1  -0.546904  -3e-06  1.864683  0.0  -0.508376  3.7e-05  2.101553  0.0  -0.52451  2.7e-05  2.090015  0.0  -0.311173  -0.496933  2.8e-05  2.109025  0.0
O  O86  1  0.90280962  0.59815156  0.94185216  1  -0.538348  -0.000102  1.891094  0.0  -0.504784  -5.1e-05  2.134775  0.0  -0.52113  -2.6e-05  2.122976  0.0  -0.305924  -0.493275  -5.9e-05  2.142193  0.0
O  O87  1  0.40280453  0.59814761  0.55815987  1  -0.538331  4.1e-05  1.891199  0.0  -0.504708  5.6e-05  2.134833  0.0  -0.521051  4.7e-05  2.123029  0.0  -0.305831  -0.493201  5.9e-05  2.142254  0.0
O  O88  1  0.09720557  0.40185873  0.05814515  1  -0.538248  -1.9e-05  1.89119  0.0  -0.504733  -5.5e-05  2.134978  0.0  -0.521081  -5e-05  2.12318  0.0  -0.30591  -0.493224  -5.9e-05  2.142398  0.0
O  O89  1  0.59719805  0.40185087  0.44183824  1  -0.538312  1.2e-05  1.891227  0.0  -0.504679  5.5e-05  2.134846  0.0  -0.521019  5.5e-05  2.123041  0.0  -0.305821  -0.493173  5.9e-05  2.142267  0.0
O  O90  1  0.66366835  0.59516888  0.83309107  1  -0.545949  -0.000176  1.847396  0.0  -0.510955  -0.000156  2.083728  0.0  -0.527185  -0.000109  2.072836  0.0  -0.31403  -0.499793  -0.000215  2.091137  0.0
O  O91  1  0.16365925  0.59516975  0.66691840  1  -0.545978  0.000223  1.847184  0.0  -0.51103  0.000153  2.083581  0.0  -0.527257  9.4e-05  2.072692  0.0  -0.314079  -0.499867  0.000216  2.09099  0.0
O  O92  1  0.33633619  0.40482638  0.16691510  1  -0.546004  -0.00021  1.847159  0.0  -0.510985  -0.000157  2.083459  0.0  -0.527213  -9.9e-05  2.072568  0.0  -0.314047  -0.499823  -0.000216  2.090868  0.0
O  O93  1  0.83634407  0.40482551  0.33308213  1  -0.546022  0.000232  1.847236  0.0  -0.511063  0.000153  2.083617  0.0  -0.527291  8.9e-05  2.072728  0.0  -0.3141  -0.499902  0.000215  2.091027  0.0
