# generated using pymatgen
data_CuH4C3(N2O)4
_symmetry_space_group_name_H-M   'P 1'
_cell_length_a   8.82209295
_cell_length_b   9.18364871
_cell_length_c   10.66339067
_cell_angle_alpha   90.00938413
_cell_angle_beta   90.01430551
_cell_angle_gamma   106.80125154
_symmetry_Int_Tables_number   1
_chemical_formula_structural   CuH4C3(N2O)4
_chemical_formula_sum   'Cu4 H16 C12 N32 O16'
_cell_volume   827.05849353
_cell_formula_units_Z   4
loop_
 _symmetry_equiv_pos_site_id
 _symmetry_equiv_pos_as_xyz
  1  'x, y, z'
loop_
 _atom_site_type_symbol
 _atom_site_label
 _atom_site_symmetry_multiplicity
 _atom_site_fract_x
 _atom_site_fract_y
 _atom_site_fract_z
 _atom_site_occupancy
 _atom_site_hle17_ddec_charge
 _atom_site_hle17_ddec_spin_density
 _atom_site_hle17_ddec_sum_bond_order
 _atom_site_hle17_magmom
 _atom_site_hse06_10hf_ddec_charge
 _atom_site_hse06_10hf_ddec_spin_density
 _atom_site_hse06_10hf_ddec_sum_bond_order
 _atom_site_hse06_10hf_magmom
 _atom_site_hse06_ddec_charge
 _atom_site_hse06_ddec_spin_density
 _atom_site_hse06_ddec_sum_bond_order
 _atom_site_hse06_magmom
 _atom_site_pbe_cm5_charge
 _atom_site_pbe_ddec_charge
 _atom_site_pbe_ddec_spin_density
 _atom_site_pbe_ddec_sum_bond_order
 _atom_site_pbe_magmom
Cu  Cu0  1  0.67031556  0.18287785  0.93196159  1  0.840879  0.747313  1.886632  0.555  0.796195  0.822131  2.293702  0.664  0.878729  0.888837  2.230684  0.742  0.798126  0.741312  0.76611  2.340738  0.605
Cu  Cu1  1  0.32965360  0.31721158  0.43212161  1  0.842522  -0.747665  1.886718  -0.555  0.796885  -0.822191  2.295079  -0.664  0.879723  -0.888764  2.231407  -0.742  0.798857  0.742301  -0.76625  2.341855  -0.605
Cu  Cu2  1  0.32979541  0.81708678  0.06804693  1  0.840975  -0.747384  1.887077  -0.555  0.795941  -0.82208  2.294707  -0.664  0.878748  -0.888744  2.231211  -0.742  0.798188  0.741132  -0.766097  2.341703  -0.605
Cu  Cu3  1  0.67027999  0.68279274  0.56789815  1  0.842231  0.747675  1.887548  0.555  0.796639  0.822145  2.295775  0.664  0.879422  0.888702  2.232125  0.742  0.798877  0.742401  0.766228  2.342059  0.605
H  H4  1  0.81398014  0.74297880  0.08120038  1  0.31196  0.000218  0.915313  0.001  0.287658  0.000206  0.980398  0.001  0.297535  0.000189  0.97183  0.001  0.324036  0.280563  0.000217  0.986666  0.001
H  H5  1  0.18597510  0.75701955  0.58115749  1  0.312003  -0.000219  0.915377  -0.001  0.287719  -0.000208  0.980497  -0.001  0.297564  -0.000191  0.971936  -0.001  0.324191  0.280638  -0.00022  0.986755  -0.001
H  H6  1  0.18582408  0.25700610  0.91888500  1  0.311843  -0.000217  0.91568  -0.001  0.287555  -0.000207  0.980679  -0.001  0.297398  -0.000189  0.972166  -0.001  0.324092  0.280444  -0.000217  0.986952  -0.001
H  H7  1  0.81404847  0.24295980  0.41883508  1  0.312208  0.000221  0.914965  0.001  0.287831  0.000208  0.980198  0.001  0.297695  0.00019  0.971601  0.001  0.324233  0.28075  0.00022  0.986461  0.001
H  H8  1  0.90007589  0.57454313  0.91402310  1  0.123761  -0.000137  0.926037  0.0  0.131146  1.4e-05  0.988324  0.0  0.133777  2.3e-05  0.984311  0.0  0.149797  0.129034  2e-06  0.99121  0.0
H  H9  1  0.09991328  0.92529041  0.41385949  1  0.123537  0.000128  0.926434  0.0  0.131155  -1.3e-05  0.988322  0.0  0.133808  -2.1e-05  0.98432  0.0  0.149757  0.12904  -0.0  0.991203  0.0
H  H10  1  0.10027136  0.42557408  0.08622834  1  0.123681  0.000136  0.926247  0.0  0.13132  -1.4e-05  0.988199  0.0  0.133968  -2.2e-05  0.984178  0.0  0.149717  0.129185  -2e-06  0.991128  0.0
H  H11  1  0.90002260  0.07464226  0.58611900  1  0.123457  -0.000141  0.926621  0.0  0.131229  1.3e-05  0.988343  0.0  0.133887  2.1e-05  0.984334  0.0  0.149702  0.129107  1e-06  0.991245  0.0
H  H12  1  0.91919935  0.31209799  0.79237815  1  0.417646  3.9e-05  0.885355  0.0  0.383736  0.000486  0.95996  0.001  0.396376  0.000322  0.941798  0.0  0.292282  0.374733  0.000624  0.97283  0.001
H  H13  1  0.08093215  0.18790990  0.29234457  1  0.417924  -4.6e-05  0.885057  0.0  0.383876  -0.00049  0.959857  -0.001  0.396508  -0.000326  0.941706  0.0  0.292294  0.374885  -0.000629  0.972698  -0.001
H  H14  1  0.08076645  0.68792681  0.20758347  1  0.41761  -4.6e-05  0.885396  0.0  0.383678  -0.000492  0.960036  -0.001  0.396328  -0.000327  0.94186  0.0  0.292249  0.374663  -0.000631  0.972918  -0.001
H  H15  1  0.91906235  0.81213880  0.70758517  1  0.417544  4.6e-05  0.885437  0.0  0.383541  0.00049  0.960266  0.001  0.396183  0.000326  0.942103  0.0  0.292149  0.374534  0.000629  0.973139  0.001
H  H16  1  0.91800614  0.13692411  0.81767148  1  0.420871  0.000294  0.879233  0.0  0.38589  0.000745  0.955987  0.001  0.398347  0.000547  0.937791  0.001  0.294724  0.376905  0.000848  0.969071  0.001
H  H17  1  0.08196122  0.36311193  0.31767958  1  0.421321  -0.000309  0.878775  0.0  0.386443  -0.000755  0.955199  -0.001  0.398907  -0.000555  0.936989  -0.001  0.294891  0.377445  -0.000858  0.968304  -0.001
H  H18  1  0.08222547  0.86317818  0.18213168  1  0.420784  -0.000293  0.878958  0.0  0.385798  -0.000744  0.956009  -0.001  0.398233  -0.000545  0.937847  -0.001  0.294702  0.376823  -0.000847  0.969076  -0.001
H  H19  1  0.91792193  0.63689804  0.68234767  1  0.42095  0.000309  0.879193  0.0  0.386103  0.000753  0.955644  0.001  0.39855  0.000554  0.937466  0.001  0.294724  0.37713  0.000856  0.968708  0.001
C  C20  1  0.63271145  0.40296655  0.10963653  1  0.244659  -0.003616  3.788655  -0.003  0.226981  -0.001317  4.060296  -0.001  0.237597  -0.001444  4.075615  -0.002  0.222508  0.2199  -0.001181  4.049824  -0.001
C  C21  1  0.36732305  0.09696230  0.60963392  1  0.244083  0.003672  3.789477  0.003  0.226511  0.001323  4.061045  0.001  0.237076  0.00145  4.076403  0.002  0.222165  0.219477  0.00119  4.050568  0.001
C  C22  1  0.36727464  0.59696728  0.89029132  1  0.244184  0.003661  3.788268  0.003  0.226556  0.001316  4.059701  0.001  0.237156  0.001443  4.075046  0.002  0.222025  0.219525  0.00118  4.049203  0.001
C  C23  1  0.63265755  0.90302498  0.39030706  1  0.243832  -0.00368  3.788728  -0.003  0.226173  -0.001322  4.060417  -0.001  0.236773  -0.00145  4.075785  -0.002  0.222017  0.219155  -0.001188  4.049912  -0.001
C  C24  1  0.81139492  0.53486132  0.98634191  1  0.258913  -0.001997  3.583868  -0.001  0.192515  0.000574  3.861273  0.001  0.21121  -5.1e-05  3.871091  0.0  0.178839  0.180459  0.001037  3.85412  0.002
C  C25  1  0.18860921  0.96503999  0.48623575  1  0.259256  0.002057  3.584053  0.001  0.192817  -0.000586  3.861468  -0.001  0.211437  4.1e-05  3.871333  0.0  0.178819  0.180766  -0.00105  3.854299  -0.002
C  C26  1  0.18873280  0.46515906  0.01374914  1  0.258995  0.002009  3.583535  0.001  0.192459  -0.000571  3.860794  -0.001  0.21113  5.5e-05  3.870652  0.0  0.178797  0.180393  -0.001036  3.853612  -0.002
C  C27  1  0.81133928  0.03492339  0.51373336  1  0.259185  -0.002  3.583577  -0.001  0.192617  0.000587  3.860808  0.001  0.211223  -4.4e-05  3.870687  0.0  0.178849  0.180569  0.00105  3.853659  0.002
C  C28  1  0.52184878  0.26246338  0.15011022  1  0.255044  -0.005365  3.783253  -0.005  0.238078  -0.002516  4.052723  -0.002  0.251148  -0.002562  4.064864  -0.003  0.233975  0.229432  -0.002412  4.044802  -0.002
C  C29  1  0.47817550  0.23748134  0.65016824  1  0.256368  0.005368  3.782925  0.005  0.238859  0.002517  4.052813  0.002  0.252063  0.00256  4.064803  0.003  0.233969  0.230079  0.002412  4.045063  0.002
C  C30  1  0.47823824  0.73748190  0.84988047  1  0.255155  0.005298  3.78307  0.005  0.238315  0.002516  4.05227  0.002  0.251437  0.002558  4.064357  0.003  0.233965  0.229576  0.002411  4.044468  0.002
C  C31  1  0.52178764  0.76249684  0.34981682  1  0.256  -0.005276  3.782825  -0.005  0.238538  -0.002517  4.052676  -0.002  0.251635  -0.002555  4.064804  -0.003  0.233959  0.229772  -0.002411  4.044905  -0.002
N  N32  1  0.40474286  0.02669266  0.12952966  1  -0.061894  -0.072619  3.305634  -0.093  -0.040284  -0.049297  3.654278  -0.067  -0.05767  -0.041001  3.672847  -0.058  -0.128453  -0.029966  -0.053471  3.643523  -0.07
N  N33  1  0.59507993  0.47330014  0.62945892  1  -0.062292  0.072796  3.305607  0.093  -0.040465  0.04938  3.65378  0.067  -0.057829  0.041078  3.672316  0.058  -0.128745  -0.030273  0.053561  3.64308  0.07
N  N34  1  0.59536834  0.97325379  0.87057826  1  -0.06184  0.072726  3.306135  0.093  -0.040175  0.049321  3.654488  0.067  -0.057518  0.041018  3.673062  0.058  -0.128325  -0.029845  0.053493  3.643721  0.07
N  N35  1  0.40481264  0.52671098  0.37064430  1  -0.061799  -0.07285  3.30464  -0.093  -0.040099  -0.049388  3.652916  -0.067  -0.057468  -0.04109  3.671461  -0.058  -0.128694  -0.029868  -0.053569  3.642231  -0.07
N  N36  1  0.35061456  0.07298971  0.23240722  1  -0.029289  0.015805  2.93778  0.018  -0.028118  0.006822  3.249726  0.008  -0.024196  0.005236  3.263969  0.007  -0.075516  -0.030413  0.008831  3.240309  0.01
N  N37  1  0.64928791  0.42722929  0.73240428  1  -0.028447  -0.015891  2.937402  -0.018  -0.027395  -0.006825  3.24929  -0.008  -0.023447  -0.005244  3.263498  -0.007  -0.075279  -0.029705  -0.008816  3.239894  -0.01
N  N38  1  0.64938813  0.92706355  0.76760598  1  -0.028858  -0.0159  2.938053  -0.018  -0.027652  -0.006827  3.249922  -0.008  -0.023715  -0.00524  3.264135  -0.007  -0.075228  -0.029951  -0.00883  3.240525  -0.01
N  N39  1  0.35058034  0.57273860  0.26769049  1  -0.028438  0.015998  2.936694  0.019  -0.027279  0.006823  3.248606  0.008  -0.023338  0.005251  3.262835  0.007  -0.075175  -0.029578  0.00882  3.239187  0.01
N  N40  1  0.42266675  0.22179794  0.24777910  1  -0.28395  -0.00673  3.034486  -0.01  -0.271335  -0.004336  3.349188  -0.007  -0.288382  -0.00226  3.359928  -0.005  -0.206543  -0.260025  -0.00624  3.343035  -0.009
N  N41  1  0.57735174  0.27839176  0.74783874  1  -0.284715  0.006768  3.036119  0.01  -0.272092  0.004382  3.351208  0.007  -0.289128  0.002302  3.361849  0.005  -0.206685  -0.260689  0.006285  3.345102  0.009
N  N42  1  0.57733175  0.77826782  0.75217126  1  -0.284342  0.006827  3.035617  0.01  -0.271915  0.004335  3.350444  0.007  -0.288977  0.002255  3.361165  0.005  -0.206866  -0.260628  0.006241  3.344321  0.009
N  N43  1  0.42257011  0.72155455  0.25218288  1  -0.284641  -0.006867  3.036194  -0.01  -0.272019  -0.004373  3.351249  -0.007  -0.289065  -0.002295  3.361934  -0.005  -0.206713  -0.260635  -0.006277  3.34513  -0.009
N  N44  1  0.72399066  0.39203180  0.00771330  1  -0.393736  0.074017  3.222792  0.094  -0.354508  0.050624  3.530698  0.067  -0.388871  0.040929  3.549045  0.057  -0.355037  -0.33279  0.055935  3.519058  0.072
N  N45  1  0.27606296  0.10788956  0.50762671  1  -0.394382  -0.07409  3.221901  -0.094  -0.354929  -0.050656  3.529661  -0.067  -0.389374  -0.040962  3.548063  -0.057  -0.354773  -0.333218  -0.055978  3.517961  -0.072
N  N46  1  0.27612963  0.60796013  0.99228303  1  -0.39366  -0.074129  3.222825  -0.094  -0.354509  -0.050682  3.530822  -0.068  -0.388934  -0.040978  3.549203  -0.057  -0.354915  -0.332799  -0.056003  3.519159  -0.072
N  N47  1  0.72389461  0.89208519  0.49231990  1  -0.393643  0.074111  3.221214  0.094  -0.354223  0.050693  3.529013  0.068  -0.388652  0.040987  3.547391  0.057  -0.354574  -0.332597  0.05602  3.517316  0.072
N  N48  1  0.65864050  0.54403557  0.15124337  1  -0.191787  0.006788  2.822077  0.008  -0.198558  0.002577  3.096826  0.003  -0.205025  0.001394  3.112488  0.002  -0.20541  -0.193572  0.003749  3.085995  0.004
N  N49  1  0.34134276  0.95593661  0.65126599  1  -0.191423  -0.006768  2.822111  -0.008  -0.198111  -0.002563  3.097001  -0.003  -0.204609  -0.001386  3.112644  -0.002  -0.20522  -0.193134  -0.003727  3.086171  -0.004
N  N50  1  0.34120576  0.45586291  0.84869853  1  -0.191544  -0.006819  2.821301  -0.008  -0.198448  -0.002583  3.09624  -0.003  -0.204919  -0.0014  3.111906  -0.002  -0.205288  -0.193498  -0.003756  3.085382  -0.004
N  N51  1  0.65862947  0.04406431  0.34869188  1  -0.191208  0.00679  2.821878  0.008  -0.197885  0.002561  3.096664  0.003  -0.204379  0.001387  3.112308  0.002  -0.205118  -0.192919  0.003728  3.085827  0.004
N  N52  1  0.77210064  0.62478328  0.07191430  1  -0.156767  0.002154  3.413828  0.003  -0.088356  0.001713  3.656887  0.002  -0.102667  0.001314  3.670565  0.002  -0.250959  -0.079228  0.001837  3.647774  0.003
N  N53  1  0.22785689  0.87516788  0.57187068  1  -0.15671  -0.00219  3.413691  -0.003  -0.088709  -0.001715  3.657262  -0.002  -0.102904  -0.001314  3.670814  -0.002  -0.251011  -0.079587  -0.001838  3.648167  -0.003
N  N54  1  0.22783324  0.37517669  0.92813640  1  -0.156627  -0.002161  3.413124  -0.003  -0.088265  -0.001715  3.656243  -0.002  -0.102561  -0.001315  3.66995  -0.002  -0.250863  -0.07905  -0.001838  3.647055  -0.003
N  N55  1  0.77210013  0.12481257  0.42810969  1  -0.157122  0.002161  3.41324  0.003  -0.088939  0.001717  3.656724  0.002  -0.103147  0.001316  3.670262  0.002  -0.251135  -0.079823  0.001841  3.647637  0.003
N  N56  1  0.51215911  0.14202832  0.07542598  1  -0.270765  0.073099  3.218463  0.094  -0.258939  0.049947  3.552696  0.068  -0.283116  0.040598  3.569916  0.058  -0.23817  -0.24333  0.05564  3.542641  0.073
N  N57  1  0.48773876  0.35779324  0.57536905  1  -0.271354  -0.073239  3.219245  -0.094  -0.25892  -0.050005  3.553337  -0.068  -0.283224  -0.040679  3.570485  -0.058  -0.238198  -0.243336  -0.055682  3.543421  -0.073
N  N58  1  0.48802117  0.85784995  0.92468382  1  -0.270465  -0.073071  3.218211  -0.094  -0.25852  -0.049924  3.552214  -0.068  -0.282739  -0.040585  3.569381  -0.058  -0.238063  -0.2429  -0.055614  3.542189  -0.073
N  N59  1  0.51223009  0.64221906  0.42465821  1  -0.271312  0.073177  3.219028  0.094  -0.258803  0.049994  3.553082  0.068  -0.28305  0.040667  3.570217  0.058  -0.238276  -0.243291  0.055663  3.543148  0.073
N  N60  1  0.90651771  0.04022596  0.13719821  1  0.70531  0.000131  4.133103  0.0  0.728768  3.8e-05  4.439986  0.0  0.75726  3.4e-05  4.446254  0.0  0.102383  0.709395  -6e-06  4.435093  0.0
N  N61  1  0.09332971  0.45972034  0.63721885  1  0.706341  -0.00016  4.132783  0.0  0.729977  -3.9e-05  4.439535  0.0  0.758488  -3.9e-05  4.445794  0.0  0.102761  0.710607  7e-06  4.434637  0.0
N  N62  1  0.09346400  0.95983296  0.86278310  1  0.705257  -0.000139  4.133038  0.0  0.729113  -4.5e-05  4.439504  0.0  0.75765  -4.1e-05  4.445725  0.0  0.10298  0.709709  6e-06  4.434636  0.0
N  N63  1  0.90665298  0.54029651  0.36275871  1  0.705795  0.000103  4.132773  0.0  0.729767  4e-05  4.439223  0.0  0.758279  3.2e-05  4.445473  0.0  0.102676  0.710371  -7e-06  4.434359  0.0
O  O64  1  0.88332372  0.22343101  0.85063792  1  -0.802931  0.061979  2.037256  0.084  -0.781433  0.041399  2.286729  0.06  -0.814129  0.032009  2.25094  0.049  -0.58823  -0.758061  0.047713  2.311294  0.067
O  O65  1  0.11695775  0.27672340  0.35050183  1  -0.804139  -0.061817  2.037432  -0.083  -0.782106  -0.041347  2.286615  -0.06  -0.814847  -0.031997  2.250748  -0.048  -0.58857  -0.758839  -0.047635  2.3113  -0.066
O  O66  1  0.11681903  0.77656775  0.14930590  1  -0.802639  -0.061933  2.037227  -0.084  -0.781008  -0.041398  2.286991  -0.06  -0.813747  -0.032019  2.251181  -0.049  -0.588091  -0.757688  -0.047706  2.311651  -0.067
O  O67  1  0.88298990  0.72329001  0.64946916  1  -0.803203  0.061826  2.038239  0.083  -0.781194  0.041345  2.287325  0.06  -0.813916  0.031996  2.251436  0.048  -0.588265  -0.757998  0.047634  2.311947  0.066
O  O68  1  0.00516492  0.01633911  0.21865160  1  -0.509258  -0.00329  1.834409  -0.005  -0.476666  -0.001339  2.047311  -0.002  -0.495634  -0.000633  2.039987  -0.001  -0.192209  -0.46259  -0.002444  2.052103  -0.004
O  O69  1  0.99485986  0.48382912  0.71869585  1  -0.5097  0.003324  1.835009  0.005  -0.47726  0.001331  2.047594  0.002  -0.496316  0.000647  2.040368  0.001  -0.192354  -0.463182  0.002438  2.052377  0.004
O  O70  1  0.99490773  0.98373579  0.78123875  1  -0.509433  0.00332  1.834506  0.005  -0.477143  0.001337  2.047324  0.002  -0.496188  0.000646  2.040006  0.001  -0.192573  -0.462996  0.002446  2.052116  0.004
O  O71  1  0.00511957  0.51621843  0.28126859  1  -0.509528  -0.003252  1.835312  -0.005  -0.477159  -0.001347  2.047809  -0.002  -0.496266  -0.000632  2.040655  -0.001  -0.192378  -0.462971  -0.002439  2.05252  -0.004
O  O72  1  0.82759864  0.93125383  0.06987006  1  -0.449315  0.001194  1.790242  0.002  -0.443014  0.000324  2.010223  0.001  -0.458784  0.000102  2.005452  0.0  -0.18499  -0.431868  0.000571  2.013469  0.001
O  O73  1  0.17232860  0.56857955  0.56989742  1  -0.449874  -0.001175  1.790178  -0.002  -0.4436  -0.000317  2.010047  -0.001  -0.459308  -9.8e-05  2.005169  0.0  -0.184947  -0.43247  -0.000566  2.013326  -0.001
O  O74  1  0.17215877  0.06874128  0.93025939  1  -0.449232  -0.00123  1.790207  -0.002  -0.442912  -0.000316  2.009956  -0.001  -0.458618  -0.000103  2.005063  0.0  -0.185021  -0.431805  -0.00057  2.013304  -0.001
O  O75  1  0.82775558  0.43144307  0.43014298  1  -0.44971  0.001175  1.789913  0.002  -0.443546  0.000319  2.009671  0.001  -0.459274  9.4e-05  2.004816  0.0  -0.184992  -0.432425  0.000564  2.012949  0.001
O  O76  1  0.89107781  0.17052998  0.12663560  1  -0.429915  -0.000774  1.780194  0.0  -0.430382  -0.001009  2.013648  -0.001  -0.444211  -0.00091  2.00689  -0.001  -0.171488  -0.420545  -0.001001  2.018578  -0.001
O  O77  1  0.10853133  0.32931283  0.62665401  1  -0.430321  0.000742  1.779388  0.0  -0.430735  0.001017  2.012617  0.001  -0.444611  0.000904  2.0059  0.001  -0.171775  -0.420935  0.001014  2.017586  0.001
O  O78  1  0.10902287  0.82956654  0.87326227  1  -0.429744  0.00079  1.780417  0.0  -0.430112  0.001011  2.013387  0.001  -0.443972  0.000905  2.006632  0.001  -0.171564  -0.420301  0.001002  2.018368  0.001
O  O79  1  0.89136833  0.67067667  0.37328603  1  -0.430131  -0.000761  1.779246  0.0  -0.430661  -0.001005  2.012301  -0.001  -0.444521  -0.00091  2.005576  -0.001  -0.171601  -0.420889  -0.001011  2.017282  -0.001
