# generated using pymatgen
data_CdH7C11(N2O)2
_symmetry_space_group_name_H-M   'P 1'
_cell_length_a   7.74736984
_cell_length_b   7.74726318
_cell_length_c   19.73270424
_cell_angle_alpha   100.51232591
_cell_angle_beta   100.51160968
_cell_angle_gamma   94.09464096
_symmetry_Int_Tables_number   1
_chemical_formula_structural   CdH7C11(N2O)2
_chemical_formula_sum   'Cd4 H28 C44 N16 O8'
_cell_volume   1138.21989315
_cell_formula_units_Z   4
loop_
 _symmetry_equiv_pos_site_id
 _symmetry_equiv_pos_as_xyz
  1  'x, y, z'
loop_
 _atom_site_type_symbol
 _atom_site_label
 _atom_site_symmetry_multiplicity
 _atom_site_fract_x
 _atom_site_fract_y
 _atom_site_fract_z
 _atom_site_occupancy
 _atom_site_hle17_bader_spin_density
 _atom_site_hle17_ddec_charge
 _atom_site_hle17_ddec_spin_density
 _atom_site_hle17_ddec_sum_bond_order
 _atom_site_hle17_magmom
 _atom_site_hse06_10hf_bader_spin_density
 _atom_site_hse06_10hf_ddec_charge
 _atom_site_hse06_10hf_ddec_spin_density
 _atom_site_hse06_10hf_ddec_sum_bond_order
 _atom_site_hse06_10hf_magmom
 _atom_site_hse06_bader_spin_density
 _atom_site_hse06_ddec_charge
 _atom_site_hse06_ddec_spin_density
 _atom_site_hse06_ddec_sum_bond_order
 _atom_site_hse06_magmom
 _atom_site_pbe_bader_spin_density
 _atom_site_pbe_cm5_charge
 _atom_site_pbe_ddec_charge
 _atom_site_pbe_ddec_spin_density
 _atom_site_pbe_ddec_sum_bond_order
 _atom_site_pbe_magmom
Cd  Cd0  1  0.44389950  0.78331325  0.96235167  1  0  1.02007  0  1.790705  0  0  0.803721  0  2.248261  0  0  0.857202  0  2.203864  0  0  0.787847  0.766053  0  2.27845  0
Cd  Cd1  1  0.82092661  0.48192338  0.03767388  1  0  1.020261  0  1.790681  0  0  0.804457  0  2.247761  0  0  0.857897  0  2.203392  0  0  0.788259  0.766821  0  2.277928  0
Cd  Cd2  1  0.03329327  0.19387496  0.46235458  1  0  1.020073  0  1.790755  0  0  0.803718  0  2.248324  0  0  0.8572  0  2.203931  0  0  0.787865  0.766052  0  2.278514  0
Cd  Cd3  1  0.73189778  0.57090159  0.53767844  1  0  1.020349  0  1.790647  0  0  0.804552  0  2.247753  0  0  0.857993  0  2.203387  0  0  0.788258  0.766916  0  2.277918  0
H  H4  1  0.52166404  0.24708595  0.75843452  1  0  0.118037  0  0.961995  0  0  0.131937  0  1.016082  0  0  0.135077  0  1.015286  0  0  0.103384  0.129746  0  1.016689  0
H  H5  1  0.48856297  0.76320642  0.24152439  1  0  0.117126  0  0.962108  0  0  0.130627  0  1.016867  0  0  0.13378  0  1.016034  0  0  0.103193  0.128417  0  1.01751  0
H  H6  1  0.49706980  0.27162868  0.25843862  1  0  0.118022  0  0.961945  0  0  0.131931  0  1.016039  0  0  0.135065  0  1.015243  0  0  0.103397  0.129739  0  1.016648  0
H  H7  1  0.01322800  0.23855730  0.74153048  1  0  0.117199  0  0.962033  0  0  0.130694  0  1.016801  0  0  0.133848  0  1.015969  0  0  0.10324  0.128485  0  1.017445  0
H  H8  1  0.36871401  0.45367359  0.69382835  1  0  0.114709  0  0.930869  0  0  0.128325  0  0.9842  0  0  0.131669  0  0.983233  0  0  0.109763  0.125931  0  0.985042  0
H  H9  1  0.75976441  0.67538637  0.30617399  1  0  0.115235  0  0.931403  0  0  0.128273  0  0.985352  0  0  0.131609  0  0.98438  0  0  0.109846  0.125879  0  0.986212  0
H  H10  1  0.70369458  0.11873347  0.19383425  1  0  0.114727  0  0.93094  0  0  0.12836  0  0.984249  0  0  0.131708  0  0.983282  0  0  0.1097  0.125966  0  0.985095  0
H  H11  1  0.92537844  0.50977239  0.80618115  1  0  0.115314  0  0.931466  0  0  0.12836  0  0.985374  0  0  0.131697  0  0.984398  0  0  0.109863  0.125965  0  0.986234  0
H  H12  1  0.20866323  0.67386208  0.63659632  1  0  0.105461  0  0.958809  0  0  0.113602  0  1.022582  0  0  0.116712  0  1.020114  0  0  0.104676  0.111255  0  1.024462  0
H  H13  1  0.03697716  0.57230730  0.36351922  1  0  0.104671  0  0.959662  0  0  0.112437  0  1.023799  0  0  0.115583  0  1.02129  0  0  0.103501  0.110026  0  1.025781  0
H  H14  1  0.92388375  0.95870496  0.13659338  1  0  0.1054  0  0.958816  0  0  0.113577  0  1.022529  0  0  0.11669  0  1.020064  0  0  0.104631  0.111228  0  1.024411  0
H  H15  1  0.82229424  0.78698888  0.86352346  1  0  0.104654  0  0.959739  0  0  0.112418  0  1.023882  0  0  0.115555  0  1.021383  0  0  0.103474  0.110004  0  1.025872  0
H  H16  1  0.14629349  0.95062892  0.71290782  1  0  0.097186  0  0.982097  0  0  0.110309  0  1.039899  0  0  0.112821  0  1.039777  0  0  0.102578  0.108507  0  1.04012  0
H  H17  1  0.23774000  0.43388803  0.28729323  1  0  0.096243  0  0.983162  0  0  0.109658  0  1.040624  0  0  0.112107  0  1.040573  0  0  0.102641  0.107879  0  1.040834  0
H  H18  1  0.20064351  0.89632791  0.21290676  1  0  0.097219  0  0.982164  0  0  0.110368  0  1.039927  0  0  0.112881  0  1.039805  0  0  0.10265  0.108564  0  1.04015  0
H  H19  1  0.68385892  0.98773964  0.78729714  1  0  0.096167  0  0.983055  0  0  0.109583  0  1.040541  0  0  0.112034  0  1.040491  0  0  0.102593  0.107804  0  1.040753  0
H  H20  1  0.71607326  0.16722468  0.87837573  1  0  0.084017  0  0.984249  0  0  0.094955  0  1.048225  0  0  0.096667  0  1.047196  0  0  0.106243  0.093692  0  1.048986  0
H  H21  1  0.28829586  0.83698412  0.12150598  1  0  0.084698  0  0.983349  0  0  0.096263  0  1.046535  0  0  0.098026  0  1.045385  0  0  0.10768  0.094976  0  1.047306  0
H  H22  1  0.41717946  0.46600659  0.37838468  1  0  0.084043  0  0.984371  0  0  0.095011  0  1.048294  0  0  0.096728  0  1.047256  0  0  0.106261  0.09375  0  1.049051  0
H  H23  1  0.08698306  0.03828199  0.62150579  1  0  0.084658  0  0.983296  0  0  0.096255  0  1.046447  0  0  0.098016  0  1.045304  0  0  0.107689  0.09497  0  1.047211  0
H  H24  1  0.24483145  0.99322724  0.84283678  1  0  0.063924  0  0.939871  0  0  0.073351  0  1.00301  0  0  0.075143  0  1.002103  0  0  0.107835  0.072035  0  1.003716  0
H  H25  1  0.15096122  0.40299211  0.15736801  1  0  0.064821  0  0.939385  0  0  0.074619  0  1.001977  0  0  0.076425  0  1.001082  0  0  0.109382  0.073249  0  1.002734  0
H  H26  1  0.24323248  0.99484528  0.34283725  1  0  0.063904  0  0.939975  0  0  0.073327  0  1.003117  0  0  0.07512  0  1.00221  0  0  0.107858  0.072011  0  1.003822  0
H  H27  1  0.65295447  0.90093885  0.65737013  1  0  0.064615  0  0.939612  0  0  0.074455  0  1.002162  0  0  0.07626  0  1.001264  0  0  0.109275  0.073084  0  1.002917  0
H  H28  1  0.45733506  0.23420825  0.99304558  1  0  0.103419  0  0.975764  0  0  0.102505  0  1.050907  0  0  0.106404  0  1.047927  0  0  0.120409  0.099593  0  1.053258  0
H  H29  1  0.24025470  0.46482938  0.00666692  1  0  0.102888  0  0.976767  0  0  0.102473  0  1.051542  0  0  0.106411  0  1.048536  0  0  0.119918  0.099457  0  1.054027  0
H  H30  1  0.48418583  0.20731595  0.49304978  1  0  0.103512  0  0.975773  0  0  0.10248  0  1.051046  0  0  0.106382  0  1.048063  0  0  0.12034  0.099569  0  1.053384  0
H  H31  1  0.71480439  0.99022860  0.50666315  1  0  0.102976  0  0.97687  0  0  0.102442  0  1.051757  0  0  0.106442  0  1.048687  0  0  0.119905  0.099432  0  1.054228  0
C  C32  1  0.10208259  0.97919140  0.99565673  1  0  0.06658  0  3.656359  0  0  0.064276  0  3.899213  0  0  0.064271  0  3.915761  0  0  0.128096  0.063698  0  3.888818  0
C  C33  1  0.98276494  0.10692717  0.00418417  1  0  0.068655  0  3.654883  0  0  0.06707  0  3.897154  0  0  0.067339  0  3.913512  0  0  0.128306  0.066315  0  3.886894  0
C  C34  1  0.22918008  0.85206849  0.49566645  1  0  0.066557  0  3.655898  0  0  0.064386  0  3.898663  0  0  0.064402  0  3.915204  0  0  0.127918  0.063797  0  3.888268  0
C  C35  1  0.35690815  0.73274243  0.50418890  1  0  0.069027  0  3.654484  0  0  0.067152  0  3.897065  0  0  0.067404  0  3.913428  0  0  0.128405  0.066407  0  3.886798  0
C  C36  1  0.38646776  0.60484834  0.79923189  1  0  0.196236  0  3.777858  0  0  0.19512  0  4.014441  0  0  0.203571  0  4.033453  0  0  0.121122  0.189372  0  4.00155  0
C  C37  1  0.80593083  0.58793415  0.20082633  1  0  0.199092  0  3.777265  0  0  0.197786  0  4.013672  0  0  0.20618  0  4.032796  0  0  0.121835  0.192022  0  4.000796  0
C  C38  1  0.85485812  0.13647435  0.29923632  1  0  0.19629  0  3.777806  0  0  0.195044  0  4.014512  0  0  0.203507  0  4.033537  0  0  0.121118  0.189292  0  4.001613  0
C  C39  1  0.83792117  0.55591937  0.70083453  1  0  0.199211  0  3.776974  0  0  0.197961  0  4.013428  0  0  0.206374  0  4.032506  0  0  0.122045  0.192158  0  4.0006  0
C  C40  1  0.48380377  0.48416555  0.83661978  1  0  0.101602  0  3.845942  0  0  0.093971  0  4.095386  0  0  0.098089  0  4.117623  0  0  0.07481  0.091484  0  4.07998  0
C  C41  1  0.64775133  0.64763324  0.16339210  1  0  0.099325  0  3.846058  0  0  0.09217  0  4.094809  0  0  0.096262  0  4.117135  0  0  0.073342  0.089707  0  4.079364  0
C  C42  1  0.73415689  0.23379106  0.33662347  1  0  0.101556  0  3.846004  0  0  0.0941  0  4.095281  0  0  0.098175  0  4.117572  0  0  0.074865  0.09163  0  4.079844  0
C  C43  1  0.89762824  0.39773574  0.66339864  1  0  0.099223  0  3.845753  0  0  0.091922  0  4.094685  0  0  0.096011  0  4.117  0  0  0.07317  0.089479  0  4.079235  0
C  C44  1  0.05725278  0.78421049  0.99456635  1  0  0.621608  0  3.966096  0  0  0.565799  0  4.273077  0  0  0.600485  0  4.264349  0  0  0.201528  0.542224  0  4.278269  0
C  C45  1  0.78895620  0.06311154  0.00537531  1  0  0.622285  0  3.964468  0  0  0.566081  0  4.271617  0  0  0.600685  0  4.262957  0  0  0.204419  0.542541  0  4.276766  0
C  C46  1  0.03419665  0.80722925  0.49457450  1  0  0.621623  0  3.966572  0  0  0.565904  0  4.273327  0  0  0.600581  0  4.264607  0  0  0.201483  0.542333  0  4.278513  0
C  C47  1  0.31309698  0.53893883  0.50537739  1  0  0.62223  0  3.964443  0  0  0.566116  0  4.271581  0  0  0.600725  0  4.262909  0  0  0.204502  0.542569  0  4.276733  0
C  C48  1  0.32032570  0.19896265  0.99549237  1  0  0.097646  0  3.637568  0  0  0.067679  0  3.892987  0  0  0.072325  0  3.905567  0  0  0.057585  0.064209  0  3.885072  0
C  C49  1  0.20261580  0.32539018  0.00423061  1  0  0.101217  0  3.636073  0  0  0.071105  0  3.890635  0  0  0.075736  0  3.903229  0  0  0.060757  0.06768  0  3.882778  0
C  C50  1  0.44895009  0.07030910  0.49549573  1  0  0.097521  0  3.637754  0  0  0.06765  0  3.893104  0  0  0.072294  0  3.905695  0  0  0.057581  0.064183  0  3.885185  0
C  C51  1  0.57536565  0.95258881  0.50423055  1  0  0.101293  0  3.636062  0  0  0.071259  0  3.890614  0  0  0.075843  0  3.903171  0  0  0.060969  0.067833  0  3.882757  0
C  C52  1  0.54480406  0.32177838  0.81199193  1  0  -0.251742  0  3.786187  0  0  -0.271869  0  4.046778  0  0  -0.280367  0  4.068144  0  0  -0.127391  -0.266135  0  4.031967  0
C  C53  1  0.50971459  0.73284621  0.18797359  1  0  -0.249262  0  3.78609  0  0  -0.269145  0  4.046987  0  0  -0.277629  0  4.068338  0  0  -0.12747  -0.263416  0  4.032199  0
C  C54  1  0.57177088  0.29477706  0.31199867  1  0  -0.251878  0  3.786229  0  0  -0.272076  0  4.046864  0  0  -0.28055  0  4.068234  0  0  -0.127562  -0.266348  0  4.032053  0
C  C55  1  0.98285226  0.25970693  0.68797750  1  0  -0.249244  0  3.786202  0  0  -0.269097  0  4.047175  0  0  -0.277575  0  4.068511  0  0  -0.127511  -0.263375  0  4.032387  0
C  C56  1  0.33788167  0.57339503  0.72564139  1  0  -0.132893  0  3.679696  0  0  -0.153401  0  3.929341  0  0  -0.160383  0  3.949606  0  0  -0.077898  -0.148953  0  3.915849  0
C  C57  1  0.84783587  0.61284382  0.27441492  1  0  -0.134818  0  3.679521  0  0  -0.155018  0  3.929327  0  0  -0.16198  0  3.949645  0  0  -0.079081  -0.15057  0  3.915822  0
C  C58  1  0.82340787  0.08790324  0.22564555  1  0  -0.132966  0  3.679656  0  0  -0.153452  0  3.929309  0  0  -0.160435  0  3.949566  0  0  -0.077897  -0.149008  0  3.915822  0
C  C59  1  0.86282934  0.59783132  0.77442000  1  0  -0.135056  0  3.679989  0  0  -0.155221  0  3.929741  0  0  -0.162188  0  3.950048  0  0  -0.079132  -0.150761  0  3.916252  0
C  C60  1  0.25135693  0.69751208  0.69356211  1  0  0.004395  0  3.71126  0  0  -0.016372  0  3.967671  0  0  -0.012072  0  3.984597  0  0  -0.070109  -0.018944  0  3.956163  0
C  C61  1  0.00387101  0.55823592  0.30655612  1  0  0.005683  0  3.712014  0  0  -0.014437  0  3.967703  0  0  -0.010172  0  3.984635  0  0  -0.068489  -0.016968  0  3.956193  0
C  C62  1  0.94752795  0.00138863  0.19356477  1  0  0.004476  0  3.711144  0  0  -0.016291  0  3.967533  0  0  -0.011997  0  3.984474  0  0  -0.070026  -0.018862  0  3.956026  0
C  C63  1  0.80822481  0.75387484  0.80655939  1  0  0.005719  0  3.712031  0  0  -0.014409  0  3.9677  0  0  -0.010132  0  3.984627  0  0  -0.068439  -0.016943  0  3.956201  0
C  C64  1  0.21619812  0.85138432  0.73548489  1  0  -0.143472  0  3.760936  0  0  -0.157323  0  4.012839  0  0  -0.164249  0  4.034467  0  0  -0.096542  -0.15289  0  3.998286  0
C  C65  1  0.11601382  0.48132258  0.26468545  1  0  -0.141232  0  3.762534  0  0  -0.155374  0  4.014233  0  0  -0.162237  0  4.035911  0  0  -0.095898  -0.15097  0  3.999605  0
C  C66  1  0.10139898  0.96622163  0.23548542  1  0  -0.143489  0  3.760962  0  0  -0.157365  0  4.012862  0  0  -0.164295  0  4.034501  0  0  -0.09658  -0.152931  0  3.998305  0
C  C67  1  0.73129057  0.86600554  0.76468673  1  0  -0.141025  0  3.761923  0  0  -0.15517  0  4.013648  0  0  -0.162033  0  4.03532  0  0  -0.095814  -0.150767  0  3.999025  0
C  C68  1  0.64469667  0.28056277  0.87207672  1  0  0.013201  0  3.795858  0  0  -0.026072  0  4.067544  0  0  -0.02052  0  4.087359  0  0  -0.0114  -0.029381  0  4.053586  0
C  C69  1  0.40813507  0.77223436  0.12784765  1  0  0.011721  0  3.798716  0  0  -0.028133  0  4.070548  0  0  -0.022588  0  4.09042  0  0  -0.012899  -0.031418  0  4.05656  0
C  C70  1  0.53055171  0.39466928  0.37208547  1  0  0.013291  0  3.79582  0  0  -0.025969  0  4.067487  0  0  -0.020417  0  4.087299  0  0  -0.011294  -0.029275  0  4.053524  0
C  C71  1  0.02223306  0.15812653  0.62785274  1  0  0.011683  0  3.798952  0  0  -0.02819  0  4.070765  0  0  -0.022646  0  4.090637  0  0  -0.012903  -0.031475  0  4.056777  0
C  C72  1  0.26926168  0.87472296  0.80806006  1  0  0.12956  0  3.767258  0  0  0.098823  0  4.023158  0  0  0.106038  0  4.04198  0  0  0.042911  0.094156  0  4.010226  0
C  C73  1  0.06707557  0.46204050  0.19211515  1  0  0.129344  0  3.768526  0  0  0.098209  0  4.024659  0  0  0.105404  0  4.043462  0  0  0.041965  0.093592  0  4.011738  0
C  C74  1  0.12473447  0.01927670  0.30806144  1  0  0.129581  0  3.76723  0  0  0.098862  0  4.023138  0  0  0.106075  0  4.041961  0  0  0.042877  0.094197  0  4.0102  0
C  C75  1  0.71200900  0.81705321  0.69211693  1  0  0.129498  0  3.768309  0  0  0.098384  0  4.024415  0  0  0.105579  0  4.043209  0  0  0.042088  0.093769  0  4.011491  0
N  N76  1  0.54362557  0.53209017  0.90703911  1  0  -0.290531  0  3.20305  0  0  -0.227061  0  3.471946  0  0  -0.242374  0  3.493729  0  0  -0.264274  -0.216432  0  3.45672  0
N  N77  1  0.62517095  0.63691092  0.09296869  1  0  -0.289443  0  3.203334  0  0  -0.226157  0  3.472007  0  0  -0.241467  0  3.493805  0  0  -0.26423  -0.215533  0  3.456772  0
N  N78  1  0.78207487  0.29360974  0.40704668  1  0  -0.290385  0  3.202902  0  0  -0.226933  0  3.471753  0  0  -0.242238  0  3.493557  0  0  -0.2642  -0.216305  0  3.456517  0
N  N79  1  0.88689876  0.37515344  0.59297507  1  0  -0.289548  0  3.203195  0  0  -0.226205  0  3.471908  0  0  -0.241513  0  3.493706  0  0  -0.264157  -0.215582  0  3.456665  0
N  N80  1  0.64252510  0.40873268  0.92883902  1  0  -0.267344  0  3.262991  0  0  -0.194596  0  3.541028  0  0  -0.213143  0  3.565091  0  0  -0.268078  -0.181788  0  3.524123  0
N  N81  1  0.47970084  0.71351226  0.07111586  1  0  -0.26696  0  3.263156  0  0  -0.193913  0  3.541154  0  0  -0.212509  0  3.565277  0  0  -0.266402  -0.181075  0  3.524205  0
N  N82  1  0.65870758  0.39249548  0.42884686  1  0  -0.2675  0  3.263393  0  0  -0.194785  0  3.541504  0  0  -0.21333  0  3.565564  0  0  -0.268167  -0.181978  0  3.524599  0
N  N83  1  0.96350313  0.22968224  0.57112042  1  0  -0.266836  0  3.26336  0  0  -0.193775  0  3.541297  0  0  -0.212375  0  3.565432  0  0  -0.266439  -0.180936  0  3.524341  0
N  N84  1  0.26897141  0.02758926  0.99095159  1  0  -0.280877  0  3.20568  0  0  -0.216745  0  3.465317  0  0  -0.228955  0  3.47974  0  0  -0.292485  -0.208347  0  3.455841  0
N  N85  1  0.03584503  0.27851580  0.00884607  1  0  -0.284496  0  3.206805  0  0  -0.220708  0  3.466848  0  0  -0.233023  0  3.481202  0  0  -0.296864  -0.212239  0  3.457395  0
N  N86  1  0.27757860  0.01895663  0.49096052  1  0  -0.280987  0  3.205664  0  0  -0.216848  0  3.46516  0  0  -0.229072  0  3.479587  0  0  -0.292419  -0.208444  0  3.45568  0
N  N87  1  0.52849667  0.78582102  0.50884892  1  0  -0.284715  0  3.206496  0  0  -0.220863  0  3.466672  0  0  -0.233175  0  3.481044  0  0  -0.297053  -0.212395  0  3.457217  0
N  N88  1  0.35134931  0.75528712  0.83926989  1  0  -0.356545  0  3.227125  0  0  -0.281913  0  3.48194  0  0  -0.301077  0  3.499294  0  0  -0.326501  -0.268803  0  3.469916  0
N  N89  1  0.91644736  0.51286621  0.16083164  1  0  -0.359603  0  3.229669  0  0  -0.28489  0  3.484697  0  0  -0.304009  0  3.502032  0  0  -0.327071  -0.271762  0  3.472607  0
N  N90  1  0.00529046  0.10135453  0.33927292  1  0  -0.35654  0  3.227173  0  0  -0.281929  0  3.482078  0  0  -0.301093  0  3.499426  0  0  -0.326498  -0.268815  0  3.470048  0
N  N91  1  0.76284106  0.66642834  0.66083728  1  0  -0.359652  0  3.229497  0  0  -0.285026  0  3.484555  0  0  -0.30418  0  3.501965  0  0  -0.327237  -0.271885  0  3.472478  0
O  O92  1  0.11639185  0.67472772  0.95160864  1  0  -0.60577  0  1.948746  0  0  -0.555287  0  2.188843  0  0  -0.580377  0  2.178772  0  0  -0.31867  -0.537241  0  2.194803  0
O  O93  1  0.72259962  0.16511417  0.04841213  1  0  -0.606122  0  1.946666  0  0  -0.555765  0  2.186924  0  0  -0.580816  0  2.176838  0  0  -0.319564  -0.537833  0  2.193075  0
O  O94  1  0.92472509  0.86637645  0.45161594  1  0  -0.605843  0  1.949082  0  0  -0.555351  0  2.189063  0  0  -0.580451  0  2.179007  0  0  -0.318623  -0.537314  0  2.195039  0
O  O95  1  0.41509250  0.47256103  0.54840933  1  0  -0.606149  0  1.94649  0  0  -0.555736  0  2.186644  0  0  -0.580786  0  2.176554  0  0  -0.319547  -0.5378  0  2.192799  0
O  O96  1  0.97105619  0.75291231  0.04076807  1  0  -0.609592  0  2.038233  0  0  -0.545682  0  2.298153  0  0  -0.57497  0  2.287857  0  0  -0.315783  -0.524858  0  2.304213  0
O  O97  1  0.71141459  0.93070125  0.95915247  1  0  -0.610164  0  2.039239  0  0  -0.545731  0  2.29912  0  0  -0.574988  0  2.288804  0  0  -0.316708  -0.52494  0  2.305288  0
O  O98  1  0.00289270  0.72103941  0.54077393  1  0  -0.609621  0  2.038702  0  0  -0.545761  0  2.298556  0  0  -0.575039  0  2.288255  0  0  -0.315756  -0.524936  0  2.304617  0
O  O99  1  0.18068326  0.46139555  0.45915514  1  0  -0.610229  0  2.039281  0  0  -0.545827  0  2.299154  0  0  -0.575082  0  2.288831  0  0  -0.316793  -0.525072  0  2.305414  0
