# generated using pymatgen
data_Cu3H12C21N7O3
_symmetry_space_group_name_H-M   'P 1'
_cell_length_a   19.63305308
_cell_length_b   26.82238582
_cell_length_c   26.74677244
_cell_angle_alpha   98.44582660
_cell_angle_beta   105.66065365
_cell_angle_gamma   101.55468130
_symmetry_Int_Tables_number   1
_chemical_formula_structural   Cu3H12C21N7O3
_chemical_formula_sum   'Cu12 H48 C84 N28 O12'
_cell_volume   12982.33394372
_cell_formula_units_Z   4
loop_
 _symmetry_equiv_pos_site_id
 _symmetry_equiv_pos_as_xyz
  1  'x, y, z'
loop_
 _atom_site_type_symbol
 _atom_site_label
 _atom_site_symmetry_multiplicity
 _atom_site_fract_x
 _atom_site_fract_y
 _atom_site_fract_z
 _atom_site_occupancy
 _atom_site_pbe_bader_charge
 _atom_site_pbe_bader_spin_density
 _atom_site_pbe_cm5_charge
 _atom_site_pbe_ddec_charge
 _atom_site_pbe_ddec_spin_density
 _atom_site_pbe_ddec_sum_bond_order
 _atom_site_pbe_magmom
Cu  Cu0  1  0.35164841  0.58527429  0.45473705  1  0.543725  0  0.485762  0.202004  0  2.131709  0
Cu  Cu1  1  0.36472590  0.61331842  0.34829163  1  0.538007  0  0.486973  0.208396  0  2.129692  0
Cu  Cu2  1  0.41939847  0.70274841  0.45025515  1  0.54388  0  0.48241  0.205704  0  2.101286  0
Cu  Cu3  1  0.84503267  0.91951352  0.59898675  1  0.545842  0  0.482799  0.207165  0  2.082508  0
Cu  Cu4  1  0.92387350  0.87267353  0.69497859  1  0.538162  0  0.484278  0.200336  0  2.137766  0
Cu  Cu5  1  0.93843407  0.83389352  0.58521365  1  0.543172  0  0.486705  0.205259  0  2.124142  0
Cu  Cu6  1  0.25652723  0.43639047  0.90517359  1  0.538908  0  0.483516  0.201825  0  2.124846  0
Cu  Cu7  1  0.10749639  0.39953451  0.81039396  1  0.545601  0  0.484732  0.205655  0  2.097638  0
Cu  Cu8  1  0.14507347  0.33507125  0.90304216  1  0.543693  0  0.490166  0.209511  0  2.117976  0
Cu  Cu9  1  0.59172532  0.04595251  0.03295596  1  0.54278  0  0.484094  0.203876  0  2.115997  0
Cu  Cu10  1  0.49150431  0.05703970  0.10813936  1  0.542567  0  0.48577  0.20614  0  2.111373  0
Cu  Cu11  1  0.51577827  0.13914440  0.03762810  1  0.538554  0  0.485935  0.204625  0  2.123128  0
H  H12  1  0.34772638  0.46337540  0.43077007  1  0.103086  0  0.120551  0.112083  0  0.987937  0
H  H13  1  0.34054799  0.50164444  0.27779126  1  0.119586  0  0.122063  0.117581  0  0.988366  0
H  H14  1  0.40183207  0.76307879  0.55494548  1  0.094892  0  0.120998  0.111941  0  0.989262  0
H  H15  1  0.29951636  0.60465350  0.55672919  1  0.112883  0  0.12432  0.118853  0  0.983517  0
H  H16  1  0.39005511  0.67742878  0.26188471  1  0.09164  0  0.120086  0.111387  0  0.990087  0
H  H17  1  0.51252607  0.79197509  0.40692153  1  0.128816  0  0.123322  0.117754  0  0.982335  0
H  H18  1  0.79400879  0.00929137  0.66371144  1  0.107437  0  0.122457  0.117622  0  0.987853  0
H  H19  1  0.89304134  0.93691138  0.78957624  1  0.096281  0  0.120248  0.111509  0  0.991122  0
H  H20  1  0.89552697  0.80352783  0.46285567  1  0.091405  0  0.121403  0.112152  0  0.987665  0
H  H21  1  0.76323053  0.91318513  0.47641282  1  0.0822  0  0.124525  0.118341  0  0.985023  0
H  H22  1  0.00946297  0.80478973  0.76438945  1  0.111395  0  0.120267  0.111777  0  0.989839  0
H  H23  1  0.04730803  0.75855611  0.61392362  1  0.11735  0  0.124182  0.119894  0  0.984616  0
H  H24  1  0.33828874  0.53144482  0.86998674  1  0.122086  0  0.120789  0.112211  0  0.990656  0
H  H25  1  0.12891243  0.49216237  0.74695251  1  0.118578  0  0.124355  0.119553  0  0.982028  0
H  H26  1  0.21615786  0.31324787  0.01799394  1  0.090088  0  0.124767  0.12025  0  0.982698  0
H  H27  1  0.36766054  0.45667190  0.02168876  1  0.095415  0  0.120539  0.112031  0  0.990505  0
H  H28  1  0.94945040  0.33014237  0.74217611  1  0.099567  0  0.121897  0.113912  0  0.988023  0
H  H29  1  0.00519749  0.24133180  0.86345208  1  0.107057  0  0.125762  0.120827  0  0.98097  0
H  H30  1  0.67719503  0.96822090  0.08305243  1  0.083131  0  0.120442  0.112642  0  0.991011  0
H  H31  1  0.53681408  0.97943620  0.18226642  1  0.097805  0  0.122765  0.118448  0  0.987525  0
H  H32  1  0.56564451  0.19550541  0.95349428  1  0.095568  0  0.121109  0.11342  0  0.988713  0
H  H33  1  0.66050718  0.06347561  0.93872434  1  0.096242  0  0.120591  0.115204  0  0.9928  0
H  H34  1  0.37970486  0.09809844  0.16050954  1  0.115593  0  0.120845  0.112068  0  0.989391  0
H  H35  1  0.43715988  0.22199577  0.08053552  1  0.109211  0  0.123845  0.118327  0  0.981867  0
H  H36  1  0.83750113  0.99478479  0.85662297  1  0.07084  0  0.105688  0.1328  0  0.998784  0
H  H37  1  0.79489177  0.08127252  0.89185130  1  0.072054  0  0.10901  0.146338  0  1.006418  0
H  H38  1  0.37380868  0.36434081  0.38712284  1  0.058445  0  0.108229  0.136496  0  0.997159  0
H  H39  1  0.37675135  0.29021500  0.30580256  1  0.089778  0  0.109088  0.146727  0  1.003397  0
H  H40  1  0.76524897  0.92989729  0.16420670  1  0.088513  0  0.106887  0.134367  0  0.996609  0
H  H41  1  0.78020906  0.86900553  0.23842630  1  0.100972  0  0.105602  0.142934  0  1.017809  0
H  H42  1  0.39265623  0.59129040  0.80515543  1  0.083063  0  0.107283  0.134185  0  0.998635  0
H  H43  1  0.38260522  0.67468930  0.75723045  1  0.094086  0  0.111351  0.148109  0  0.997379  0
H  H44  1  0.63968710  0.23682841  0.88848250  1  0.085902  0  0.107663  0.13556  0  0.993178  0
H  H45  1  0.71715107  0.23514122  0.81725882  1  0.083393  0  0.106859  0.146929  0  1.010753  0
H  H46  1  0.35806868  0.79671490  0.64299425  1  0.079118  0  0.107782  0.135039  0  0.998141  0
H  H47  1  0.29287233  0.78446419  0.72073298  1  0.09797  0  0.114353  0.151408  0  0.986023  0
H  H48  1  0.43930307  0.45844747  0.12881297  1  0.069733  0  0.107596  0.134732  0  0.997658  0
H  H49  1  0.45950216  0.42348072  0.22184971  1  0.095924  0  0.113033  0.150221  0  0.9902  0
H  H50  1  0.82171420  0.77126391  0.35884483  1  0.070597  0  0.108357  0.135525  0  1.000421  0
H  H51  1  0.72586993  0.77269290  0.26318686  1  0.097143  0  0.116168  0.149161  0  0.982256  0
H  H52  1  0.81896377  0.24345850  0.69144235  1  0.088562  0  0.109283  0.138596  0  0.998015  0
H  H53  1  0.71022539  0.16432047  0.69767236  1  0.078521  0  0.117339  0.15105  0  0.980991  0
H  H54  1  0.40413689  0.77226240  0.21342653  1  0.106662  0  0.106194  0.134328  0  0.997675  0
H  H55  1  0.51376648  0.83235545  0.18647018  1  0.108123  0  0.106628  0.146975  0  1.012674  0
H  H56  1  0.08006681  0.73109842  0.80230658  1  0.094783  0  0.107013  0.135306  0  0.996858  0
H  H57  1  0.18743997  0.67847751  0.80940683  1  0.103305  0  0.110202  0.150122  0  1.000514  0
H  H58  1  0.26018621  0.14824643  0.17004261  1  0.063731  0  0.107842  0.135977  0  0.999096  0
H  H59  1  0.23155870  0.23905926  0.21143002  1  0.115973  0  0.114012  0.149546  0  0.989444  0
C  C60  1  0.34608786  0.48132376  0.39681229  1  0.414932  0  0.004527  -0.047991  0  3.952783  0
C  C61  1  0.34438870  0.45970015  0.34520660  1  0.038095  0  -0.040159  -0.063315  0  4.158025  0
C  C62  1  0.34205419  0.50103531  0.31853082  1  0.422341  0  0.004685  -0.04669  0  3.949581  0
C  C63  1  0.38034360  0.72127866  0.54804849  1  0.405901  0  0.005919  -0.045306  0  3.953801  0
C  C64  1  0.34188029  0.69203302  0.57582867  1  0.053933  0  -0.040003  -0.068249  0  4.151262  0
C  C65  1  0.32800204  0.64022551  0.54885134  1  0.389302  0  0.006544  -0.041137  0  3.941231  0
C  C66  1  0.41415972  0.70003946  0.30230877  1  0.423288  0  0.005919  -0.04706  0  3.967314  0
C  C67  1  0.46296709  0.74960795  0.32101578  1  0.044522  0  -0.040011  -0.06071  0  4.140947  0
C  C68  1  0.47757443  0.75848975  0.37646346  1  0.405721  0  0.007958  -0.041318  0  3.939572  0
C  C69  1  0.82088951  0.98574614  0.68822663  1  0.422388  0  0.004601  -0.047766  0  3.946423  0
C  C70  1  0.83520760  0.98824781  0.74309674  1  0.043898  0  -0.038225  -0.061303  0  4.148158  0
C  C71  1  0.87120117  0.94867064  0.75262983  1  0.407656  0  0.003018  -0.050251  0  3.961466  0
C  C72  1  0.86848449  0.83236836  0.47538713  1  0.407848  0  0.007909  -0.043127  0  3.954522  0
C  C73  1  0.81526464  0.85301960  0.44479756  1  -0.001651  0  -0.039534  -0.06898  0  4.139025  0
C  C74  1  0.80091935  0.88847192  0.48241262  1  0.476343  0  0.008383  -0.039445  0  3.938626  0
C  C75  1  0.01096619  0.79849532  0.72374516  1  0.385446  0  0.003552  -0.051295  0  3.959516  0
C  C76  1  0.04731776  0.76722267  0.69916394  1  -0.004573  0  -0.039198  -0.060137  0  4.150515  0
C  C77  1  0.03066917  0.77507608  0.64682519  1  0.440444  0  0.00472  -0.047835  0  3.944562  0
C  C78  1  0.28328947  0.51433832  0.84321518  1  0.403942  0  0.004452  -0.04975  0  3.96305  0
C  C79  1  0.24463827  0.53068286  0.79887925  1  0.029371  0  -0.039793  -0.064034  0  4.145281  0
C  C80  1  0.17599946  0.49455254  0.78054015  1  0.408549  0  0.006515  -0.04379  0  3.94051  0
C  C81  1  0.24667120  0.34796713  0.00998892  1  0.47787  0  0.007662  -0.041641  0  3.939202  0
C  C82  1  0.30882476  0.38588894  0.04369948  1  -0.032945  0  -0.040725  -0.066706  0  4.150871  0
C  C83  1  0.32432436  0.42130302  0.01196041  1  0.431079  0  0.004398  -0.048534  0  3.954955  0
C  C84  1  0.97461881  0.31425506  0.77545671  1  0.406265  0  0.007042  -0.045493  0  3.955878  0
C  C85  1  0.94708984  0.26947304  0.79240365  1  0.007949  0  -0.039061  -0.06815  0  4.14546  0
C  C86  1  0.00321771  0.26912653  0.83778123  1  0.434454  0  0.008896  -0.040505  0  3.942603  0
C  C87  1  0.63733838  0.97641830  0.10223388  1  0.448634  0  0.003512  -0.05275  0  3.957812  0
C  C88  1  0.62273005  0.96022021  0.14676644  1  -0.041945  0  -0.040273  -0.060984  0  4.152792  0
C  C89  1  0.56517768  0.98190348  0.15272662  1  0.469938  0  0.000911  -0.054787  0  3.952912  0
C  C90  1  0.58430047  0.16030510  0.95640551  1  0.401688  0  0.001904  -0.053727  0  3.957853  0
C  C91  1  0.62618198  0.13781239  0.92891056  1  -0.001212  0  -0.039033  -0.058996  0  4.160083  0
C  C92  1  0.63262641  0.09270692  0.94879801  1  0.446093  0  0.000583  -0.054358  0  3.949119  0
C  C93  1  0.39984098  0.12316813  0.13654050  1  0.414272  0  0.005253  -0.047771  0  3.961826  0
C  C94  1  0.39000806  0.17261458  0.13040092  1  0.019745  0  -0.039741  -0.066757  0  4.151683  0
C  C95  1  0.42999136  0.18684962  0.09612769  1  0.421579  0  0.007954  -0.040957  0  3.944715  0
C  C96  1  0.81763337  0.02221928  0.78192002  1  0.322553  0  0.05888  0.182337  0  4.045981  0
C  C97  1  0.82088797  0.02313461  0.83401375  1  0.026066  0  -0.130845  -0.231169  0  4.067352  0
C  C98  1  0.79852459  0.06799872  0.85265182  1  0.095243  0  -0.136954  -0.284874  0  4.068332  0
C  C99  1  0.78200502  0.09150611  0.81033580  1  0.787863  0  0.166891  0.301495  0  4.026244  0
C  C100  1  0.34799659  0.40813947  0.32433553  1  0.341094  0  0.056313  0.174855  0  4.043996  0
C  C101  1  0.36341485  0.36659726  0.34566483  1  0.008605  0  -0.129966  -0.227901  0  4.07038  0
C  C102  1  0.36574776  0.32795898  0.30364491  1  0.056703  0  -0.140426  -0.298458  0  4.076061  0
C  C103  1  0.35050143  0.34819758  0.25886074  1  0.807354  0  0.174683  0.307771  0  4.041193  0
C  C104  1  0.66120331  0.93040273  0.17952399  1  0.35406  0  0.057397  0.174975  0  4.04322  0
C  C105  1  0.72683212  0.91777195  0.18527821  1  0.023747  0  -0.129355  -0.223371  0  4.073804  0
C  C106  1  0.73524355  0.88625592  0.22414341  1  0.034702  0  -0.143358  -0.306078  0  4.084991  0
C  C107  1  0.67415398  0.88214403  0.24034713  1  0.787113  0  0.172442  0.308001  0  4.032465  0
C  C108  1  0.27307699  0.57464807  0.77880591  1  0.357568  0  0.061462  0.182053  0  4.037471  0
C  C109  1  0.34319360  0.60149874  0.78493809  1  -0.004247  0  -0.129628  -0.228421  0  4.066632  0
C  C110  1  0.33843054  0.64471723  0.75992560  1  0.08664  0  -0.132952  -0.282  0  4.068205  0
C  C111  1  0.26534594  0.64107445  0.73921350  1  0.758814  0  0.1669  0.295093  0  4.035608  0
C  C112  1  0.65648479  0.15875875  0.89093133  1  0.371281  0  0.05423  0.169378  0  4.046632  0
C  C113  1  0.66160148  0.20522521  0.87479736  1  -0.008543  0  -0.129714  -0.222287  0  4.077805  0
C  C114  1  0.70218288  0.20480969  0.83780073  1  0.085394  0  -0.148061  -0.314942  0  4.084316  0
C  C115  1  0.71894990  0.15741101  0.83331829  1  0.781492  0  0.176323  0.315277  0  4.02941  0
C  C116  1  0.32045514  0.71136471  0.62074908  1  0.380436  0  0.064863  0.19152  0  4.041459  0
C  C117  1  0.32978573  0.76042729  0.64973428  1  -0.00853  0  -0.128867  -0.232419  0  4.054258  0
C  C118  1  0.29610927  0.75432757  0.69029130  1  0.06165  0  -0.126457  -0.269913  0  4.056237  0
C  C119  1  0.26753564  0.70194378  0.68324167  1  0.800843  0  0.165322  0.290191  0  4.037698  0
C  C120  1  0.34665401  0.38924584  0.09865047  1  0.371271  0  0.060422  0.182568  0  4.045522  0
C  C121  1  0.40644221  0.42401914  0.13566742  1  0.048997  0  -0.130386  -0.232316  0  4.061498  0
C  C122  1  0.41739357  0.40600876  0.18419353  1  0.046827  0  -0.131875  -0.276807  0  4.063526  0
C  C123  1  0.36281772  0.36164561  0.17403036  1  0.791996  0  0.167709  0.297261  0  4.040905  0
C  C124  1  0.78184152  0.83722364  0.38813981  1  0.406804  0  0.071684  0.203929  0  4.033093  0
C  C125  1  0.78709120  0.79788641  0.35104593  1  0.021807  0  -0.128686  -0.238218  0  4.043691  0
C  C126  1  0.73739058  0.79842943  0.30137951  1  0.03745  0  -0.117349  -0.251228  0  4.053527  0
C  C127  1  0.70529928  0.83807407  0.31082127  1  0.794346  0  0.163568  0.285314  0  4.029235  0
C  C128  1  0.87653370  0.23303986  0.77042736  1  0.43909  0  0.070285  0.201652  0  4.040683  0
C  C129  1  0.81976015  0.22347069  0.72394378  1  -0.032358  0  -0.128877  -0.242802  0  4.04103  0
C  C130  1  0.76328762  0.18219801  0.72685356  1  0.049834  0  -0.114407  -0.245515  0  4.050805  0
C  C131  1  0.78859362  0.16904106  0.77460332  1  0.815501  0  0.162407  0.279436  0  4.036248  0
C  C132  1  0.49045401  0.78131807  0.28808641  1  0.329673  0  0.053926  0.171354  0  4.038387  0
C  C133  1  0.46078298  0.78795921  0.23766330  1  -0.024847  0  -0.131807  -0.230115  0  4.081461  0
C  C134  1  0.51763605  0.81931275  0.22331715  1  0.059386  0  -0.146075  -0.30465  0  4.076384  0
C  C135  1  0.57890685  0.83000114  0.26650190  1  0.777203  0  0.169262  0.308334  0  4.030788  0
C  C136  1  0.09247763  0.73606547  0.72397184  1  0.373316  0  0.058063  0.177059  0  4.045691  0
C  C137  1  0.10644373  0.72225008  0.77248138  1  -0.002694  0  -0.130559  -0.229607  0  4.069991  0
C  C138  1  0.16251973  0.69490441  0.77654920  1  0.023017  0  -0.139382  -0.295368  0  4.071624  0
C  C139  1  0.17854858  0.69319749  0.72963419  1  0.808919  0  0.168916  0.303439  0  4.037082  0
C  C140  1  0.34913253  0.20167261  0.15508064  1  0.414636  0  0.062563  0.188754  0  4.037765  0
C  C141  1  0.29012954  0.18777553  0.17299849  1  0.001003  0  -0.129759  -0.236841  0  4.063905  0
C  C142  1  0.27452821  0.23475226  0.19407570  1  -0.011317  0  -0.126746  -0.270093  0  4.062147  0
C  C143  1  0.32579075  0.27458705  0.18850545  1  0.850481  0  0.167298  0.293143  0  4.039897  0
N  N144  1  0.34283991  0.54411027  0.35205238  1  -0.773493  0  -0.339446  -0.142434  0  3.769206  0
N  N145  1  0.34533160  0.53190719  0.40047789  1  -0.772442  0  -0.340063  -0.140934  0  3.777569  0
N  N146  1  0.35614086  0.63896673  0.50803314  1  -0.767852  0  -0.338695  -0.141745  0  3.771638  0
N  N147  1  0.38854408  0.68919496  0.50749632  1  -0.773289  0  -0.33544  -0.139386  0  3.762749  0
N  N148  1  0.43987970  0.71709422  0.38949217  1  -0.773556  0  -0.336164  -0.142685  0  3.750549  0
N  N149  1  0.40053596  0.68088024  0.34341045  1  -0.779083  0  -0.342075  -0.146096  0  3.770713  0
N  N150  1  0.87748397  0.92443647  0.70687255  1  -0.76651  0  -0.338542  -0.137463  0  3.784911  0
N  N151  1  0.84649668  0.94736535  0.66689629  1  -0.773913  0  -0.335185  -0.141777  0  3.760595  0
N  N152  1  0.84242086  0.88849262  0.53177956  1  -0.765714  0  -0.332265  -0.13813  0  3.752998  0
N  N153  1  0.88421626  0.85367789  0.52725969  1  -0.769469  0  -0.33844  -0.140643  0  3.777268  0
N  N154  1  0.98757835  0.80863532  0.64103257  1  -0.7643  0  -0.338155  -0.141222  0  3.77035  0
N  N155  1  0.97535703  0.82297226  0.68858927  1  -0.775447  0  -0.339832  -0.138959  0  3.78413  0
N  N156  1  0.17441518  0.45932750  0.81179894  1  -0.779731  0  -0.33412  -0.139381  0  3.759776  0
N  N157  1  0.24096388  0.47164626  0.85054836  1  -0.771761  0  -0.339332  -0.140042  0  3.780065  0
N  N158  1  0.27474244  0.40563603  0.96312273  1  -0.775983  0  -0.338405  -0.140291  0  3.776484  0
N  N159  1  0.22672798  0.36026300  0.96187951  1  -0.774491  0  -0.341376  -0.145258  0  3.772295  0
N  N160  1  0.05983501  0.31072226  0.84703983  1  -0.753609  0  -0.336873  -0.137601  0  3.772829  0
N  N161  1  0.04216601  0.33875714  0.80851288  1  -0.776528  0  -0.334051  -0.138078  0  3.768521  0
N  N162  1  0.54743357  0.00928034  0.11469296  1  -0.785984  0  -0.336512  -0.138689  0  3.763758  0
N  N163  1  0.59226182  0.00592554  0.08350779  1  -0.758557  0  -0.336685  -0.137072  0  3.77643  0
N  N164  1  0.59728920  0.08899556  0.98558815  1  -0.776859  0  -0.338191  -0.141857  0  3.768148  0
N  N165  1  0.56756052  0.13089412  0.99023534  1  -0.765689  0  -0.339796  -0.139099  0  3.787487  0
N  N166  1  0.46111355  0.14847058  0.08288765  1  -0.768023  0  -0.338045  -0.140139  0  3.770832  0
N  N167  1  0.44253864  0.10905936  0.10796055  1  -0.771324  0  -0.338595  -0.141758  0  3.770539  0
N  N168  1  0.75652402  0.13553573  0.80203713  1  -1.244613  0  -0.253594  -0.228292  0  3.770225  0
N  N169  1  0.34229580  0.32844296  0.20581082  1  -1.264363  0  -0.250397  -0.223301  0  3.804219  0
N  N170  1  0.65223940  0.85671733  0.27755401  1  -1.231793  0  -0.255391  -0.236686  0  3.749841  0
N  N171  1  0.22841507  0.67224222  0.71011135  1  -1.216731  0  -0.253596  -0.232577  0  3.753931  0
O  O172  1  0.79258434  0.06422693  0.76665081  1  -1.04936  0  -0.127901  -0.177597  0  2.527483  0
O  O173  1  0.33876626  0.39650223  0.27013629  1  -1.060451  0  -0.124891  -0.173397  0  2.54619  0
O  O174  1  0.62841551  0.90883789  0.21423360  1  -1.05583  0  -0.122073  -0.166169  0  2.527217  0
O  O175  1  0.22406169  0.59839553  0.74947185  1  -1.049765  0  -0.126777  -0.172062  0  2.510414  0
O  O176  1  0.69213700  0.12859278  0.86493896  1  -1.063722  0  -0.124593  -0.170448  0  2.534177  0
O  O177  1  0.28114094  0.67489457  0.64079868  1  -1.043584  0  -0.12505  -0.171557  0  2.523339  0
O  O178  1  0.31866342  0.35070103  0.12229134  1  -1.04749  0  -0.125776  -0.170579  0  2.520055  0
O  O179  1  0.73204543  0.86260596  0.36381157  1  -1.041538  0  -0.122697  -0.167688  0  2.513299  0
O  O180  1  0.85798780  0.19988846  0.80203598  1  -1.040201  0  -0.121428  -0.17052  0  2.52374  0
O  O181  1  0.56400731  0.80829507  0.30670206  1  -1.053983  0  -0.127656  -0.173868  0  2.535982  0
O  O182  1  0.13613352  0.71711377  0.69659729  1  -1.059381  0  -0.125801  -0.172593  0  2.532273  0
O  O183  1  0.37213124  0.25550227  0.16496214  1  -1.07238  0  -0.125199  -0.172825  0  2.518843  0
