# generated using pymatgen
data_CoH11C18NO4
_symmetry_space_group_name_H-M   'P 1'
_cell_length_a   13.21431385
_cell_length_b   13.20670184
_cell_length_c   16.05211882
_cell_angle_alpha   97.97189173
_cell_angle_beta   94.99154519
_cell_angle_gamma   91.09374902
_symmetry_Int_Tables_number   1
_chemical_formula_structural   CoH11C18NO4
_chemical_formula_sum   'Co6 H66 C108 N6 O24'
_cell_volume   2762.40399650
_cell_formula_units_Z   6
loop_
 _symmetry_equiv_pos_site_id
 _symmetry_equiv_pos_as_xyz
  1  'x, y, z'
loop_
 _atom_site_type_symbol
 _atom_site_label
 _atom_site_symmetry_multiplicity
 _atom_site_fract_x
 _atom_site_fract_y
 _atom_site_fract_z
 _atom_site_occupancy
 _atom_site_pbe_bader_charge
 _atom_site_pbe_bader_spin_density
 _atom_site_pbe_cm5_charge
 _atom_site_pbe_ddec_charge
 _atom_site_pbe_ddec_spin_density
 _atom_site_pbe_ddec_sum_bond_order
 _atom_site_pbe_magmom
Co  Co0  1  0.99860810  0.00413895  0.57149510  1  1.199959  2.604113  0.613192  0.761104  2.823302  2.760819  2.59
Co  Co1  1  0.00142284  0.99590049  0.42846183  1  1.206222  2.60522  0.612975  0.760373  2.823387  2.759157  2.59
Co  Co2  1  0.67496166  0.77115869  0.87457629  1  1.187359  2.605699  0.612089  0.763615  2.823282  2.777  2.589
Co  Co3  1  0.67798946  0.76294638  0.73200252  1  1.207461  2.609428  0.616623  0.761866  2.829388  2.768314  2.593
Co  Co4  1  0.32503149  0.22885630  0.12549755  1  1.188012  2.605821  0.612082  0.763499  2.823556  2.777204  2.589
Co  Co5  1  0.32197753  0.23705471  0.26807116  1  1.207661  2.609255  0.616625  0.762234  2.82964  2.767952  2.593
H  H6  1  0.17271228  0.02333727  0.72108980  1  0.122934  0.000835  0.115019  0.089302  0.000269  1.025008  0.001
H  H7  1  0.19150693  0.02492476  0.87776389  1  0.056078  0.000423  0.10838  0.117534  0.000143  0.994641  0.0
H  H8  1  0.86368083  0.01367071  0.86863129  1  0.065709  0.000478  0.106104  0.113208  7.2e-05  1.033163  0.0
H  H9  1  0.85936342  0.00904069  0.71317786  1  0.120098  0.000975  0.116699  0.093531  0.000333  1.025053  0.001
H  H10  1  0.11408347  0.03173164  0.00982167  1  0.073122  0.000127  0.107689  0.113888  5.1e-05  0.999476  0.0
H  H11  1  0.32721435  0.02545231  0.39402731  1  0.114681  0.000495  0.105439  0.11434  0.000295  1.04715  0.0
H  H12  1  0.49153745  0.03654739  0.33266042  1  0.109342  0.000254  0.102417  0.115386  8e-05  1.011522  0.0
H  H13  1  0.31918964  0.96803998  0.65068174  1  0.086599  0.000334  0.100847  0.103501  0.000199  1.028441  0.0
H  H14  1  0.94817572  0.67833069  0.59774745  1  0.120751  0.000406  0.105966  0.107245  0.000246  1.044783  0.0
H  H15  1  0.91927176  0.51796331  0.65610485  1  0.07456  0.000265  0.107309  0.115792  0.000105  0.986768  0.0
H  H16  1  0.06841696  0.67204807  0.35624469  1  0.061656  0.000455  0.102501  0.108552  0.000257  1.007979  0.0
H  H17  1  0.82734113  0.97668414  0.27888911  1  0.123932  0.000837  0.115001  0.089162  0.00027  1.025191  0.001
H  H18  1  0.80851236  0.97506890  0.12220909  1  0.055159  0.000425  0.108427  0.117692  0.000144  0.994748  0.0
H  H19  1  0.13634796  0.98634571  0.13131677  1  0.066019  0.000479  0.106025  0.112955  7.3e-05  1.033199  0.0
H  H20  1  0.14067747  0.99100187  0.28678070  1  0.120157  0.000976  0.116696  0.093654  0.000333  1.025252  0.001
H  H21  1  0.88592537  0.96826886  0.99015321  1  0.072876  0.000127  0.107691  0.114042  5.1e-05  0.9994  0.0
H  H22  1  0.67281336  0.97461152  0.60592520  1  0.114831  0.000494  0.105433  0.11444  0.000295  1.046785  0.0
H  H23  1  0.50846452  0.96346191  0.66727696  1  0.109948  0.000255  0.102215  0.115263  8e-05  1.011414  0.0
H  H24  1  0.68082298  0.03194403  0.34923803  1  0.086487  0.000335  0.100985  0.103755  0.000199  1.027725  0.0
H  H25  1  0.05184666  0.32174274  0.40216899  1  0.120422  0.000408  0.105732  0.106809  0.000246  1.045086  0.0
H  H26  1  0.08065678  0.48203085  0.34380663  1  0.072783  0.000266  0.107372  0.115869  0.000105  0.987163  0.0
H  H27  1  0.93157951  0.32796542  0.64364917  1  0.062651  0.000455  0.102568  0.108633  0.000257  1.008204  0.0
H  H28  1  0.35126440  0.75772287  0.91295940  1  0.105008  0.000465  0.100781  0.102775  0.000271  1.047534  0.0
H  H29  1  0.18415602  0.74982426  0.97567190  1  0.087614  0.0002  0.096814  0.100002  8.1e-05  1.026416  0.0
H  H30  1  0.99556883  0.75197176  0.95750765  1  0.08887  0.000362  0.101948  0.105784  0.00022  1.012858  0.0
H  H31  1  0.00414441  0.78058549  0.69453396  1  0.125303  0.000519  0.105872  0.114984  0.00033  1.047766  0.0
H  H32  1  0.16733583  0.77843647  0.63140801  1  0.0996  0.000261  0.103777  0.11422  9.2e-05  1.00592  0.0
H  H33  1  0.35672641  0.77384348  0.64833210  1  0.072122  0.000351  0.101775  0.103696  0.000215  1.02292  0.0
H  H34  1  0.70204306  0.08693396  0.69873376  1  0.10464  0.000378  0.106419  0.109638  0.000222  1.046196  0.0
H  H35  1  0.71857777  0.24598063  0.63535703  1  0.064889  0.000249  0.105595  0.111344  0.0001  0.989613  0.0
H  H36  1  0.71175504  0.43677806  0.64953292  1  0.096839  0.000533  0.10773  0.115525  0.000321  0.998382  0.0
H  H37  1  0.64559110  0.45064794  0.90812386  1  0.118371  0.000483  0.110187  0.122239  0.000295  0.989673  0.0
H  H38  1  0.62693450  0.28973571  0.97042516  1  0.055508  0.000266  0.106157  0.10666  0.000117  1.008578  0.0
H  H39  1  0.63704795  0.09913642  0.95779902  1  0.101979  0.000509  0.106953  0.115231  0.000294  1.000089  0.0
H  H40  1  0.83542200  0.71620478  0.01266576  1  0.116829  0.000871  0.119891  0.094965  0.000271  1.003814  0.001
H  H41  1  0.85401420  0.70761997  0.16823986  1  0.085935  0.000469  0.113113  0.122554  0.000187  0.980417  0.0
H  H42  1  0.79227116  0.75496336  0.30566206  1  0.060908  9.6e-05  0.109624  0.113168  5.1e-05  0.994736  0.0
H  H43  1  0.55809491  0.75718447  0.29767150  1  0.082368  2.5e-05  0.104904  0.103406  3e-06  1.00659  0.0
H  H44  1  0.81096370  0.77295964  0.43688389  1  0.063664  0.000484  0.10757  0.114696  5.8e-05  1.031023  0.0
H  H45  1  0.81580313  0.77513171  0.59173719  1  0.108886  0.001023  0.118053  0.093946  0.000352  1.025414  0.001
H  H46  1  0.50479165  0.72826397  0.58180887  1  0.1077  0.000852  0.118539  0.092595  0.000266  1.013984  0.001
H  H47  1  0.64869425  0.24228115  0.08710594  1  0.106758  0.000466  0.100742  0.102713  0.000271  1.047933  0.0
H  H48  1  0.81581020  0.25021555  0.02437293  1  0.087617  0.0002  0.096861  0.10021  8.1e-05  1.026379  0.0
H  H49  1  0.00438755  0.24804116  0.04252673  1  0.07384  0.000366  0.101808  0.105802  0.00022  1.012986  0.0
H  H50  1  0.99583300  0.21938853  0.30549388  1  0.125286  0.000519  0.106022  0.115084  0.00033  1.04762  0.0
H  H51  1  0.83267071  0.22157529  0.36863647  1  0.098525  0.000262  0.103778  0.114168  9.2e-05  1.006039  0.0
H  H52  1  0.64327248  0.22616077  0.35173286  1  0.070877  0.000351  0.101511  0.103192  0.000215  1.023259  0.0
H  H53  1  0.29795980  0.91308683  0.30129588  1  0.104331  0.000378  0.106568  0.109817  0.000222  1.046303  0.0
H  H54  1  0.28140762  0.75403634  0.36468473  1  0.067903  0.000249  0.105667  0.111377  0.0001  0.989217  0.0
H  H55  1  0.28822046  0.56323735  0.35051174  1  0.09599  0.000533  0.107813  0.115691  0.000321  0.99836  0.0
H  H56  1  0.35439568  0.54936220  0.09192285  1  0.119388  0.000483  0.11034  0.122447  0.000296  0.98959  0.0
H  H57  1  0.37302813  0.71025281  0.02961011  1  0.055822  0.000267  0.106105  0.106436  0.000117  1.008818  0.0
H  H58  1  0.36293498  0.90084677  0.04222645  1  0.102062  0.000509  0.107024  0.11539  0.000294  1.000109  0.0
H  H59  1  0.16456708  0.28381357  0.98735584  1  0.11667  0.000871  0.119874  0.094903  0.000271  1.003731  0.001
H  H60  1  0.14598490  0.29237396  0.83177914  1  0.08583  0.000469  0.113192  0.12266  0.000186  0.980303  0.0
H  H61  1  0.20774691  0.24502918  0.69436117  1  0.061949  9.5e-05  0.10965  0.113255  5.1e-05  0.994509  0.0
H  H62  1  0.44192712  0.24281274  0.70235874  1  0.082275  2.5e-05  0.104927  0.103404  3e-06  1.0068  0.0
H  H63  1  0.18904045  0.22704753  0.56316118  1  0.063674  0.000485  0.107676  0.114691  5.8e-05  1.030819  0.0
H  H64  1  0.18418725  0.22487230  0.40830412  1  0.109505  0.001026  0.118075  0.094036  0.000353  1.025462  0.001
H  H65  1  0.49519741  0.27175361  0.41821264  1  0.10821  0.000854  0.118505  0.092717  0.000267  1.013782  0.001
H  H66  1  0.55444721  0.83290759  0.17950549  1  0.098016  0.000547  0.104847  0.11212  0.000195  1.022139  0.0
H  H67  1  0.55062805  0.83766401  0.02491151  1  0.12672  0.000955  0.117737  0.08989  0.000302  1.00729  0.001
H  H68  1  0.48486599  0.72862805  0.42507827  1  0.108713  0.000391  0.104647  0.109366  0.000153  1.015782  0.0
H  H69  1  0.44554573  0.16707657  0.82053757  1  0.098534  0.000546  0.104809  0.112168  0.000195  1.022079  0.0
H  H70  1  0.44937009  0.16237527  0.97513976  1  0.125612  0.000955  0.117674  0.089837  0.000302  1.006994  0.001
H  H71  1  0.51514143  0.27139424  0.57494499  1  0.108384  0.000391  0.104668  0.109424  0.000153  1.015844  0.0
C  C72  1  0.10645070  0.02126533  0.75684470  1  0.451746  0.000427  0.047116  0.094843  -0.000364  3.949712  0.0
C  C73  1  0.11609758  0.02238488  0.84387080  1  0.013665  0.001901  -0.082889  -0.182418  0.000906  3.948622  0.002
C  C74  1  0.02868356  0.01752604  0.88733461  1  0.031645  -0.000194  0.006646  0.143158  -0.000361  4.03152  0.0
C  C75  1  0.93448231  0.01525820  0.83892337  1  -0.002298  0.002126  -0.083957  -0.172944  0.000955  3.924945  0.002
C  C76  1  0.93140573  0.01374361  0.75222120  1  0.440943  0.001587  0.046557  0.09532  0.000787  3.929553  0.001
C  C77  1  0.03822835  0.01302915  0.97776700  1  -0.00068  -3e-05  -0.075503  -0.110733  -0.000188  3.939112  0.0
C  C78  1  0.19942939  0.99783495  0.51103943  1  1.493267  -0.0136  0.212177  0.560012  -0.01803  4.172367  -0.012
C  C79  1  0.31209355  0.99431245  0.52013619  1  -0.055754  0.007899  -0.023763  -0.040131  0.004152  4.006637  0.007
C  C80  1  0.36678500  0.00896173  0.45274613  1  -0.040039  -0.004392  -0.07873  -0.142231  -0.005054  3.933652  -0.002
C  C81  1  0.47402574  0.00795905  0.46036096  1  0.033478  -0.000976  -0.007967  0.070235  -0.001217  4.003524  0.0
C  C82  1  0.53181096  0.02271416  0.39206280  1  -0.076075  0.000348  -0.087105  -0.125854  2e-06  3.962767  0.0
C  C83  1  0.36380849  0.97898274  0.59855698  1  -0.038053  0.000197  -0.089794  -0.101326  -0.000166  3.998753  0.0
C  C84  1  0.00159188  0.79946417  0.48570720  1  1.515364  -0.01317  0.210496  0.553099  -0.017477  4.179629  -0.011
C  C85  1  0.00778178  0.68628396  0.47836264  1  -0.066951  0.008113  -0.020377  -0.03313  0.004253  3.998228  0.007
C  C86  1  0.97698356  0.63553332  0.54228980  1  -0.028236  -0.003956  -0.075935  -0.139142  -0.004647  3.928817  -0.002
C  C87  1  0.98095240  0.52817965  0.53654908  1  -0.045175  -0.001047  -0.001487  0.084226  -0.001255  3.991582  0.0
C  C88  1  0.94900028  0.47441151  0.60109251  1  -0.09328  0.000274  -0.085866  -0.127237  -6.4e-05  3.969518  0.0
C  C89  1  0.04459754  0.63028770  0.40557414  1  0.031415  0.000184  -0.089907  -0.10554  -0.000249  3.994514  0.0
C  C90  1  0.89358944  0.97874518  0.24311905  1  0.451914  0.000424  0.047521  0.095527  -0.000367  3.949366  0.0
C  C91  1  0.88392772  0.97760873  0.15609323  1  0.013504  0.001913  -0.083167  -0.183049  0.000912  3.949252  0.002
C  C92  1  0.97134491  0.98247295  0.11262959  1  0.0316  -0.000204  0.00667  0.143162  -0.000371  4.031503  0.0
C  C93  1  0.06555317  0.98475068  0.16103055  1  -0.00438  0.002135  -0.083921  -0.172513  0.000959  3.924972  0.002
C  C94  1  0.06863758  0.98627448  0.24773361  1  0.443344  0.001576  0.046474  0.095069  0.000782  3.92864  0.001
C  C95  1  0.96178966  0.98697664  0.02219599  1  -0.103723  -3.4e-05  -0.075754  -0.111523  -0.000179  3.939396  0.0
C  C96  1  0.80059544  0.00219088  0.48884832  1  1.494645  -0.013598  0.212162  0.559567  -0.018037  4.172852  -0.012
C  C97  1  0.68792366  0.00570145  0.47979212  1  -0.056003  0.007895  -0.023457  -0.039367  0.00415  4.00584  0.007
C  C98  1  0.63323434  0.99107220  0.54720007  1  -0.038372  -0.004392  -0.078756  -0.142712  -0.005053  3.933259  -0.002
C  C99  1  0.52599492  0.99206723  0.53958326  1  -0.019855  -0.000971  -0.00784  0.070986  -0.001218  4.003876  0.0
C  C100  1  0.46820472  0.97729749  0.60787202  1  -0.075358  0.000349  -0.086952  -0.126275  2e-06  3.963233  0.0
C  C101  1  0.63619923  0.02101506  0.40137206  1  -0.039642  0.000201  -0.09016  -0.102237  -0.000164  3.999033  0.0
C  C102  1  0.99843239  0.20056858  0.51418625  1  1.515092  -0.013172  0.209812  0.55228  -0.017477  4.181214  -0.011
C  C103  1  0.99221837  0.31374962  0.52155482  1  -0.066106  0.008108  -0.020278  -0.03317  0.004249  3.997407  0.007
C  C104  1  0.02300698  0.36451089  0.45762568  1  -0.029935  -0.003947  -0.075687  -0.138055  -0.004637  3.927599  -0.002
C  C105  1  0.01901915  0.47186297  0.46337181  1  0.015413  -0.001056  -0.002004  0.082954  -0.001259  3.99181  0.0
C  C106  1  0.05096559  0.52561729  0.39882462  1  -0.092996  0.000279  -0.085759  -0.126923  -6e-05  3.970255  0.0
C  C107  1  0.95538032  0.36973875  0.59432859  1  0.032433  0.000184  -0.089968  -0.105414  -0.000248  3.993972  0.0
C  C108  1  0.36432419  0.76557795  0.78243938  1  -0.052034  0.008188  -0.020125  -0.029106  0.004222  4.001837  0.007
C  C109  1  0.30986786  0.76102011  0.85180367  1  0.002234  -0.004724  -0.081884  -0.141902  -0.005415  3.938725  -0.003
C  C110  1  0.20255990  0.76029010  0.84399859  1  -0.025723  -0.000904  -0.006177  0.075158  -0.001094  4.008359  0.0
C  C111  1  0.14451396  0.75434900  0.91383419  1  -0.05354  0.000112  -0.092354  -0.132119  -0.000114  3.985328  0.0
C  C112  1  0.04017277  0.75538227  0.90400534  1  -0.109435  0.00023  -0.0896  -0.097112  -0.000122  4.007269  0.0
C  C113  1  0.98853970  0.76344342  0.82391772  1  -0.014951  0.007669  -0.021451  -0.039416  0.004061  4.00388  0.007
C  C114  1  0.04330154  0.76986567  0.75500818  1  -0.057782  -0.004374  -0.076293  -0.133481  -0.005056  3.918397  -0.002
C  C115  1  0.15044059  0.76706250  0.76275325  1  0.045353  -0.001269  -0.003632  0.077623  -0.001509  3.9923  0.0
C  C116  1  0.20790251  0.77220467  0.69252932  1  -0.114148  0.000421  -0.085467  -0.120317  5.4e-05  3.959246  0.0
C  C117  1  0.31227501  0.77025664  0.70186904  1  0.002817  -0.000113  -0.088954  -0.101996  -0.000433  3.99354  0.0
C  C118  1  0.47722055  0.76573076  0.79237215  1  1.554301  -0.013754  0.214609  0.568695  -0.018074  4.157317  -0.012
C  C119  1  0.87594057  0.76750261  0.81463070  1  1.475124  -0.013297  0.212246  0.561577  -0.017838  4.170302  -0.012
C  C120  1  0.66935470  0.08172296  0.82671783  1  0.035201  0.007232  -0.022424  -0.0396  0.003793  4.002953  0.007
C  C121  1  0.68571815  0.13124449  0.75811976  1  -0.102059  -0.005159  -0.076665  -0.137995  -0.005874  3.928475  -0.003
C  C122  1  0.68319574  0.23877540  0.76388662  1  0.04368  -0.001288  -0.006811  0.07322  -0.001526  4.010638  0.0
C  C123  1  0.70130651  0.29096020  0.69452160  1  -0.10145  -2.1e-05  -0.087114  -0.133952  -0.000295  3.990545  0.0
C  C124  1  0.69810320  0.39594113  0.70218292  1  -0.043012  0.000243  -0.084198  -0.098246  -0.000191  3.985166  0.0
C  C125  1  0.67788607  0.45380892  0.78014234  1  0.094444  0.007762  -0.015286  -0.022103  0.004068  3.982056  0.007
C  C126  1  0.66034668  0.40488890  0.84872797  1  -0.144517  -0.004809  -0.076385  -0.136146  -0.005553  3.919898  -0.003
C  C127  1  0.66201952  0.29716530  0.84242454  1  0.018626  -0.001411  -0.00676  0.070285  -0.001665  4.016245  0.0
C  C128  1  0.64462328  0.24454780  0.91155759  1  -0.061269  1.5e-05  -0.087385  -0.138038  -0.000242  4.006095  0.0
C  C129  1  0.64916096  0.13969873  0.90459898  1  -0.061681  0.000157  -0.087286  -0.106916  -0.00022  3.996633  0.0
C  C130  1  0.67411023  0.96818489  0.81897017  1  1.47923  -0.013725  0.208585  0.550525  -0.018191  4.185532  -0.011
C  C131  1  0.67616731  0.56749594  0.78842185  1  1.489677  -0.014173  0.214537  0.56972  -0.018698  4.159474  -0.012
C  C132  1  0.77519580  0.74053603  0.05256807  1  0.463544  0.000207  0.050205  0.098512  -0.000515  3.95214  0.0
C  C133  1  0.78461905  0.73576268  0.13873461  1  -0.041351  0.002086  -0.081523  -0.184665  0.001027  3.953971  0.002
C  C134  1  0.70452037  0.76698310  0.18768613  1  -0.049818  -0.000382  0.007578  0.145824  -0.000531  4.03565  0.0
C  C135  1  0.61860704  0.80502981  0.14556833  1  -0.025374  0.002255  -0.083349  -0.178434  0.001067  3.929343  0.002
C  C136  1  0.61606043  0.80862424  0.05934965  1  0.483682  0.0011  0.048309  0.092729  0.000418  3.953055  0.001
C  C137  1  0.71434195  0.75999824  0.27774660  1  -0.019446  -8.4e-05  -0.07666  -0.115275  -0.0002  3.945129  0.0
C  C138  1  0.63621138  0.75645826  0.32635170  1  -0.047741  4.7e-05  -0.076221  -0.108589  -0.000126  3.947673  0.0
C  C139  1  0.64670332  0.75046026  0.41664730  1  -0.049126  -0.000271  0.008033  0.144684  -0.000413  4.025999  0.0
C  C140  1  0.74085865  0.76118164  0.46553904  1  0.052289  0.002211  -0.082347  -0.169285  0.000992  3.91893  0.002
C  C141  1  0.74427144  0.76218543  0.55215473  1  0.475208  0.001563  0.048812  0.097272  0.000801  3.926549  0.001
C  C142  1  0.57033606  0.73716983  0.54640927  1  0.470594  0.000306  0.050871  0.100706  -0.000474  3.941841  0.0
C  C143  1  0.56011264  0.73728571  0.45948175  1  -0.021233  0.002025  -0.080311  -0.17225  0.000966  3.92925  0.002
C  C144  1  0.63565567  0.23442539  0.21762109  1  -0.051296  0.008189  -0.020104  -0.028905  0.004223  4.001704  0.007
C  C145  1  0.69009922  0.23898850  0.14825588  1  0.000934  -0.004722  -0.081818  -0.141679  -0.00541  3.939601  -0.003
C  C146  1  0.79740635  0.23971915  0.15604727  1  -0.025251  -0.000904  -0.006142  0.075075  -0.001094  4.00799  0.0
C  C147  1  0.85545080  0.24566177  0.08621049  1  -0.052855  0.000113  -0.092516  -0.132418  -0.000113  3.98529  0.0
C  C148  1  0.95978783  0.24461766  0.09602605  1  -0.092794  0.000225  -0.089394  -0.097138  -0.000121  4.007691  0.0
C  C149  1  0.01143127  0.23654587  0.17611321  1  -0.014562  0.00767  -0.021258  -0.039305  0.004061  4.00425  0.007
C  C150  1  0.95667079  0.23011824  0.24501915  1  -0.058422  -0.00437  -0.07656  -0.133527  -0.005054  3.918559  -0.002
C  C151  1  0.84954067  0.23293921  0.23729405  1  0.043123  -0.001271  -0.003513  0.077815  -0.00151  3.992405  0.0
C  C152  1  0.79207816  0.22780466  0.30751628  1  -0.111497  0.000419  -0.085442  -0.12025  5.3e-05  3.960186  0.0
C  C153  1  0.68772011  0.22974984  0.29819030  1  0.00191  -0.000114  -0.088892  -0.101734  -0.000433  3.994129  0.0
C  C154  1  0.52275669  0.23425584  0.20769815  1  1.554483  -0.013754  0.214869  0.56883  -0.018071  4.156786  -0.012
C  C155  1  0.12403680  0.23249749  0.18540993  1  1.474312  -0.013286  0.212172  0.561236  -0.017837  4.171235  -0.012
C  C156  1  0.33063104  0.91828165  0.17330766  1  0.035841  0.007232  -0.022081  -0.038883  0.003793  4.002118  0.007
C  C157  1  0.31426773  0.86876475  0.24191060  1  -0.102899  -0.005162  -0.077087  -0.138746  -0.005878  3.928991  -0.003
C  C158  1  0.31678203  0.76124150  0.23615150  1  0.045345  -0.001292  -0.006849  0.073491  -0.001529  4.010441  0.0
C  C159  1  0.29867028  0.70904678  0.30551912  1  -0.105712  -2.2e-05  -0.08726  -0.133923  -0.000297  3.989843  0.0
C  C160  1  0.30186833  0.60406886  0.29785591  1  -0.041479  0.000239  -0.084219  -0.09868  -0.000193  3.985713  0.0
C  C161  1  0.32209533  0.54619889  0.21990376  1  0.091871  0.007761  -0.015202  -0.021907  0.004066  3.981825  0.007
C  C162  1  0.33962470  0.59511349  0.15131563  1  -0.143712  -0.004813  -0.076636  -0.136509  -0.005556  3.919746  -0.003
C  C163  1  0.33793738  0.70283546  0.15761728  1  0.036685  -0.001412  -0.006812  0.069971  -0.001666  4.01626  0.0
C  C164  1  0.35532667  0.75545056  0.08847603  1  -0.080072  1.5e-05  -0.087287  -0.137296  -0.000242  4.006063  0.0
C  C165  1  0.35081758  0.86029057  0.09542873  1  -0.061231  0.000158  -0.087413  -0.107463  -0.000218  3.996705  0.0
C  C166  1  0.32586349  0.03182277  0.18106294  1  1.480772  -0.013724  0.208693  0.550407  -0.018188  4.185646  -0.011
C  C167  1  0.32383310  0.43251053  0.21163348  1  1.489605  -0.014184  0.215156  0.570834  -0.018713  4.158786  -0.012
C  C168  1  0.22479557  0.25948159  0.94745672  1  0.463052  0.000204  0.050119  0.098584  -0.000519  3.951996  0.0
C  C169  1  0.21537863  0.26423507  0.86128533  1  -0.04156  0.002086  -0.081681  -0.184827  0.001028  3.954123  0.002
C  C170  1  0.29547723  0.23300863  0.81234498  1  -0.048256  -0.000387  0.007732  0.145994  -0.000537  4.035798  0.0
C  C171  1  0.38139075  0.19496734  0.85447087  1  -0.024168  0.002255  -0.083393  -0.178615  0.001068  3.929323  0.002
C  C172  1  0.38393180  0.19139425  0.94068775  1  0.484424  0.001096  0.048353  0.093131  0.000414  3.952842  0.001
C  C173  1  0.28567012  0.23999362  0.72228924  1  -0.022231  -7.9e-05  -0.076805  -0.115545  -0.000195  3.944609  0.0
C  C174  1  0.36380777  0.24354506  0.67367963  1  -0.047048  4.1e-05  -0.076247  -0.108634  -0.000132  3.94713  0.0
C  C175  1  0.35330156  0.24954835  0.58338739  1  -0.048667  -0.000267  0.008159  0.144951  -0.000408  4.02613  0.0
C  C176  1  0.25914776  0.23882701  0.53449824  1  0.051724  0.002215  -0.0824  -0.169143  0.000993  3.918421  0.002
C  C177  1  0.25573140  0.23783161  0.44788447  1  0.475018  0.001568  0.04893  0.097209  0.000804  3.926722  0.001
C  C178  1  0.42965688  0.26284862  0.45362195  1  0.502134  0.000287  0.051063  0.100845  -0.000473  3.940927  0.0
C  C179  1  0.43988632  0.26273048  0.54054963  1  -0.021313  0.002025  -0.080519  -0.172525  0.000966  3.929253  0.002
N  N180  1  0.01587206  0.01610250  0.71096710  1  -1.216079  0.043509  -0.31662  -0.213335  0.025149  3.450841  0.034
N  N181  1  0.98416764  0.98392099  0.28899616  1  -1.217137  0.043626  -0.316586  -0.213085  0.025204  3.449622  0.034
N  N182  1  0.69248217  0.77654933  0.01292955  1  -1.231694  0.042485  -0.316478  -0.213419  0.024576  3.463952  0.033
N  N183  1  0.66056347  0.75083918  0.59275688  1  -1.219434  0.043425  -0.31545  -0.212897  0.025003  3.449631  0.033
N  N184  1  0.30750947  0.22347679  0.98710615  1  -1.233089  0.04247  -0.316295  -0.213757  0.02457  3.463745  0.033
N  N185  1  0.33942717  0.24917700  0.40727830  1  -1.250733  0.043492  -0.315634  -0.213192  0.025027  3.449979  0.033
O  O186  1  0.15258370  0.00323779  0.57787429  1  -1.12207  0.085208  -0.299331  -0.525807  0.043816  2.408424  0.079
O  O187  1  0.84620912  0.00428551  0.56275998  1  -1.141505  0.096669  -0.301263  -0.507485  0.049979  2.374719  0.084
O  O188  1  0.99545187  0.84995710  0.55914857  1  -1.121384  0.090336  -0.299028  -0.514599  0.047107  2.38835  0.081
O  O189  1  0.99829986  0.15885546  0.58144096  1  -1.124595  0.088859  -0.307888  -0.522689  0.045866  2.352313  0.08
O  O190  1  0.84738528  0.99674700  0.42198656  1  -1.123972  0.085224  -0.299194  -0.525468  0.043815  2.408607  0.079
O  O191  1  0.15388314  0.99580093  0.43711148  1  -1.140873  0.09665  -0.301128  -0.507541  0.049988  2.37387  0.084
O  O192  1  0.00453867  0.15012733  0.44073390  1  -1.120611  0.090253  -0.298656  -0.514172  0.047092  2.389207  0.081
O  O193  1  0.00178323  0.84113245  0.41844223  1  -1.124749  0.088826  -0.30811  -0.522687  0.045867  2.351422  0.08
O  O194  1  0.52255580  0.76933545  0.86658302  1  -1.12594  0.096423  -0.307797  -0.515528  0.050635  2.350062  0.085
O  O195  1  0.52427720  0.76253335  0.72584581  1  -1.142649  0.08582  -0.297914  -0.522557  0.043963  2.406233  0.079
O  O196  1  0.83038154  0.76433488  0.74055631  1  -1.1317  0.095782  -0.301097  -0.508187  0.05007  2.371837  0.084
O  O197  1  0.82909479  0.77406412  0.88152733  1  -1.13038  0.084587  -0.300942  -0.531935  0.043941  2.40873  0.078
O  O198  1  0.67934565  0.91801053  0.74537497  1  -1.127356  0.084803  -0.29904  -0.517405  0.044222  2.390073  0.077
O  O199  1  0.67370490  0.92636254  0.88613923  1  -1.12022  0.084764  -0.306376  -0.521385  0.044224  2.351346  0.077
O  O200  1  0.67332439  0.61777988  0.86217793  1  -1.126977  0.096893  -0.306134  -0.517232  0.050141  2.35116  0.087
O  O201  1  0.67795810  0.60926922  0.72139541  1  -1.109557  0.095539  -0.304288  -0.512188  0.049466  2.345841  0.086
O  O202  1  0.47742525  0.23068250  0.13348721  1  -1.126492  0.096447  -0.307782  -0.51537  0.050661  2.34963  0.085
O  O203  1  0.47570112  0.23740583  0.27421817  1  -1.142801  0.085781  -0.298116  -0.523015  0.043929  2.406603  0.079
O  O204  1  0.16958411  0.23565141  0.25948515  1  -1.132513  0.095789  -0.301336  -0.508377  0.05007  2.372416  0.084
O  O205  1  0.17090227  0.22596216  0.11852308  1  -1.129559  0.084595  -0.300771  -0.531563  0.043951  2.408933  0.078
O  O206  1  0.32057986  0.08198382  0.25465221  1  -1.129111  0.084776  -0.299156  -0.517534  0.044212  2.390082  0.077
O  O207  1  0.32630637  0.07365837  0.11389909  1  -1.120385  0.084799  -0.306391  -0.521265  0.044235  2.351567  0.077
O  O208  1  0.32670171  0.38222436  0.13786767  1  -1.126829  0.096974  -0.306488  -0.517822  0.050189  2.35085  0.087
O  O209  1  0.32202386  0.39073095  0.27864990  1  -1.109674  0.095476  -0.304534  -0.5128  0.049428  2.345808  0.086
