# generated using pymatgen
data_Hf3H8C20(N3O8)2
_symmetry_space_group_name_H-M   'P 1'
_cell_length_a   15.42376946
_cell_length_b   18.92617902
_cell_length_c   18.93493077
_cell_angle_alpha   88.77997474
_cell_angle_beta   89.88618133
_cell_angle_gamma   89.90607695
_symmetry_Int_Tables_number   1
_chemical_formula_structural   Hf3H8C20(N3O8)2
_chemical_formula_sum   'Hf6 H16 C40 N12 O32'
_cell_volume   5526.08187219
_cell_formula_units_Z   2
loop_
 _symmetry_equiv_pos_site_id
 _symmetry_equiv_pos_as_xyz
  1  'x, y, z'
loop_
 _atom_site_type_symbol
 _atom_site_label
 _atom_site_symmetry_multiplicity
 _atom_site_fract_x
 _atom_site_fract_y
 _atom_site_fract_z
 _atom_site_occupancy
 _atom_site_pbe_bader_charge
 _atom_site_pbe_bader_spin_density
 _atom_site_pbe_cm5_charge
 _atom_site_pbe_ddec_charge
 _atom_site_pbe_ddec_spin_density
 _atom_site_pbe_ddec_sum_bond_order
 _atom_site_pbe_magmom
Hf  Hf0  1  0.99356015  0.09863717  0.01030187  1  2.591497  0  1.424316  2.117036  0  3.433789  0
Hf  Hf1  1  0.99689167  0.96080658  0.88738768  1  2.59073  0  1.427434  2.126179  0  3.434727  0
Hf  Hf2  1  0.99652014  0.97296783  0.15049113  1  2.589672  0  1.424184  2.113466  0  3.443771  0
Hf  Hf3  1  0.99377428  0.83558522  0.02789263  1  2.591032  0  1.422821  2.113491  0  3.442567  0
Hf  Hf4  1  0.83452344  0.96744030  0.01922457  1  2.624944  0  1.492585  2.113014  0  3.381766  0
Hf  Hf5  1  0.15615510  0.96712425  0.01919668  1  2.62494  0  1.4952  2.114171  0  3.379145  0
H  H6  1  0.11246088  0.07815361  0.90902959  1  0.610038  0  0.338601  0.433812  0  0.83681  0
H  H7  1  0.87460011  0.85752249  0.91451175  1  0.601292  0  0.336693  0.421591  0  0.856366  0
H  H8  1  0.11173166  0.85585343  0.12989217  1  0.630371  0  0.339233  0.43479  0  0.835125  0
H  H9  1  0.87800507  0.07582935  0.12695726  1  0.61487  0  0.33925  0.434729  0  0.834881  0
H  H10  1  0.94311928  0.86975354  0.78707299  1  0.601877  0  0.300631  0.403988  0  0.88934  0
H  H11  1  0.05106471  0.73297936  0.94501479  1  0.657491  0  0.337487  0.426944  0  0.866439  0
H  H12  1  0.96157136  0.73339955  0.12221139  1  0.617318  0  0.298998  0.4038  0  0.891525  0
H  H13  1  0.03998360  0.90115404  0.27468541  1  0.63225  0  0.347516  0.427417  0  0.842986  0
H  H14  1  0.02844524  0.06682172  0.24904095  1  0.626531  0  0.298948  0.404016  0  0.891079  0
H  H15  1  0.94708605  0.22127069  0.07787970  1  0.634627  0  0.346489  0.426735  0  0.846032  0
H  H16  1  0.96038277  0.19986906  0.91535800  1  0.604306  0  0.298266  0.402753  0  0.893151  0
H  H17  1  0.04545671  0.03106710  0.76736954  1  0.650795  0  0.344933  0.426718  0  0.850782  0
H  H18  1  0.93928837  0.89377796  0.25908258  1  0.646507  0  0.336428  0.423844  0  0.871267  0
H  H19  1  0.04780771  0.20637340  0.08742585  1  0.656748  0  0.336657  0.424329  0  0.870138  0
H  H20  1  0.94426262  0.04238600  0.77701863  1  0.641701  0  0.3387  0.424836  0  0.862787  0
H  H21  1  0.95315350  0.71193341  0.95933283  1  0.633572  0  0.347755  0.426326  0  0.844875  0
C  C22  1  0.49395197  0.35977632  0.02012931  1  1.20415  0  0.270205  0.438197  0  4.081227  0
C  C23  1  0.42137168  0.25603231  0.02568599  1  1.125358  0  0.272154  0.440226  0  4.073799  0
C  C24  1  0.56805689  0.25673153  0.01705037  1  1.176263  0  0.27158  0.436843  0  4.080249  0
C  C25  1  0.49539655  0.57466657  0.01840876  1  1.210628  0  0.270134  0.437381  0  4.082069  0
C  C26  1  0.56970685  0.67735983  0.02245728  1  1.179113  0  0.271243  0.439155  0  4.077166  0
C  C27  1  0.42314998  0.67876346  0.01300605  1  1.123654  0  0.272816  0.440565  0  4.074215  0
C  C28  1  0.49651257  0.97028778  0.62644320  1  1.183354  0  0.269948  0.437523  0  4.080407  0
C  C29  1  0.42244227  0.97011414  0.72966944  1  1.175196  0  0.272488  0.441494  0  4.077007  0
C  C30  1  0.56922977  0.97637281  0.72968255  1  1.187675  0  0.271694  0.440284  0  4.078032  0
C  C31  1  0.49491834  0.96490017  0.41184772  1  1.230653  0  0.269864  0.4376  0  4.079224  0
C  C32  1  0.42008544  0.96589042  0.30925842  1  1.172466  0  0.272094  0.439305  0  4.076452  0
C  C33  1  0.56685651  0.95853198  0.30792827  1  1.167641  0  0.272929  0.441083  0  4.074639  0
C  C34  1  0.78355174  0.13165273  0.00990189  1  1.698127  0  0.251122  0.697734  0  4.172277  0
C  C35  1  0.20779985  0.96446885  0.85596088  1  1.680765  0  0.253467  0.691705  0  4.17637  0
C  C36  1  0.78288703  0.97680780  0.85637684  1  1.685056  0  0.249294  0.694424  0  4.176959  0
C  C37  1  0.20733330  0.12950511  0.02807151  1  1.708271  0  0.253644  0.69626  0  4.167434  0
C  C38  1  0.20528633  0.97199121  0.18379055  1  1.664673  0  0.251624  0.696229  0  4.172031  0
C  C39  1  0.78440390  0.80280287  0.02871739  1  1.681623  0  0.250202  0.694862  0  4.173417  0
C  C40  1  0.20813620  0.80480597  0.01061102  1  1.680537  0  0.253373  0.69612  0  4.168825  0
C  C41  1  0.78149484  0.95670601  0.18144382  1  1.689668  0  0.253072  0.695323  0  4.170737  0
C  C42  1  0.27645900  0.97105461  0.23367388  1  -0.075227  0  -0.009832  -0.122009  0  3.886257  0
C  C43  1  0.34053250  0.96885878  0.27087987  1  -0.095382  0  -0.00457  -0.067904  0  3.962549  0
C  C44  1  0.64548948  0.95480126  0.26830071  1  -0.218527  0  -0.005006  -0.069639  0  3.962053  0
C  C45  1  0.70933305  0.95352116  0.23066504  1  0.009745  0  -0.00639  -0.117696  0  3.881365  0
C  C46  1  0.34330534  0.96755209  0.76866046  1  -0.295158  0  -0.006454  -0.075562  0  3.967572  0
C  C47  1  0.27957621  0.96555186  0.80642181  1  0.128146  0  -0.003797  -0.110105  0  3.880659  0
C  C48  1  0.64800698  0.97966015  0.76889725  1  -0.324211  0  -0.005989  -0.069955  0  3.967425  0
C  C49  1  0.71126587  0.98057180  0.80698439  1  0.13963  0  -0.010598  -0.123023  0  3.890392  0
C  C50  1  0.49663921  0.96831850  0.55118125  1  -0.364405  0  0.004891  -0.069765  0  3.934545  0
C  C51  1  0.49594020  0.96673952  0.48711138  1  0.111242  0  0.004877  -0.06899  0  3.933531  0
C  C52  1  0.28032794  0.75572141  0.00741015  1  -0.003775  0  -0.004003  -0.112203  0  3.874103  0
C  C53  1  0.34441288  0.71830703  0.00892559  1  -0.173798  0  -0.005212  -0.072221  0  3.961975  0
C  C54  1  0.64908572  0.71580182  0.02667700  1  -0.025884  0  -0.004631  -0.067056  0  3.962385  0
C  C55  1  0.71302855  0.75305933  0.02918433  1  -0.145  0  -0.011324  -0.124962  0  3.889915  0
C  C56  1  0.34263089  0.21667526  0.02965415  1  -0.263284  0  -0.005912  -0.072569  0  3.962729  0
C  C57  1  0.27900100  0.17889997  0.03106804  1  0.053922  0  -0.005088  -0.114604  0  3.878567  0
C  C58  1  0.71184371  0.18122927  0.01042806  1  -0.17847  0  -0.010521  -0.124407  0  3.889069  0
C  C59  1  0.64746880  0.21813800  0.01308132  1  -0.028253  0  -0.00416  -0.065688  0  3.963478  0
C  C60  1  0.49373329  0.43513995  0.01937752  1  -0.132455  0  0.004833  -0.069823  0  3.937411  0
C  C61  1  0.49452851  0.49930444  0.01891060  1  -0.144436  0  0.00518  -0.068665  0  3.936185  0
N  N62  1  0.41642943  0.32719727  0.02519134  1  -1.068873  0  -0.28922  -0.383292  0  3.067138  0
N  N63  1  0.49509423  0.21783314  0.02198624  1  -1.041634  0  -0.280239  -0.364901  0  3.056637  0
N  N64  1  0.57201236  0.32788815  0.01574839  1  -1.105024  0  -0.290688  -0.385828  0  3.072463  0
N  N65  1  0.57349527  0.60616890  0.02349276  1  -1.121447  0  -0.291291  -0.387092  0  3.070833  0
N  N66  1  0.49690311  0.71660098  0.01741009  1  -1.099939  0  -0.280561  -0.366293  0  3.057219  0
N  N67  1  0.41807753  0.60762945  0.01291219  1  -1.041202  0  -0.288542  -0.382136  0  3.067356  0
N  N68  1  0.41846241  0.96781121  0.65863185  1  -1.095835  0  -0.289118  -0.383002  0  3.067471  0
N  N69  1  0.49563637  0.97460917  0.76814357  1  -1.134151  0  -0.28102  -0.367006  0  3.057732  0
N  N70  1  0.57423269  0.97445159  0.65864774  1  -1.064701  0  -0.290873  -0.386625  0  3.068198  0
N  N71  1  0.41659177  0.96818962  0.38032305  1  -1.138839  0  -0.290527  -0.38541  0  3.067031  0
N  N72  1  0.49287672  0.96100294  0.27011886  1  -1.089424  0  -0.280559  -0.366367  0  3.057375  0
N  N73  1  0.57226631  0.96004810  0.37896205  1  -1.07375  0  -0.289749  -0.384585  0  3.068896  0
O  O74  1  0.86034992  0.15637847  0.00825653  1  -1.167573  0  -0.320438  -0.599565  0  2.269289  0
O  O75  1  0.76155902  0.06697462  0.01209346  1  -1.141782  0  -0.32093  -0.544981  0  2.276641  0
O  O76  1  0.13138343  0.96597393  0.83117790  1  -1.157281  0  -0.309453  -0.562224  0  2.262525  0
O  O77  1  0.22980471  0.96283832  0.92072325  1  -1.140217  0  -0.325626  -0.551317  0  2.281125  0
O  O78  1  0.85943108  0.98308962  0.83216799  1  -1.176147  0  -0.309747  -0.593771  0  2.266923  0
O  O79  1  0.76099198  0.96502595  0.92047254  1  -1.148878  0  -0.326565  -0.550689  0  2.271798  0
O  O80  1  0.13081237  0.15293078  0.03529804  1  -1.164049  0  -0.302418  -0.568432  0  2.253657  0
O  O81  1  0.22964199  0.06592278  0.01633241  1  -1.141843  0  -0.327059  -0.553554  0  2.270875  0
O  O82  1  0.00758847  0.17076542  0.93302556  1  -1.22579  0  -0.697886  -0.938789  0  1.859705  0
O  O83  1  0.98951478  0.18620268  0.09391212  1  -1.231051  0  -0.563631  -0.745598  0  2.06025  0
O  O84  1  0.00085788  0.04795952  0.79971493  1  -1.225555  0  -0.562406  -0.742267  0  2.062501  0
O  O85  1  0.99098088  0.88867621  0.81348849  1  -1.222151  0  -0.698123  -0.935248  0  1.871416  0
O  O86  1  0.92544849  0.02116912  0.96072714  1  -1.224155  0  -0.753248  -1.073351  0  2.182997  0
O  O87  1  0.08365213  0.04386981  0.93999031  1  -1.245509  0  -0.643834  -0.966851  0  2.276954  0
O  O88  1  0.12822906  0.97285507  0.20832760  1  -1.163732  0  -0.323217  -0.600577  0  2.272428  0
O  O89  1  0.22791927  0.97111155  0.11931163  1  -1.134177  0  -0.317952  -0.541141  0  2.276632  0
O  O90  1  0.86134010  0.77808533  0.02993435  1  -1.167107  0  -0.322341  -0.597272  0  2.268575  0
O  O91  1  0.76207186  0.86746182  0.02578342  1  -1.142153  0  -0.320276  -0.544092  0  2.274717  0
O  O92  1  0.13190453  0.78138219  0.00242613  1  -1.162893  0  -0.301349  -0.570114  0  2.252849  0
O  O93  1  0.22961283  0.86820556  0.02372207  1  -1.147957  0  -0.326963  -0.554022  0  2.273071  0
O  O94  1  0.85769481  0.94838601  0.20520951  1  -1.167586  0  -0.300995  -0.567523  0  2.253921  0
O  O95  1  0.76005726  0.96978052  0.11744469  1  -1.133698  0  -0.328361  -0.554292  0  2.270161  0
O  O96  1  0.99773937  0.88705191  0.23942722  1  -1.215254  0  -0.563364  -0.744954  0  2.058655  0
O  O97  1  0.98165927  0.04938785  0.22022233  1  -1.250757  0  -0.69771  -0.939696  0  1.859281  0
O  O98  1  0.00842137  0.76281342  0.10446492  1  -1.238556  0  -0.697765  -0.939268  0  1.859046  0
O  O99  1  0.99075153  0.74990026  0.94199810  1  -1.231574  0  -0.562776  -0.745339  0  2.055694  0
O  O100  1  0.08271643  0.89060702  0.09958662  1  -1.265691  0  -0.642662  -0.962236  0  2.267483  0
O  O101  1  0.92497268  0.91288164  0.07680780  1  -1.224054  0  -0.756365  -1.076351  0  2.198538  0
O  O102  1  0.06489627  0.02331494  0.07242062  1  -1.221734  0  -0.756765  -1.07685  0  2.201033  0
O  O103  1  0.90751992  0.88804347  0.94498326  1  -1.244868  0  -0.643946  -0.975552  0  2.312362  0
O  O104  1  0.90688816  0.04595707  0.09294278  1  -1.250386  0  -0.642704  -0.961841  0  2.27084  0
O  O105  1  0.06521113  0.91070943  0.96587701  1  -1.223425  0  -0.753102  -1.069155  0  2.174897  0
