# generated using pymatgen
data_MoH4C5NO3
_symmetry_space_group_name_H-M   'P 1'
_cell_length_a   6.81485783
_cell_length_b   9.03036276
_cell_length_c   10.49803670
_cell_angle_alpha   99.24757622
_cell_angle_beta   90.00005968
_cell_angle_gamma   89.99990949
_symmetry_Int_Tables_number   1
_chemical_formula_structural   MoH4C5NO3
_chemical_formula_sum   'Mo4 H16 C20 N4 O12'
_cell_volume   637.65919855
_cell_formula_units_Z   4
loop_
 _symmetry_equiv_pos_site_id
 _symmetry_equiv_pos_as_xyz
  1  'x, y, z'
loop_
 _atom_site_type_symbol
 _atom_site_label
 _atom_site_symmetry_multiplicity
 _atom_site_fract_x
 _atom_site_fract_y
 _atom_site_fract_z
 _atom_site_occupancy
 _atom_site_pbe_bader_spin_density
 _atom_site_pbe_cm5_charge
 _atom_site_pbe_ddec_charge
 _atom_site_pbe_ddec_spin_density
 _atom_site_pbe_ddec_sum_bond_order
 _atom_site_pbe_magmom
Mo  Mo0  1  0.75000008  0.99553517  0.18505550  1  0  1.572784  2.034352  0  4.755527  0
Mo  Mo1  1  0.25000000  0.00446525  0.81494282  1  0  1.572776  2.034326  0  4.7555  0
Mo  Mo2  1  0.25000084  0.16068945  0.23559740  1  0  1.539977  2.134475  0  4.700902  0
Mo  Mo3  1  0.74999925  0.83931097  0.76440283  1  0  1.539987  2.134528  0  4.700844  0
H  H4  1  0.74999843  0.00283209  0.49123002  1  0  0.118514  0.097009  0  1.026483  0
H  H5  1  0.25000165  0.99716609  0.50877085  1  0  0.118496  0.097005  0  1.02634  0
H  H6  1  0.74999841  0.18373912  0.69891652  1  0  0.110469  0.112459  0  1.01091  0
H  H7  1  0.25000167  0.81626131  0.30108371  1  0  0.110464  0.112457  0  1.010916  0
H  H8  1  0.75000105  0.46294809  0.68847712  1  0  0.105789  0.110938  0  1.049183  0
H  H9  1  0.25000050  0.53705121  0.31152391  1  0  0.105777  0.110931  0  1.049193  0
H  H10  1  0.75000079  0.54527667  0.47666892  1  0  0.11071  0.128956  0  1.022954  0
H  H11  1  0.24999783  0.45472263  0.52333116  1  0  0.110701  0.128924  0  1.022973  0
H  H12  1  0.74999911  0.60067129  0.29385295  1  0  0.112314  0.136165  0  1.013438  0
H  H13  1  0.24999656  0.39932913  0.70614823  1  0  0.112295  0.136171  0  1.013431  0
H  H14  1  0.74999888  0.64672688  0.06730224  1  0  0.110062  0.109482  0  1.029597  0
H  H15  1  0.24999973  0.35327466  0.93269910  1  0  0.110059  0.109472  0  1.029625  0
H  H16  1  0.74999977  0.42955952  0.88844558  1  0  0.109655  0.12261  0  1.019373  0
H  H17  1  0.25000177  0.57044315  0.11155496  1  0  0.109645  0.122586  0  1.019425  0
H  H18  1  0.75000009  0.16709855  0.94419588  1  0  0.117254  0.088956  0  1.025805  0
H  H19  1  0.25000292  0.83290300  0.05580355  1  0  0.117265  0.088974  0  1.025757  0
C  C20  1  0.74999831  0.12389140  0.49233110  1  0  0.060365  0.122081  0  3.896081  0
C  C21  1  0.25000031  0.87610678  0.50766882  1  0  0.060377  0.122118  0  3.896061  0
C  C22  1  0.74999976  0.22547387  0.60724568  1  0  -0.069978  -0.092995  0  3.903448  0
C  C23  1  0.25000032  0.77452543  0.39275534  1  0  -0.069961  -0.093007  0  3.9035  0
C  C24  1  0.74999960  0.37856951  0.60155442  1  0  -0.060336  -0.015362  0  3.912848  0
C  C25  1  0.25000049  0.62142979  0.39844566  1  0  -0.060314  -0.015324  0  3.912819  0
C  C26  1  0.74999945  0.42572067  0.48155569  1  0  -0.073226  -0.139819  0  3.897448  0
C  C27  1  0.24999916  0.57427751  0.51844518  1  0  -0.07324  -0.139838  0  3.897469  0
C  C28  1  0.74999947  0.31810780  0.36987718  1  0  0.119752  0.158884  0  4.019967  0
C  C29  1  0.24999914  0.68189038  0.63012274  1  0  0.119719  0.158907  0  4.019984  0
C  C30  1  0.74999932  0.35771944  0.23892529  1  0  0.119057  0.161058  0  4.025656  0
C  C31  1  0.24999929  0.64228098  0.76107589  1  0  0.119041  0.161001  0  4.025708  0
C  C32  1  0.75000062  0.50589883  0.21543793  1  0  -0.072599  -0.142735  0  3.882504  0
C  C33  1  0.24999946  0.49410047  0.78456310  1  0  -0.072569  -0.14268  0  3.88245  0
C  C34  1  0.75000049  0.53252593  0.08849144  1  0  -0.055348  0.002134  0  3.913098  0
C  C35  1  0.24999959  0.46747561  0.91150895  1  0  -0.055334  0.002163  0  3.913087  0
C  C36  1  0.74999987  0.41097925  0.98813230  1  0  -0.07479  -0.110203  0  3.920723  0
C  C37  1  0.25000021  0.58902117  0.01186888  1  0  -0.074811  -0.110256  0  3.920667  0
C  C38  1  0.74999924  0.26661630  0.01807855  1  0  0.05829  0.126628  0  3.908698  0
C  C39  1  0.25000084  0.73338525  0.98192183  1  0  0.058311  0.126709  0  3.908488  0
N  N40  1  0.74999817  0.16951529  0.37669933  1  0  -0.340191  -0.34139  0  3.577016  0
N  N41  1  0.25000045  0.83048176  0.62330043  1  0  -0.340118  -0.341378  0  3.577061  0
N  N42  1  0.74999937  0.24087138  0.14051235  1  0  -0.344434  -0.346798  0  3.589782  0
N  N43  1  0.25000071  0.75912904  0.85948883  1  0  -0.344422  -0.346826  0  3.589766  0
O  O44  1  0.75000177  0.85049032  0.27264417  1  0  -0.505637  -0.631761  0  1.678588  0
O  O45  1  0.24999831  0.14950786  0.72735289  1  0  -0.505661  -0.631745  0  1.678528  0
O  O46  1  0.75000150  0.91779846  0.02312624  1  0  -0.514346  -0.689394  0  1.805822  0
O  O47  1  0.24999858  0.08220870  0.97687111  1  0  -0.514359  -0.689408  0  1.805799  0
O  O48  1  0.02840570  0.04307336  0.19998288  1  0  -0.599645  -0.880481  0  2.161809  0
O  O49  1  0.52840539  0.95692730  0.80001723  1  0  -0.599659  -0.880521  0  2.161865  0
O  O50  1  0.97159292  0.95692706  0.80001735  1  0  -0.599647  -0.880488  0  2.161793  0
O  O51  1  0.47159323  0.04307200  0.19998189  1  0  -0.599658  -0.880493  0  2.161832  0
O  O52  1  0.24999945  0.21075991  0.40063147  1  0  -0.525938  -0.67806  0  1.638335  0
O  O53  1  0.75000063  0.78924051  0.59936876  1  0  -0.525952  -0.678076  0  1.638301  0
O  O54  1  0.24999915  0.32921409  0.17869686  1  0  -0.528863  -0.696698  0  1.700774  0
O  O55  1  0.75000094  0.67078521  0.82130321  1  0  -0.528867  -0.696723  0  1.700755  0
