# generated using pymatgen
data_Pr2AgH14C24NO16
_symmetry_space_group_name_H-M   'P 1'
_cell_length_a   8.62690873
_cell_length_b   11.76829224
_cell_length_c   13.48992436
_cell_angle_alpha   103.68133885
_cell_angle_beta   98.30420675
_cell_angle_gamma   99.13038898
_symmetry_Int_Tables_number   1
_chemical_formula_structural   Pr2AgH14C24NO16
_chemical_formula_sum   'Pr4 Ag2 H28 C48 N2 O32'
_cell_volume   1289.98065040
_cell_formula_units_Z   2
loop_
 _symmetry_equiv_pos_site_id
 _symmetry_equiv_pos_as_xyz
  1  'x, y, z'
loop_
 _atom_site_type_symbol
 _atom_site_label
 _atom_site_symmetry_multiplicity
 _atom_site_fract_x
 _atom_site_fract_y
 _atom_site_fract_z
 _atom_site_occupancy
 _atom_site_hle17_bader_spin_density
 _atom_site_hle17_ddec_charge
 _atom_site_hle17_ddec_spin_density
 _atom_site_hle17_ddec_sum_bond_order
 _atom_site_hle17_magmom
 _atom_site_hse06_10hf_bader_spin_density
 _atom_site_hse06_10hf_ddec_charge
 _atom_site_hse06_10hf_ddec_spin_density
 _atom_site_hse06_10hf_ddec_sum_bond_order
 _atom_site_hse06_10hf_magmom
 _atom_site_hse06_bader_spin_density
 _atom_site_hse06_ddec_charge
 _atom_site_hse06_ddec_spin_density
 _atom_site_hse06_ddec_sum_bond_order
 _atom_site_hse06_magmom
 _atom_site_pbe_bader_spin_density
 _atom_site_pbe_cm5_charge
 _atom_site_pbe_ddec_charge
 _atom_site_pbe_ddec_spin_density
 _atom_site_pbe_ddec_sum_bond_order
 _atom_site_pbe_magmom
Pr  Pr0  1  0.45194162  0.11517937  0.39959757  1  0  2.364554  0  1.566723  0  0  2.259387  0  1.928032  0  0  2.296235  0  1.885954  0  0  1.466354  2.186229  0  2.041679  0
Pr  Pr1  1  0.54805515  0.88481868  0.60040165  1  0  2.364636  0  1.566665  0  0  2.259491  0  1.92797  0  0  2.296335  0  1.88589  0  0  1.466429  2.186353  0  2.041584  0
Pr  Pr2  1  0.18208330  0.38379234  0.38648509  1  0  2.371076  0  1.643784  0  0  2.262527  0  2.023625  0  0  2.298267  0  1.979744  0  0  1.522438  2.19453  0  2.13081  0
Pr  Pr3  1  0.81791488  0.61620660  0.61351518  1  0  2.371079  0  1.643782  0  0  2.262537  0  2.023624  0  0  2.298281  0  1.979742  0  0  1.522437  2.194506  0  2.130872  0
Ag  Ag4  1  0.93455892  0.04651239  0.32038445  1  0  0.614626  0  1.315912  0  0  0.477128  0  1.73841  0  0  0.508835  0  1.692676  0  0  0.510443  0.455636  0  1.7675  0
Ag  Ag5  1  0.06544488  0.95348568  0.67961465  1  0  0.61458  0  1.315991  0  0  0.477138  0  1.73845  0  0  0.508841  0  1.692724  0  0  0.510456  0.455644  0  1.767537  0
H  H6  1  0.75835711  0.26787656  0.52031450  1  0  0.439352  0  0.828167  0  0  0.411456  0  0.899731  0  0  0.420555  0  0.889445  0  0  0.317167  0.405076  0  0.906163  0
H  H7  1  0.24164248  0.73212330  0.47968386  1  0  0.439404  0  0.828107  0  0  0.411515  0  0.899653  0  0  0.420614  0  0.889366  0  0  0.317191  0.405136  0  0.906087  0
H  H8  1  0.65625341  0.32834479  0.59916321  1  0  0.452655  0  0.840615  0  0  0.417577  0  0.910354  0  0  0.430086  0  0.892173  0  0  0.302411  0.408743  0  0.922948  0
H  H9  1  0.34374805  0.67165327  0.40083716  1  0  0.452639  0  0.840635  0  0  0.417558  0  0.910379  0  0  0.430065  0  0.8922  0  0  0.302391  0.408724  0  0.922974  0
H  H10  1  0.14834657  0.92985063  0.41053749  1  0  0.424184  0  0.863039  0  0  0.392082  0  0.939886  0  0  0.402567  0  0.924154  0  0  0.298114  0.384464  0  0.951192  0
H  H11  1  0.85165115  0.07015099  0.58946256  1  0  0.424176  0  0.863074  0  0  0.392075  0  0.939901  0  0  0.402559  0  0.924172  0  0  0.298091  0.384459  0  0.951207  0
H  H12  1  0.26249227  0.85356302  0.36531429  1  0  0.44367  0  0.838733  0  0  0.418776  0  0.893177  0  0  0.428926  0  0.878329  0  0  0.308161  0.411486  0  0.903631  0
H  H13  1  0.73750473  0.14643594  0.63468365  1  0  0.443683  0  0.838707  0  0  0.418796  0  0.893156  0  0  0.428942  0  0.878313  0  0  0.308161  0.411522  0  0.903593  0
H  H14  1  0.08925725  0.44620516  0.81792371  1  0  0.116442  0  0.926131  0  0  0.127504  0  0.980278  0  0  0.131172  0  0.977563  0  0  0.118145  0.124786  0  0.982395  0
H  H15  1  0.91074939  0.55379468  0.18208048  1  0  0.116432  0  0.926061  0  0  0.127489  0  0.980221  0  0  0.131158  0  0.977505  0  0  0.11815  0.124771  0  0.982338  0
H  H16  1  0.26968929  0.36285638  0.93299100  1  0  0.092898  0  0.962737  0  0  0.104988  0  1.019138  0  0  0.107396  0  1.019159  0  0  0.103827  0.1032  0  1.019381  0
H  H17  1  0.73031899  0.63714525  0.06701149  1  0  0.092952  0  0.962712  0  0  0.105031  0  1.019114  0  0  0.107443  0  1.019129  0  0  0.103847  0.103238  0  1.019362  0
H  H18  1  0.41702748  0.21066755  0.85127820  1  0  0.103359  0  0.947228  0  0  0.11321  0  1.008962  0  0  0.116308  0  1.006645  0  0  0.109455  0.110843  0  1.010927  0
H  H19  1  0.58298454  0.78933499  0.14872259  1  0  0.103339  0  0.947331  0  0  0.113175  0  1.009058  0  0  0.116272  0  1.006742  0  0  0.109422  0.11084  0  1.010983  0
H  H20  1  0.43840802  0.47234786  0.05501219  1  0  0.088553  0  0.988039  0  0  0.097962  0  1.054965  0  0  0.100928  0  1.052692  0  0  0.103868  0.095808  0  1.056715  0
H  H21  1  0.56159184  0.52765733  0.94499102  1  0  0.088571  0  0.988018  0  0  0.097958  0  1.054961  0  0  0.100923  0  1.052692  0  0  0.103876  0.095805  0  1.056711  0
H  H22  1  0.61931208  0.34205164  0.97792751  1  0  0.111364  0  0.949709  0  0  0.122613  0  1.006358  0  0  0.126335  0  1.003861  0  0  0.10651  0.119901  0  1.008323  0
H  H23  1  0.38068353  0.65795087  0.02207328  1  0  0.111315  0  0.949764  0  0  0.122575  0  1.006406  0  0  0.126295  0  1.003912  0  0  0.106503  0.119862  0  1.008373  0
H  H24  1  0.78085493  0.24822918  0.09422736  1  0  0.089748  0  0.960716  0  0  0.100888  0  1.022102  0  0  0.103986  0  1.020181  0  0  0.10281  0.098602  0  1.023655  0
H  H25  1  0.21913643  0.75176620  0.90576931  1  0  0.089747  0  0.960754  0  0  0.10088  0  1.022149  0  0  0.10398  0  1.020227  0  0  0.102794  0.098592  0  1.023704  0
H  H26  1  0.01294212  0.21816184  0.04162591  1  0  0.120883  0  0.934533  0  0  0.134113  0  0.98741  0  0  0.137348  0  0.98595  0  0  0.11899  0.131667  0  0.988837  0
H  H27  1  0.98705698  0.78184072  0.95836853  1  0  0.120858  0  0.934589  0  0  0.134129  0  0.987422  0  0  0.137364  0  0.985962  0  0  0.118969  0.131684  0  0.988848  0
H  H28  1  0.93711905  0.12275558  0.84799548  1  0  0.097297  0  0.916991  0  0  0.111055  0  0.970039  0  0  0.11359  0  0.967927  0  0  0.128563  0.109082  0  0.971846  0
H  H29  1  0.06288051  0.87723983  0.15199971  1  0  0.097308  0  0.917006  0  0  0.111044  0  0.970077  0  0  0.113577  0  0.967966  0  0  0.128574  0.10907  0  0.971885  0
H  H30  1  0.31345617  0.94354542  0.85680336  1  0  0.082907  0  0.950723  0  0  0.092481  0  1.01516  0  0  0.09432  0  1.013609  0  0  0.121166  0.091011  0  1.016585  0
H  H31  1  0.68654951  0.05645534  0.14319500  1  0  0.082891  0  0.950712  0  0  0.092467  0  1.015139  0  0  0.094305  0  1.01359  0  0  0.121163  0.091001  0  1.016556  0
H  H32  1  0.38582374  0.01613898  0.05196622  1  0  0.118506  0  0.939442  0  0  0.131797  0  0.993051  0  0  0.134712  0  0.992611  0  0  0.117242  0.129594  0  0.99376  0
H  H33  1  0.61418547  0.98387073  0.94803139  1  0  0.118507  0  0.93952  0  0  0.131791  0  0.993128  0  0  0.134705  0  0.992688  0  0  0.117207  0.129587  0  0.993837  0
C  C34  1  0.39207625  0.09868546  0.65762791  1  0  0.665379  0  3.917421  0  0  0.618649  0  4.217656  0  0  0.653705  0  4.206273  0  0  0.204638  0.59523  0  4.219617  0
C  C35  1  0.60791770  0.90131080  0.34237141  1  0  0.665568  0  3.917275  0  0  0.618866  0  4.217524  0  0  0.653925  0  4.206136  0  0  0.204667  0.595444  0  4.219491  0
C  C36  1  0.13333705  0.17751556  0.51804131  1  0  0.709301  0  3.862546  0  0  0.650666  0  4.160147  0  0  0.686642  0  4.148083  0  0  0.230464  0.626352  0  4.163951  0
C  C37  1  0.86665950  0.82248158  0.48196140  1  0  0.709322  0  3.86263  0  0  0.650833  0  4.159987  0  0  0.686814  0  4.147919  0  0  0.230543  0.626498  0  4.163826  0
C  C38  1  0.02836643  0.39286583  0.61286657  1  0  0.7048  0  3.894937  0  0  0.653699  0  4.199476  0  0  0.689386  0  4.187282  0  0  0.231588  0.629625  0  4.20359  0
C  C39  1  0.97163905  0.60713848  0.38713696  1  0  0.704792  0  3.894982  0  0  0.653702  0  4.199472  0  0  0.689392  0  4.187275  0  0  0.23162  0.629631  0  4.203585  0
C  C40  1  0.30236122  0.19424247  0.69585620  1  0  -0.109833  0  3.721572  0  0  -0.091651  0  3.962153  0  0  -0.101636  0  3.982856  0  0  -0.016836  -0.085841  0  3.94953  0
C  C41  1  0.69763837  0.80575290  0.30414566  1  0  -0.109691  0  3.721356  0  0  -0.091664  0  3.962103  0  0  -0.101652  0  3.982807  0  0  -0.016794  -0.085856  0  3.949489  0
C  C42  1  0.19278301  0.23626249  0.63195906  1  0  -0.047838  0  3.647448  0  0  -0.045618  0  3.886414  0  0  -0.044114  0  3.90279  0  0  0.011323  -0.046498  0  3.875849  0
C  C43  1  0.80721329  0.76373378  0.36804121  1  0  -0.047891  0  3.647563  0  0  -0.045688  0  3.886528  0  0  -0.044182  0  3.902905  0  0  0.01129  -0.046561  0  3.875968  0
C  C44  1  0.12308672  0.33143903  0.67777645  1  0  -0.08865  0  3.702919  0  0  -0.074969  0  3.941007  0  0  -0.084938  0  3.963711  0  0  -0.009539  -0.069183  0  3.927113  0
C  C45  1  0.87691477  0.66856348  0.32222783  1  0  -0.08864  0  3.702943  0  0  -0.074923  0  3.940957  0  0  -0.08489  0  3.963657  0  0  -0.009588  -0.069141  0  3.927065  0
C  C46  1  0.14873588  0.37485236  0.78577122  1  0  -0.016608  0  3.680558  0  0  -0.04371  0  3.927976  0  0  -0.040037  0  3.945974  0  0  -0.063348  -0.046006  0  3.916441  0
C  C47  1  0.85126749  0.62514836  0.21423434  1  0  -0.016495  0  3.680256  0  0  -0.043595  0  3.92764  0  0  -0.039923  0  3.945638  0  0  -0.063258  -0.04589  0  3.916103  0
C  C48  1  0.25054170  0.32948624  0.84893941  1  0  -0.080143  0  3.766242  0  0  -0.092211  0  4.02295  0  0  -0.098047  0  4.04526  0  0  -0.086462  -0.088591  0  4.008033  0
C  C49  1  0.74946445  0.67051182  0.15106213  1  0  -0.080252  0  3.765982  0  0  -0.092324  0  4.022669  0  0  -0.098162  0  4.044973  0  0  -0.086555  -0.088704  0  4.007768  0
C  C50  1  0.33122345  0.24381778  0.80395945  1  0  -0.013276  0  3.705865  0  0  -0.047126  0  3.96449  0  0  -0.042825  0  3.98243  0  0  -0.068082  -0.049786  0  3.952857  0
C  C51  1  0.66878177  0.75618118  0.19604219  1  0  -0.013404  0  3.705889  0  0  -0.047156  0  3.964471  0  0  -0.042857  0  3.982416  0  0  -0.068053  -0.049836  0  3.952825  0
C  C52  1  0.77187069  0.25389684  0.29284718  1  0  0.718501  0  3.852824  0  0  0.668832  0  4.145667  0  0  0.704191  0  4.133932  0  0  0.232548  0.644463  0  4.150932  0
C  C53  1  0.22812890  0.74610301  0.70715266  1  0  0.718612  0  3.852641  0  0  0.668859  0  4.145595  0  0  0.704217  0  4.133859  0  0  0.232538  0.644493  0  4.15086  0
C  C54  1  0.57136667  0.40656402  0.38217660  1  0  0.761446  0  3.841058  0  0  0.708312  0  4.145631  0  0  0.744298  0  4.129944  0  0  0.250796  0.683841  0  4.15114  0
C  C55  1  0.42862893  0.59343403  0.61782250  1  0  0.761497  0  3.840905  0  0  0.708301  0  4.145545  0  0  0.744293  0  4.129842  0  0  0.250798  0.683831  0  4.151054  0
C  C56  1  0.39385498  0.53609582  0.24637716  1  0  0.664484  0  3.895967  0  0  0.615392  0  4.196998  0  0  0.648347  0  4.189025  0  0  0.21504  0.593405  0  4.199397  0
C  C57  1  0.60614298  0.46390222  0.75362586  1  0  0.66471  0  3.896038  0  0  0.615678  0  4.196983  0  0  0.648634  0  4.189006  0  0  0.215161  0.59369  0  4.199385  0
C  C58  1  0.68039769  0.31701641  0.22737332  1  0  -0.079932  0  3.714293  0  0  -0.065676  0  3.951044  0  0  -0.07233  0  3.971838  0  0  -0.005285  -0.061544  0  3.937672  0
C  C59  1  0.31959627  0.68297986  0.77262601  1  0  -0.079945  0  3.714215  0  0  -0.065656  0  3.950951  0  0  -0.072307  0  3.971748  0  0  -0.005273  -0.061525  0  3.937579  0
C  C60  1  0.57754468  0.38933204  0.26863234  1  0  -0.066084  0  3.670447  0  0  -0.062471  0  3.901751  0  0  -0.063859  0  3.91997  0  0  0.00901  -0.06162  0  3.889875  0
C  C61  1  0.42245185  0.61066512  0.73136740  1  0  -0.066058  0  3.67035  0  0  -0.062387  0  3.901622  0  0  -0.06378  0  3.91984  0  0  0.008984  -0.061536  0  3.889749  0
C  C62  1  0.49249762  0.44662369  0.20529504  1  0  -0.07656  0  3.723693  0  0  -0.061088  0  3.956742  0  0  -0.06758  0  3.978652  0  0  -0.010455  -0.057065  0  3.942187  0
C  C63  1  0.50749940  0.55337524  0.79470734  1  0  -0.076747  0  3.72372  0  0  -0.061325  0  3.956793  0  0  -0.067813  0  3.9787  0  0  -0.010487  -0.057304  0  3.942243  0
C  C64  1  0.50613296  0.42579147  0.10084558  1  0  -0.062206  0  3.746338  0  0  -0.089578  0  4.000217  0  0  -0.089098  0  4.020644  0  0  -0.081724  -0.089723  0  3.986536  0
C  C65  1  0.49386477  0.57421015  0.89915670  1  0  -0.062103  0  3.74625  0  0  -0.089427  0  4.000106  0  0  -0.088942  0  4.02052  0  0  -0.081645  -0.089572  0  3.986427  0
C  C66  1  0.60679670  0.35377410  0.05894242  1  0  -0.086599  0  3.754055  0  0  -0.099833  0  4.00993  0  0  -0.103056  0  4.030043  0  0  -0.092714  -0.09777  0  3.996315  0
C  C67  1  0.39319914  0.64622484  0.94105838  1  0  -0.086568  0  3.754136  0  0  -0.099826  0  4.010014  0  0  -0.103046  0  4.030128  0  0  -0.092736  -0.097764  0  3.996398  0
C  C68  1  0.69692472  0.30180660  0.12350779  1  0  -0.058223  0  3.729265  0  0  -0.083792  0  3.98123  0  0  -0.082605  0  3.999846  0  0  -0.078786  -0.084377  0  3.968853  0
C  C69  1  0.30306619  0.69819146  0.87649015  1  0  -0.05824  0  3.729302  0  0  -0.083811  0  3.981262  0  0  -0.082627  0  3.999879  0  0  -0.07878  -0.084393  0  3.968882  0
C  C70  1  0.24518204  0.17144418  0.17722810  1  0  0.703913  0  3.887266  0  0  0.653004  0  4.192534  0  0  0.687779  0  4.180421  0  0  0.235172  0.629386  0  4.19675  0
C  C71  1  0.75481801  0.82856195  0.82276718  1  0  0.703948  0  3.886941  0  0  0.65311  0  4.192175  0  0  0.687886  0  4.180058  0  0  0.235206  0.629495  0  4.196394  0
C  C72  1  0.20453769  0.12335272  0.06067082  1  0  -0.000257  0  3.700555  0  0  0.020488  0  3.926719  0  0  0.018  0  3.948311  0  0  0.011653  0.021688  0  3.913347  0
C  C73  1  0.79546705  0.87665341  0.93932488  1  0  -7.2e-05  0  3.700184  0  0  0.020453  0  3.926645  0  0  0.017963  0  3.94824  0  0  0.011657  0.021649  0  3.913273  0
C  C74  1  0.07853345  0.15488801  0.00269799  1  0  -0.11265  0  3.688233  0  0  -0.134447  0  3.93213  0  0  -0.139895  0  3.953693  0  0  -0.069762  -0.131018  0  3.918223  0
C  C75  1  0.92146894  0.84511365  0.99729730  1  0  -0.112732  0  3.688189  0  0  -0.134503  0  3.932121  0  0  -0.139951  0  3.953685  0  0  -0.069748  -0.131075  0  3.918214  0
C  C76  1  0.03762691  0.10365018  0.89592413  1  0  0.121854  0  3.694744  0  0  0.091863  0  3.943871  0  0  0.097792  0  3.96372  0  0  0.055195  0.0879  0  3.930613  0
C  C77  1  0.96237383  0.89634970  0.10407063  1  0  0.122007  0  3.694804  0  0  0.092028  0  3.943875  0  0  0.09796  0  3.963722  0  0  0.055236  0.088065  0  3.930618  0
C  C78  1  0.24602091  0.00089712  0.90110750  1  0  0.116368  0  3.704889  0  0  0.084183  0  3.95929  0  0  0.090472  0  3.979027  0  0  0.04583  0.07988  0  3.946263  0
C  C79  1  0.75398571  0.99910722  0.09889022  1  0  0.116476  0  3.70485  0  0  0.084267  0  3.959203  0  0  0.090557  0  3.978938  0  0  0.045812  0.079963  0  3.946183  0
C  C80  1  0.28892184  0.04388126  0.00839916  1  0  -0.122026  0  3.70808  0  0  -0.142293  0  3.950383  0  0  -0.148636  0  3.972992  0  0  -0.072859  -0.138255  0  3.935801  0
C  C81  1  0.71108572  0.95612667  0.99159718  1  0  -0.122097  0  3.707985  0  0  -0.142294  0  3.950318  0  0  -0.14864  0  3.972934  0  0  -0.072814  -0.138253  0  3.935734  0
N  N82  1  0.12078788  0.02831479  0.84567619  1  0  -0.30352  0  3.349092  0  0  -0.215684  0  3.626166  0  0  -0.236105  0  3.645987  0  0  -0.341786  -0.201847  0  3.612762  0
N  N83  1  0.87921521  0.97168507  0.15432175  1  0  -0.303755  0  3.349213  0  0  -0.215845  0  3.626215  0  0  -0.236268  0  3.646036  0  0  -0.34179  -0.20201  0  3.612815  0
O  O84  1  0.39017277  0.05822639  0.55942384  1  0  -0.828713  0  2.099789  0  0  -0.776891  0  2.359113  0  0  -0.800719  0  2.345568  0  0  -0.425799  -0.75029  0  2.367203  0
O  O85  1  0.60981437  0.94176630  0.44057337  1  0  -0.828889  0  2.099805  0  0  -0.777061  0  2.359119  0  0  -0.800891  0  2.34557  0  0  -0.425878  -0.750461  0  2.367211  0
O  O86  1  0.46956884  0.05664873  0.72281810  1  0  -0.65585  0  1.957032  0  0  -0.61236  0  2.19083  0  0  -0.634263  0  2.180133  0  0  -0.359287  -0.592874  0  2.198066  0
O  O87  1  0.53043379  0.94334934  0.27718090  1  0  -0.655881  0  1.957106  0  0  -0.61239  0  2.190895  0  0  -0.634288  0  2.180185  0  0  -0.359227  -0.592905  0  2.198141  0
O  O88  1  0.21934505  0.19871913  0.45107056  1  0  -0.867241  0  2.185468  0  0  -0.812876  0  2.465709  0  0  -0.835398  0  2.44536  0  0  -0.452699  -0.785993  0  2.477092  0
O  O89  1  0.78065080  0.80127979  0.54893320  1  0  -0.867211  0  2.185582  0  0  -0.812896  0  2.465769  0  0  -0.83541  0  2.445398  0  0  -0.452724  -0.786001  0  2.477156  0
O  O90  1  0.99816272  0.10843805  0.49219079  1  0  -0.564203  0  2.106797  0  0  -0.480934  0  2.357935  0  0  -0.510942  0  2.347634  0  0  -0.279423  -0.460876  0  2.365242  0
O  O91  1  0.00183640  0.89156000  0.50781085  1  0  -0.564285  0  2.106883  0  0  -0.481074  0  2.357975  0  0  -0.511093  0  2.34768  0  0  -0.279482  -0.461009  0  2.365295  0
O  O92  1  0.00918560  0.35755332  0.51386800  1  0  -0.752055  0  2.064793  0  0  -0.707529  0  2.329969  0  0  -0.730553  0  2.315646  0  0  -0.385807  -0.685625  0  2.338079  0
O  O93  1  0.99081660  0.64245186  0.48613691  1  0  -0.752071  0  2.064853  0  0  -0.707587  0  2.330098  0  0  -0.730615  0  2.315775  0  0  -0.385857  -0.685676  0  2.338207  0
O  O94  1  0.97170878  0.47837852  0.66014734  1  0  -0.713463  0  2.04756  0  0  -0.670648  0  2.307029  0  0  -0.693248  0  2.29317  0  0  -0.400454  -0.649122  0  2.316604  0
O  O95  1  0.02830374  0.52163025  0.33985926  1  0  -0.713458  0  2.047632  0  0  -0.670655  0  2.307105  0  0  -0.693255  0  2.293249  0  0  -0.400438  -0.649132  0  2.316675  0
O  O96  1  0.69693155  0.19383809  0.34495151  1  0  -0.753589  0  2.057471  0  0  -0.70047  0  2.318896  0  0  -0.725607  0  2.305733  0  0  -0.393202  -0.677237  0  2.329087  0
O  O97  1  0.30306499  0.80615906  0.65504897  1  0  -0.753633  0  2.057499  0  0  -0.700504  0  2.318996  0  0  -0.725639  0  2.305831  0  0  -0.393191  -0.677277  0  2.329191  0
O  O98  1  0.91880799  0.25786735  0.28970110  1  0  -0.725667  0  2.082865  0  0  -0.674952  0  2.356443  0  0  -0.699339  0  2.341341  0  0  -0.383239  -0.652714  0  2.366521  0
O  O99  1  0.08118974  0.74213426  0.71030117  1  0  -0.725713  0  2.08273  0  0  -0.674961  0  2.35634  0  0  -0.699349  0  2.341236  0  0  -0.383237  -0.652719  0  2.366418  0
O  O100  1  0.45993181  0.33745190  0.40642570  1  0  -0.852582  0  2.148512  0  0  -0.806598  0  2.417716  0  0  -0.829292  0  2.401486  0  0  -0.434598  -0.780286  0  2.426892  0
O  O101  1  0.54006755  0.66254705  0.59357541  1  0  -0.852605  0  2.148307  0  0  -0.806622  0  2.417594  0  0  -0.829322  0  2.401367  0  0  -0.4346  -0.780308  0  2.42677  0
O  O102  1  0.68260494  0.48086346  0.44648182  1  0  -0.675055  0  1.996854  0  0  -0.633477  0  2.254586  0  0  -0.656155  0  2.241467  0  0  -0.366736  -0.612501  0  2.264963  0
O  O103  1  0.31739535  0.51913460  0.55351845  1  0  -0.675041  0  1.996912  0  0  -0.633486  0  2.25475  0  0  -0.656163  0  2.241625  0  0  -0.36673  -0.612511  0  2.265124  0
O  O104  1  0.36416904  0.53875542  0.33954887  1  0  -0.776303  0  2.063593  0  0  -0.714927  0  2.305854  0  0  -0.74082  0  2.29344  0  0  -0.400686  -0.691748  0  2.313646  0
O  O105  1  0.63583713  0.46124262  0.66045563  1  0  -0.776408  0  2.06363  0  0  -0.715081  0  2.305911  0  0  -0.740977  0  2.293495  0  0  -0.400772  -0.691896  0  2.313706  0
O  O106  1  0.35079240  0.60308445  0.19399971  1  0  -0.57378  0  1.859753  0  0  -0.53387  0  2.064171  0  0  -0.555314  0  2.056754  0  0  -0.318289  -0.51907  0  2.068755  0
O  O107  1  0.64919900  0.39691089  0.80600363  1  0  -0.573898  0  1.859874  0  0  -0.533995  0  2.064254  0  0  -0.55544  0  2.056834  0  0  -0.318343  -0.519193  0  2.068838  0
O  O108  1  0.32120058  0.11202321  0.22728972  1  0  -0.7322  0  2.014721  0  0  -0.693248  0  2.280033  0  0  -0.715986  0  2.265854  0  0  -0.391714  -0.670327  0  2.289519  0
O  O109  1  0.67880276  0.88798202  0.77270641  1  0  -0.732212  0  2.014685  0  0  -0.693269  0  2.279981  0  0  -0.716006  0  2.265804  0  0  -0.391728  -0.670353  0  2.289466  0
O  O110  1  0.19773780  0.26564654  0.21553871  1  0  -0.714616  0  2.056585  0  0  -0.673444  0  2.315563  0  0  -0.696096  0  2.302284  0  0  -0.384178  -0.651898  0  2.324345  0
O  O111  1  0.80225780  0.73435600  0.78445764  1  0  -0.714689  0  2.056473  0  0  -0.673521  0  2.315459  0  0  -0.696175  0  2.302182  0  0  -0.384235  -0.651966  0  2.324243  0
O  O112  1  0.67025618  0.24786541  0.55588886  1  0  -0.895413  0  1.825684  0  0  -0.840542  0  2.014163  0  0  -0.859841  0  1.984386  0  0  -0.598717  -0.821843  0  2.036481  0
O  O113  1  0.32974200  0.75213355  0.44410992  1  0  -0.89546  0  1.825642  0  0  -0.840591  0  2.014125  0  0  -0.859888  0  1.984347  0  0  -0.59872  -0.821892  0  2.036441  0
O  O114  1  0.22085739  0.92622566  0.36014084  1  0  -0.892936  0  1.83708  0  0  -0.857654  0  2.034168  0  0  -0.873779  0  2.000448  0  0  -0.616484  -0.840834  0  2.059879  0
O  O115  1  0.77913775  0.07377508  0.63985730  1  0  -0.892953  0  1.837088  0  0  -0.857696  0  2.034161  0  0  -0.873808  0  2.000431  0  0  -0.616465  -0.840898  0  2.059828  0
