# generated using pymatgen
data_CdH20C26(NO2)4
_symmetry_space_group_name_H-M   'P 1'
_cell_length_a   10.39724419
_cell_length_b   11.34821759
_cell_length_c   11.55237699
_cell_angle_alpha   97.84146971
_cell_angle_beta   108.74094413
_cell_angle_gamma   103.30554415
_symmetry_Int_Tables_number   1
_chemical_formula_structural   CdH20C26(NO2)4
_chemical_formula_sum   'Cd2 H40 C52 N8 O16'
_cell_volume   1222.98069229
_cell_formula_units_Z   2
loop_
 _symmetry_equiv_pos_site_id
 _symmetry_equiv_pos_as_xyz
  1  'x, y, z'
loop_
 _atom_site_type_symbol
 _atom_site_label
 _atom_site_symmetry_multiplicity
 _atom_site_fract_x
 _atom_site_fract_y
 _atom_site_fract_z
 _atom_site_occupancy
 _atom_site_hle17_bader_spin_density
 _atom_site_hle17_ddec_charge
 _atom_site_hle17_ddec_spin_density
 _atom_site_hle17_ddec_sum_bond_order
 _atom_site_hle17_magmom
 _atom_site_hse06_10hf_bader_spin_density
 _atom_site_hse06_10hf_ddec_charge
 _atom_site_hse06_10hf_ddec_spin_density
 _atom_site_hse06_10hf_ddec_sum_bond_order
 _atom_site_hse06_10hf_magmom
 _atom_site_hse06_bader_spin_density
 _atom_site_hse06_ddec_charge
 _atom_site_hse06_ddec_spin_density
 _atom_site_hse06_ddec_sum_bond_order
 _atom_site_hse06_magmom
 _atom_site_pbe_bader_spin_density
 _atom_site_pbe_cm5_charge
 _atom_site_pbe_ddec_charge
 _atom_site_pbe_ddec_spin_density
 _atom_site_pbe_ddec_sum_bond_order
 _atom_site_pbe_magmom
Cd  Cd0  1  0.64353467  0.31209941  0.20592937  1  0  1.113139  0  1.676785  0  0  0.911625  0  2.129047  0  0  0.970624  0  2.076569  0  0  0.781529  0.869788  0  2.16483  0
Cd  Cd1  1  0.35646595  0.68790094  0.79407047  1  0  1.113159  0  1.67679  0  0  0.911641  0  2.129061  0  0  0.970648  0  2.07657  0  0  0.78153  0.869807  0  2.164851  0
H  H2  1  0.04653157  0.01185079  0.60801672  1  0  0.394738  0  0.903843  0  0  0.363598  0  0.982822  0  0  0.376718  0  0.964917  0  0  0.30196  0.354187  0  0.993032  0
H  H3  1  0.95346501  0.98814957  0.39197761  1  0  0.394781  0  0.903821  0  0  0.363707  0  0.982688  0  0  0.376835  0  0.964753  0  0  0.301997  0.354295  0  0.992901  0
H  H4  1  0.13884086  0.66465386  0.45615182  1  0  0.330158  0  0.927376  0  0  0.310323  0  0.989187  0  0  0.319831  0  0.981117  0  0  0.307015  0.303544  0  0.994991  0
H  H5  1  0.86115950  0.33534277  0.54385177  1  0  0.33007  0  0.927323  0  0  0.310262  0  0.9891  0  0  0.319769  0  0.981032  0  0  0.306986  0.303483  0  0.994904  0
H  H6  1  0.33090735  0.62165075  0.08920847  1  0  0.338536  0  0.897482  0  0  0.320859  0  0.956084  0  0  0.330315  0  0.947488  0  0  0.316031  0.314079  0  0.962285  0
H  H7  1  0.66909284  0.37835146  0.91079668  1  0  0.33856  0  0.897447  0  0  0.320891  0  0.956038  0  0  0.330343  0  0.947443  0  0  0.316053  0.31412  0  0.962226  0
H  H8  1  0.32181852  0.13010147  0.39255626  1  0  0.116658  0  0.959477  0  0  0.120281  0  1.032106  0  0  0.124715  0  1.02813  0  0  0.108712  0.117147  0  1.034926  0
H  H9  1  0.67818571  0.86990354  0.60744179  1  0  0.116672  0  0.959515  0  0  0.120282  0  1.032157  0  0  0.124715  0  1.028181  0  0  0.108719  0.11715  0  1.034976  0
H  H10  1  0.41025338  0.04810772  0.75886937  1  0  0.138469  0  0.942083  0  0  0.146072  0  1.005944  0  0  0.150335  0  1.002669  0  0  0.114545  0.14305  0  1.008292  0
H  H11  1  0.58974071  0.95188520  0.24112237  1  0  0.138435  0  0.942112  0  0  0.146045  0  1.005972  0  0  0.150307  0  1.002698  0  0  0.114551  0.143023  0  1.008317  0
H  H12  1  0.75387882  0.18939956  0.63459169  1  0  0.115625  0  0.947864  0  0  0.122938  0  1.015454  0  0  0.127388  0  1.011555  0  0  0.110181  0.11988  0  1.017966  0
H  H13  1  0.24612086  0.81059800  0.36540923  1  0  0.1156  0  0.947849  0  0  0.122914  0  1.015434  0  0  0.127366  0  1.011531  0  0  0.110163  0.119855  0  1.017944  0
H  H14  1  0.76083441  0.02736132  0.95351806  1  0  0.100229  0  0.910296  0  0  0.114599  0  0.965772  0  0  0.115822  0  0.96494  0  0  0.120138  0.113834  0  0.966289  0
H  H15  1  0.23916887  0.97264089  0.04648194  1  0  0.100214  0  0.91026  0  0  0.114572  0  0.965749  0  0  0.115796  0  0.964917  0  0  0.12014  0.113805  0  0.966266  0
H  H16  1  0.57483919  0.97618441  0.86713488  1  0  0.103745  0  0.959315  0  0  0.109089  0  1.032957  0  0  0.111081  0  1.031582  0  0  0.112191  0.107714  0  1.034038  0
H  H17  1  0.42516321  0.02381222  0.13286758  1  0  0.103675  0  0.959383  0  0  0.109028  0  1.033034  0  0  0.111025  0  1.031649  0  0  0.112161  0.107646  0  1.034106  0
H  H18  1  0.90292229  0.18842878  0.19068522  1  0  0.111486  0  0.964656  0  0  0.12317  0  1.022115  0  0  0.126047  0  1.020761  0  0  0.103155  0.12108  0  1.023179  0
H  H19  1  0.09707631  0.81157158  0.80931143  1  0  0.111505  0  0.964666  0  0  0.1232  0  1.022104  0  0  0.126091  0  1.020735  0  0  0.103158  0.121089  0  1.023191  0
H  H20  1  0.14450227  0.16522558  0.21991914  1  0  0.08972  0  0.944675  0  0  0.103776  0  0.999788  0  0  0.106505  0  0.998712  0  0  0.100505  0.101803  0  1.000654  0
H  H21  1  0.85549704  0.83477385  0.78007673  1  0  0.089781  0  0.944656  0  0  0.103865  0  0.999737  0  0  0.106597  0  0.998657  0  0  0.100542  0.101893  0  1.000603  0
H  H22  1  0.35992192  0.33912705  0.33368253  1  0  0.098729  0  0.976557  0  0  0.10717  0  1.040407  0  0  0.110068  0  1.039412  0  0  0.096195  0.10512  0  1.041117  0
H  H23  1  0.64007840  0.66087238  0.66631537  1  0  0.098744  0  0.976572  0  0  0.107183  0  1.040421  0  0  0.11008  0  1.03943  0  0  0.096199  0.105134  0  1.041131  0
H  H24  1  0.34645914  0.54731669  0.42649123  1  0  0.105531  0  0.952014  0  0  0.118071  0  1.008343  0  0  0.120568  0  1.007546  0  0  0.101374  0.116226  0  1.009105  0
H  H25  1  0.65354185  0.45268180  0.57351194  1  0  0.105553  0  0.952096  0  0  0.118101  0  1.008396  0  0  0.120598  0  1.007598  0  0  0.101369  0.116256  0  1.009159  0
H  H26  1  0.87067546  0.67185148  0.46494610  1  0  0.089241  0  0.915259  0  0  0.099066  0  0.976423  0  0  0.100422  0  0.976552  0  0  0.111138  0.098213  0  0.97639  0
H  H27  1  0.12932544  0.32814980  0.53505741  1  0  0.089236  0  0.915295  0  0  0.099048  0  0.976445  0  0  0.100403  0  0.97657  0  0  0.111136  0.098202  0  0.976418  0
H  H28  1  0.85488435  0.70188747  0.31370098  1  0  0.079752  0  0.937669  0  0  0.090172  0  1.003667  0  0  0.091369  0  1.003499  0  0  0.110433  0.089328  0  1.003966  0
H  H29  1  0.14511532  0.29811009  0.68629994  1  0  0.079826  0  0.937631  0  0  0.090212  0  1.003631  0  0  0.091408  0  1.003458  0  0  0.110467  0.089376  0  1.003936  0
H  H30  1  0.64371939  0.67575669  0.19776748  1  0  0.084281  0  0.93439  0  0  0.093516  0  1.001744  0  0  0.094623  0  1.001914  0  0  0.111458  0.092824  0  1.001582  0
H  H31  1  0.35627956  0.32424180  0.80223595  1  0  0.084243  0  0.934399  0  0  0.093485  0  1.00179  0  0  0.094593  0  1.001962  0  0  0.111423  0.0928  0  1.001624  0
H  H32  1  0.56186823  0.67068475  0.31159367  1  0  0.080662  0  0.93509  0  0  0.090594  0  0.999486  0  0  0.091198  0  1.000417  0  0  0.106384  0.09007  0  0.999054  0
H  H33  1  0.43813174  0.32931374  0.68841006  1  0  0.080654  0  0.935104  0  0  0.090613  0  0.999513  0  0  0.091218  0  1.000446  0  0  0.106378  0.09009  0  0.999083  0
H  H34  1  0.04699693  0.45617227  0.92799773  1  0  0.109288  0  0.947362  0  0  0.121159  0  1.002657  0  0  0.124306  0  1.001375  0  0  0.104899  0.118954  0  1.003542  0
H  H35  1  0.95300153  0.54383088  0.07200790  1  0  0.109306  0  0.947377  0  0  0.121166  0  1.002688  0  0  0.124313  0  1.001408  0  0  0.104905  0.11896  0  1.003571  0
H  H36  1  0.93157929  0.23117066  0.82153394  1  0  0.094487  0  0.979938  0  0  0.100933  0  1.047448  0  0  0.104387  0  1.044961  0  0  0.096601  0.098387  0  1.049362  0
H  H37  1  0.06841919  0.76883249  0.17846997  1  0  0.09446  0  0.979983  0  0  0.100926  0  1.047473  0  0  0.104378  0  1.044989  0  0  0.096619  0.098379  0  1.049386  0
H  H38  1  0.06806121  0.07953957  0.84363396  1  0  0.095759  0  0.945187  0  0  0.111503  0  0.996347  0  0  0.114087  0  0.995558  0  0  0.102124  0.109717  0  0.996867  0
H  H39  1  0.93193629  0.92046358  0.15636361  1  0  0.095761  0  0.945064  0  0  0.111467  0  0.996272  0  0  0.11402  0  0.995525  0  0  0.102114  0.109679  0  0.996793  0
H  H40  1  0.32526244  0.14354613  0.98081038  1  0  0.109477  0  0.95855  0  0  0.120316  0  1.02015  0  0  0.12306  0  1.018709  0  0  0.106571  0.118332  0  1.021212  0
H  H41  1  0.67473513  0.85645423  0.01918770  1  0  0.109505  0  0.958499  0  0  0.120333  0  1.02011  0  0  0.123076  0  1.018669  0  0  0.106569  0.118348  0  1.021175  0
C  C42  1  0.54407595  0.16954547  0.50479344  1  0  -0.057767  0  3.809397  0  0  -0.031124  0  4.046897  0  0  -0.038888  0  4.070339  0  0  -0.020915  -0.026461  0  4.03131  0
C  C43  1  0.45592701  0.83045581  0.49520634  1  0  -0.057703  0  3.809437  0  0  -0.03107  0  4.04693  0  0  -0.038832  0  4.070369  0  0  -0.020917  -0.026409  0  4.031344  0
C  C44  1  0.39876339  0.13000769  0.48204963  1  0  -0.088655  0  3.716477  0  0  -0.132163  0  3.97397  0  0  -0.12973  0  3.992296  0  0  -0.084788  -0.133444  0  3.961716  0
C  C45  1  0.60123417  0.86999266  0.51795105  1  0  -0.088686  0  3.716505  0  0  -0.132214  0  3.973986  0  0  -0.129781  0  3.992313  0  0  -0.084778  -0.133497  0  3.961733  0
C  C46  1  0.35289403  0.08784711  0.57411624  1  0  -0.072732  0  3.811882  0  0  -0.047441  0  4.050954  0  0  -0.056358  0  4.074678  0  0  -0.022912  -0.041584  0  4.03526  0
C  C47  1  0.64710651  0.91215603  0.42588395  1  0  -0.072813  0  3.811702  0  0  -0.047411  0  4.050738  0  0  -0.056335  0  4.074459  0  0  -0.022897  -0.041554  0  4.035045  0
C  C48  1  0.44978781  0.08358481  0.68995302  1  0  -0.18049  0  3.66378  0  0  -0.218254  0  3.920531  0  0  -0.219354  0  3.937901  0  0  -0.092748  -0.21728  0  3.909025  0
C  C49  1  0.55020884  0.91641276  0.31004355  1  0  -0.180422  0  3.663658  0  0  -0.218203  0  3.920359  0  0  -0.219304  0  3.937729  0  0  -0.092749  -0.217229  0  3.908849  0
C  C50  1  0.59474652  0.11963067  0.70971713  1  0  0.265431  0  3.808752  0  0  0.258747  0  4.075738  0  0  0.267731  0  4.091305  0  0  0.084451  0.252072  0  4.065409  0
C  C51  1  0.40525105  0.88036968  0.29028182  1  0  0.265393  0  3.808759  0  0  0.258722  0  4.075747  0  0  0.267709  0  4.09131  0  0  0.084462  0.252048  0  4.065414  0
C  C52  1  0.64093467  0.16435770  0.61823193  1  0  -0.150299  0  3.687913  0  0  -0.190428  0  3.947272  0  0  -0.19053  0  3.963244  0  0  -0.08475  -0.189246  0  3.935875  0
C  C53  1  0.35906501  0.83563986  0.38176812  1  0  -0.15025  0  3.68783  0  0  -0.190363  0  3.947159  0  0  -0.190465  0  3.963128  0  0  -0.084729  -0.189179  0  3.935757  0
C  C54  1  0.59513145  0.21122116  0.40560261  1  0  0.630918  0  3.92798  0  0  0.580956  0  4.21896  0  0  0.614153  0  4.21412  0  0  0.197133  0.558502  0  4.221428  0
C  C55  1  0.40487191  0.78877826  0.59439618  1  0  0.631025  0  3.927956  0  0  0.581066  0  4.218931  0  0  0.614261  0  4.214093  0  0  0.197184  0.558613  0  4.2214  0
C  C56  1  0.19753004  0.04464630  0.54296673  1  0  0.667785  0  3.790624  0  0  0.617459  0  4.08466  0  0  0.65185  0  4.074787  0  0  0.240054  0.59342  0  4.091594  0
C  C57  1  0.80246633  0.95535034  0.45702444  1  0  0.668041  0  3.790208  0  0  0.617538  0  4.08446  0  0  0.651947  0  4.074566  0  0  0.240077  0.593494  0  4.091402  0
C  C58  1  0.66888011  0.05821993  0.90650920  1  0  -0.070675  0  3.637157  0  0  -0.127335  0  3.898163  0  0  -0.124294  0  3.898942  0  0  -0.065248  -0.12966  0  3.897807  0
C  C59  1  0.33112223  0.94177949  0.09349016  1  0  -0.070548  0  3.637073  0  0  -0.127177  0  3.898028  0  0  -0.124142  0  3.89882  0  0  -0.065223  -0.129485  0  3.897654  0
C  C60  1  0.65023501  0.14969883  0.00435996  1  0  0.652217  0  3.909296  0  0  0.602602  0  4.211546  0  0  0.635275  0  4.206029  0  0  0.191691  0.580429  0  4.214491  0
C  C61  1  0.34976530  0.85030060  0.99563966  1  0  0.652234  0  3.909165  0  0  0.602631  0  4.211406  0  0  0.635303  0  4.205894  0  0  0.191687  0.580458  0  4.214349  0
C  C62  1  0.99038716  0.38340707  0.28715736  1  0  0.138591  0  3.841953  0  0  0.136616  0  4.088911  0  0  0.140152  0  4.112705  0  0  0.07837  0.134282  0  4.072758  0
C  C63  1  0.00961314  0.61659236  0.71284312  1  0  0.138594  0  3.842043  0  0  0.136603  0  4.088986  0  0  0.140141  0  4.112788  0  0  0.078379  0.134271  0  4.072834  0
C  C64  1  0.99852031  0.26649977  0.23871698  1  0  -0.146241  0  3.746433  0  0  -0.164505  0  3.993113  0  0  -0.166847  0  4.013343  0  0  -0.097283  -0.162911  0  3.979402  0
C  C65  1  0.00147860  0.73350151  0.76128161  1  0  -0.146285  0  3.746442  0  0  -0.164563  0  3.993125  0  0  -0.166915  0  4.013349  0  0  -0.097287  -0.16295  0  3.979429  0
C  C66  1  0.13353442  0.25438779  0.25721982  1  0  -0.070216  0  3.790169  0  0  -0.08907  0  4.051387  0  0  -0.09184  0  4.07478  0  0  -0.097844  -0.087101  0  4.035505  0
C  C67  1  0.86646387  0.74561164  0.74277661  1  0  -0.070316  0  3.790124  0  0  -0.0892  0  4.05137  0  0  -0.091973  0  4.074764  0  0  -0.097896  -0.087233  0  4.035492  0
C  C68  1  0.25745154  0.35442735  0.32316197  1  0  -0.072811  0  3.776336  0  0  -0.091732  0  4.038123  0  0  -0.093782  0  4.060802  0  0  -0.101971  -0.090238  0  4.022659  0
C  C69  1  0.74254744  0.64557115  0.67683627  1  0  -0.0728  0  3.776374  0  0  -0.091729  0  4.038174  0  0  -0.093777  0  4.060851  0  0  -0.101987  -0.090234  0  4.022711  0
C  C70  1  0.25079838  0.47043423  0.37412091  1  0  -0.158516  0  3.768187  0  0  -0.177344  0  4.023839  0  0  -0.179971  0  4.043567  0  0  -0.102869  -0.175663  0  4.010549  0
C  C71  1  0.74920129  0.52956333  0.62588174  1  0  -0.158527  0  3.76843  0  0  -0.177372  0  4.024033  0  0  -0.179993  0  4.043763  0  0  -0.102831  -0.175689  0  4.010745  0
C  C72  1  0.11535412  0.48295507  0.35493390  1  0  0.148787  0  3.805367  0  0  0.13994  0  4.054748  0  0  0.143647  0  4.077544  0  0  0.086834  0.137465  0  4.039369  0
C  C73  1  0.88464616  0.51704435  0.64506918  1  0  0.148835  0  3.805547  0  0  0.140046  0  4.054842  0  0  0.143738  0  4.077661  0  0  0.086863  0.13757  0  4.039466  0
C  C74  1  0.92555846  0.54369807  0.34743650  1  0  0.378671  0  3.707558  0  0  0.343938  0  3.988005  0  0  0.362616  0  4.000267  0  0  0.229152  0.331476  0  3.97945  0
C  C75  1  0.07444285  0.45630135  0.65256601  1  0  0.378636  0  3.707555  0  0  0.34393  0  3.987924  0  0  0.362601  0  4.000187  0  0  0.229154  0.331479  0  3.979379  0
C  C76  1  0.83781938  0.62761909  0.36456309  1  0  -0.002386  0  3.640409  0  0  -0.055251  0  3.891621  0  0  -0.051015  0  3.894847  0  0  -0.04765  -0.058379  0  3.889732  0
C  C77  1  0.16218029  0.37237847  0.63543956  1  0  -0.002394  0  3.640293  0  0  -0.055156  0  3.891369  0  0  -0.050896  0  3.89457  0  0  -0.047659  -0.058326  0  3.889539  0
C  C78  1  0.59497774  0.61359785  0.24777109  1  0  -0.005234  0  3.646115  0  0  -0.058617  0  3.896661  0  0  -0.053948  0  3.899445  0  0  -0.050606  -0.061866  0  3.894818  0
C  C79  1  0.40502386  0.38640250  0.75223423  1  0  -0.005161  0  3.646065  0  0  -0.058617  0  3.896791  0  0  -0.053956  0  3.89959  0  0  -0.050575  -0.061871  0  3.894942  0
C  C80  1  0.46843355  0.51377980  0.15551309  1  0  0.388186  0  3.69681  0  0  0.355917  0  3.972228  0  0  0.374628  0  3.983592  0  0  0.234641  0.343637  0  3.964005  0
C  C81  1  0.53156634  0.48622148  0.84449098  1  0  0.388098  0  3.696874  0  0  0.355783  0  3.972416  0  0  0.37452  0  3.983755  0  0  0.234566  0.343508  0  3.964188  0
C  C82  1  0.24906311  0.42240297  0.02005709  1  0  0.162182  0  3.790389  0  0  0.15353  0  4.038543  0  0  0.157444  0  4.061472  0  0  0.094068  0.150819  0  4.023181  0
C  C83  1  0.75093712  0.57759925  0.97994288  1  0  0.16219  0  3.790348  0  0  0.153557  0  4.038475  0  0  0.157471  0  4.061407  0  0  0.094039  0.150846  0  4.023111  0
C  C84  1  0.10656219  0.38845451  0.94110158  1  0  -0.153539  0  3.755781  0  0  -0.171374  0  4.008335  0  0  -0.174393  0  4.028544  0  0  -0.097252  -0.169286  0  3.994506  0
C  C85  1  0.89343701  0.61154771  0.05889896  1  0  -0.153627  0  3.755791  0  0  -0.171471  0  4.00837  0  0  -0.174493  0  4.028582  0  0  -0.097274  -0.169382  0  3.994536  0
C  C86  1  0.04378068  0.26320141  0.88045015  1  0  -0.077922  0  3.792843  0  0  -0.09647  0  4.055878  0  0  -0.098465  0  4.077958  0  0  -0.102213  -0.094947  0  4.040801  0
C  C87  1  0.95621783  0.73680174  0.11954857  1  0  -0.077916  0  3.792794  0  0  -0.096484  0  4.055836  0  0  -0.098474  0  4.077904  0  0  -0.102268  -0.09496  0  4.040751  0
C  C88  1  0.12137657  0.17588867  0.89496530  1  0  -0.080866  0  3.793961  0  0  -0.100801  0  4.054363  0  0  -0.103283  0  4.076664  0  0  -0.101384  -0.099007  0  4.038882  0
C  C89  1  0.87862062  0.82411355  0.10503119  1  0  -0.080768  0  3.793764  0  0  -0.100664  0  4.054154  0  0  -0.103124  0  4.076451  0  0  -0.10132  -0.098869  0  4.038667  0
C  C90  1  0.26435622  0.21031830  0.97206066  1  0  -0.148639  0  3.753481  0  0  -0.167772  0  4.007628  0  0  -0.17012  0  4.027552  0  0  -0.094924  -0.166005  0  3.994022  0
C  C91  1  0.73564175  0.78968019  0.02793729  1  0  -0.148672  0  3.753461  0  0  -0.16779  0  4.00758  0  0  -0.170135  0  4.027493  0  0  -0.094911  -0.166023  0  3.99397  0
C  C92  1  0.32732832  0.33479559  0.03671406  1  0  0.145579  0  3.833507  0  0  0.14329  0  4.08014  0  0  0.146418  0  4.104769  0  0  0.084738  0.141024  0  4.063685  0
C  C93  1  0.67267030  0.66520477  0.96328086  1  0  0.145596  0  3.833431  0  0  0.143292  0  4.080072  0  0  0.146419  0  4.104707  0  0  0.084731  0.141025  0  4.063615  0
N  N94  1  0.87363693  0.42547616  0.28362260  1  0  -0.489976  0  3.190523  0  0  -0.423289  0  3.474196  0  0  -0.44709  0  3.48757  0  0  -0.359335  -0.406944  0  3.464608  0
N  N95  1  0.12636438  0.57452327  0.71637905  1  0  -0.489957  0  3.190537  0  0  -0.423297  0  3.474227  0  0  -0.4471  0  3.48761  0  0  -0.359338  -0.406947  0  3.46463  0
N  N96  1  0.06965034  0.58224661  0.39197636  1  0  -0.391154  0  3.333975  0  0  -0.334296  0  3.568354  0  0  -0.353514  0  3.58006  0  0  -0.376756  -0.321359  0  3.560438  0
N  N97  1  0.93035094  0.41775281  0.60802961  1  0  -0.391113  0  3.33402  0  0  -0.334298  0  3.568359  0  0  -0.353511  0  3.580073  0  0  -0.376758  -0.321362  0  3.560441  0
N  N98  1  0.46441644  0.39582584  0.12184040  1  0  -0.479747  0  3.161635  0  0  -0.415554  0  3.440586  0  0  -0.438822  0  3.454171  0  0  -0.355317  -0.399799  0  3.430916  0
N  N99  1  0.53558145  0.60417545  0.87815703  1  0  -0.479706  0  3.161682  0  0  -0.415461  0  3.440611  0  0  -0.438731  0  3.454177  0  0  -0.355268  -0.399712  0  3.430948  0
N  N100  1  0.34196767  0.53441446  0.09766449  1  0  -0.391285  0  3.328076  0  0  -0.33667  0  3.561505  0  0  -0.355154  0  3.571696  0  0  -0.377421  -0.324137  0  3.554466  0
N  N101  1  0.65803365  0.46558496  0.90233716  1  0  -0.3913  0  3.328022  0  0  -0.336668  0  3.561469  0  0  -0.355154  0  3.57165  0  0  -0.377419  -0.324144  0  3.554419  0
O  O102  1  0.72696041  0.23849721  0.42379342  1  0  -0.636209  0  1.969314  0  0  -0.582128  0  2.197975  0  0  -0.607254  0  2.188875  0  0  -0.32811  -0.564311  0  2.203428  0
O  O103  1  0.27304434  0.76150035  0.57620899  1  0  -0.636298  0  1.969416  0  0  -0.582206  0  2.198085  0  0  -0.607332  0  2.188986  0  0  -0.328152  -0.56439  0  2.203541  0
O  O104  1  0.50196989  0.21807039  0.30480451  1  0  -0.621958  0  1.991701  0  0  -0.552105  0  2.234024  0  0  -0.581085  0  2.225233  0  0  -0.321655  -0.531895  0  2.239355  0
O  O105  1  0.49803550  0.78192903  0.69519573  1  0  -0.622014  0  1.991605  0  0  -0.552152  0  2.233898  0  0  -0.581134  0  2.225107  0  0  -0.321667  -0.531943  0  2.239233  0
O  O106  1  0.11338227  0.01894834  0.43140465  1  0  -0.572408  0  1.983242  0  0  -0.523293  0  2.196997  0  0  -0.545552  0  2.186287  0  0  -0.289831  -0.508115  0  2.203999  0
O  O107  1  0.88661614  0.98106969  0.56859776  1  0  -0.572568  0  1.982975  0  0  -0.523361  0  2.196824  0  0  -0.545623  0  2.186116  0  0  -0.289862  -0.508181  0  2.203827  0
O  O108  1  0.15670693  0.03817614  0.63942293  1  0  -0.534682  0  2.097922  0  0  -0.484656  0  2.313901  0  0  -0.506706  0  2.296651  0  0  -0.320672  -0.469613  0  2.323895  0
O  O109  1  0.84329013  0.96181957  0.36057092  1  0  -0.534781  0  2.09783  0  0  -0.484745  0  2.313804  0  0  -0.506804  0  2.296531  0  0  -0.320695  -0.469702  0  2.323805  0
O  O110  1  0.70166866  0.11110621  0.81089853  1  0  -0.255374  0  2.367635  0  0  -0.186321  0  2.598262  0  0  -0.203254  0  2.60014  0  0  -0.17747  -0.174253  0  2.596627  0
O  O111  1  0.29832899  0.88889135  0.18909920  1  0  -0.255439  0  2.367602  0  0  -0.186445  0  2.598266  0  0  -0.203381  0  2.600149  0  0  -0.177525  -0.17438  0  2.596626  0
O  O112  1  0.64691445  0.25762739  0.98821687  1  0  -0.651239  0  1.999472  0  0  -0.593568  0  2.238632  0  0  -0.621026  0  2.229838  0  0  -0.329041  -0.574177  0  2.243741  0
O  O113  1  0.35308485  0.74237204  0.01178159  1  0  -0.651238  0  1.999421  0  0  -0.593566  0  2.238575  0  0  -0.621026  0  2.229782  0  0  -0.329027  -0.574174  0  2.243688  0
O  O114  1  0.64214986  0.11330302  0.10187085  1  0  -0.635128  0  1.935082  0  0  -0.573033  0  2.176298  0  0  -0.601833  0  2.166391  0  0  -0.329661  -0.552891  0  2.182392  0
O  O115  1  0.35785045  0.88669640  0.89812791  1  0  -0.635112  0  1.934959  0  0  -0.573045  0  2.176199  0  0  -0.601846  0  2.166298  0  0  -0.329638  -0.552904  0  2.182291  0
O  O116  1  0.69271133  0.55507286  0.31560369  1  0  -0.281915  0  2.326193  0  0  -0.207268  0  2.569207  0  0  -0.223313  0  2.57072  0  0  -0.213657  -0.195871  0  2.567933  0
O  O117  1  0.30728732  0.44492470  0.68439866  1  0  -0.281959  0  2.326155  0  0  -0.207347  0  2.569201  0  0  -0.223415  0  2.570725  0  0  -0.213658  -0.195932  0  2.567938  0
