# generated using pymatgen
data_AlH2C10SCl3O5
_symmetry_space_group_name_H-M   'P 1'
_cell_length_a   6.59218425
_cell_length_b   11.20698166
_cell_length_c   12.71327940
_cell_angle_alpha   79.05279844
_cell_angle_beta   75.09711124
_cell_angle_gamma   71.78072381
_symmetry_Int_Tables_number   1
_chemical_formula_structural   AlH2C10SCl3O5
_chemical_formula_sum   'Al2 H4 C20 S2 Cl6 O10'
_cell_volume   855.98595005
_cell_formula_units_Z   2
loop_
 _symmetry_equiv_pos_site_id
 _symmetry_equiv_pos_as_xyz
  1  'x, y, z'
loop_
 _atom_site_type_symbol
 _atom_site_label
 _atom_site_symmetry_multiplicity
 _atom_site_fract_x
 _atom_site_fract_y
 _atom_site_fract_z
 _atom_site_occupancy
 _atom_site_pbe_bader_charge
 _atom_site_pbe_bader_spin_density
 _atom_site_pbe_cm5_charge
 _atom_site_pbe_ddec_charge
 _atom_site_pbe_ddec_spin_density
 _atom_site_pbe_ddec_sum_bond_order
 _atom_site_pbe_magmom
Al  Al0  1  0.49113934  0.49757256  0.49835976  1  2.50069  0  0.387527  1.641153  0  2.57029  0
Al  Al1  1  0.98952726  0.50174529  0.49746858  1  2.500758  0  0.391111  1.640588  0  2.558418  0
H  H2  1  0.28405780  0.34480510  0.56830260  1  0.648436  0  0.336736  0.418487  0  0.88716  0
H  H3  1  0.76232699  0.57827573  0.36506820  1  0.645557  0  0.338177  0.413144  0  0.891556  0
H  H4  1  0.23375385  0.24432034  0.36449958  1  0.135777  0  0.108799  0.132279  0  1.029566  0
H  H5  1  0.47218909  0.77589116  0.37857541  1  0.098323  0  0.112827  0.133338  0  1.033877  0
C  C6  1  0.85329571  0.27302654  0.49352765  1  1.596694  0  0.265343  0.65589  0  4.089538  0
C  C7  1  0.65574047  0.49357044  0.69172141  1  1.600025  0  0.259752  0.658899  0  4.132746  0
C  C8  1  0.13314115  0.72281831  0.50494855  1  1.616085  0  0.270986  0.657113  0  4.087233  0
C  C9  1  0.32340029  0.51153515  0.30001010  1  1.621334  0  0.255069  0.656891  0  4.132891  0
C  C10  1  0.42923346  0.44845660  0.88592225  1  0.145229  0  0.011325  0.104909  0  4.074529  0
C  C11  1  0.54566581  0.56112663  0.10559447  1  0.181887  0  0.008602  0.10643  0  4.068169  0
C  C12  1  0.58775709  0.49658789  0.81065118  1  -0.098592  0  -0.022373  -0.1843  0  3.919173  0
C  C13  1  0.38743643  0.51276062  0.18080770  1  -0.168347  0  -0.030471  -0.200454  0  3.954317  0
C  C14  1  0.56113220  0.53785361  0.99782219  1  -0.160245  0  -0.027638  -0.070489  0  4.087497  0
C  C15  1  0.41400433  0.47225029  0.99348226  1  -0.119175  0  -0.027265  -0.071937  0  4.095052  0
C  C16  1  0.92937174  0.13163587  0.49591922  1  0.054742  0  -0.010463  -0.127207  0  3.909105  0
C  C17  1  0.13877897  0.07160433  0.43367039  1  -0.025829  0  0.000636  0.078082  0  3.965462  0
C  C18  1  0.79637112  0.05905893  0.56069240  1  0.105571  0  0.016466  0.072636  0  4.017161  0
C  C19  1  0.28236992  0.14184341  0.36869025  1  0.062405  0  -0.095259  -0.187478  0  3.936553  0
C  C20  1  0.48734100  0.08226826  0.31247453  1  0.033922  0  0.008661  0.093744  0  4.061821  0
C  C21  1  0.06363567  0.86435273  0.50199672  1  0.019621  0  -0.006609  -0.121148  0  3.90179  0
C  C22  1  0.86265182  0.92495685  0.56309403  1  0.152435  0  0.016108  0.068335  0  4.036299  0
C  C23  1  0.20705518  0.93634579  0.43722319  1  0.01719  0  0.001769  0.077013  0  3.959352  0
C  C24  1  0.41614902  0.87810327  0.37589347  1  0.052011  0  -0.091436  -0.180037  0  3.935202  0
C  C25  1  0.55517660  0.94816815  0.31613848  1  0.103148  0  0.009911  0.094082  0  4.054884  0
S  S26  1  0.71910804  0.56947786  0.87130443  1  0.325983  0  0.104334  0.168272  0  2.866193  0
S  S27  1  0.25557716  0.44080962  0.11972219  1  0.32205  0  0.098648  0.161762  0  2.888224  0
Cl  Cl28  1  0.27265168  0.36703272  0.85884402  1  -0.148906  0  0.024926  -0.014101  0  1.587588  0
Cl  Cl29  1  0.69824118  0.64481281  0.13367836  1  -0.163803  0  0.020096  -0.034322  0  1.646994  0
Cl  Cl30  1  0.69470443  0.83964366  0.64739563  1  -0.16166  0  0.019157  -0.030587  0  1.643614  0
Cl  Cl31  1  0.55417276  0.12769354  0.64604259  1  -0.17497  0  0.018738  -0.043524  0  1.62638  0
Cl  Cl32  1  0.66073555  0.17061109  0.23916976  1  -0.182451  0  -0.001247  -0.058994  0  1.564431  0
Cl  Cl33  1  0.81203977  0.87223813  0.24750548  1  -0.200814  0  -0.001005  -0.053131  0  1.55877  0
O  O34  1  0.66872419  0.32862299  0.46899681  1  -1.2521  0  -0.237391  -0.596348  0  2.371689  0
O  O35  1  0.83304799  0.52231241  0.64459006  1  -1.250817  0  -0.234209  -0.578114  0  2.339574  0
O  O36  1  0.00825414  0.67233260  0.47891879  1  -1.246552  0  -0.229456  -0.587202  0  2.382333  0
O  O37  1  0.44853807  0.53707185  0.34868633  1  -1.261502  0  -0.239166  -0.597491  0  2.37673  0
O  O38  1  0.31614563  0.66429586  0.53020855  1  -1.249697  0  -0.226363  -0.560976  0  2.322763  0
O  O39  1  0.14420073  0.48357483  0.34629770  1  -1.2616  0  -0.242888  -0.595296  0  2.333374  0
O  O40  1  0.97872201  0.32586689  0.51690062  1  -1.256266  0  -0.231404  -0.586503  0  2.342221  0
O  O41  1  0.53486462  0.46276521  0.64430916  1  -1.255752  0  -0.232951  -0.588418  0  2.393366  0
O  O42  1  0.25057382  0.43505513  0.54421578  1  -1.451575  0  -0.450386  -0.986805  0  2.217748  0
O  O43  1  0.73424833  0.55952916  0.44445112  1  -1.44922  0  -0.447726  -0.978182  0  2.200292  0
