# generated using pymatgen
data_AlH15C24(NO2)3
_symmetry_space_group_name_H-M   'P 1'
_cell_length_a   3.99904439
_cell_length_b   28.91718708
_cell_length_c   28.91712007
_cell_angle_alpha   119.99897336
_cell_angle_beta   90.00046531
_cell_angle_gamma   89.99882772
_symmetry_Int_Tables_number   1
_chemical_formula_structural   AlH15C24(NO2)3
_chemical_formula_sum   'Al2 H30 C48 N6 O12'
_cell_volume   2896.02583637
_cell_formula_units_Z   2
loop_
 _symmetry_equiv_pos_site_id
 _symmetry_equiv_pos_as_xyz
  1  'x, y, z'
loop_
 _atom_site_type_symbol
 _atom_site_label
 _atom_site_symmetry_multiplicity
 _atom_site_fract_x
 _atom_site_fract_y
 _atom_site_fract_z
 _atom_site_occupancy
 _atom_site_pbe_bader_charge
 _atom_site_pbe_bader_spin_density
 _atom_site_pbe_cm5_charge
 _atom_site_pbe_ddec_charge
 _atom_site_pbe_ddec_spin_density
 _atom_site_pbe_ddec_sum_bond_order
 _atom_site_pbe_magmom
Al  Al0  1  0.99355409  0.50000263  0.50000032  1  2.503676  0  0.427476  1.598456  0  2.572114  0
Al  Al1  1  0.99216317  0.16666390  0.83333783  1  2.50454  0  0.427796  1.596884  0  2.573958  0
H  H2  1  0.15559865  0.17183043  0.69448367  1  0.069944  0  0.10653  0.116108  0  0.995778  0
H  H3  1  0.12155785  0.22227608  0.64513476  1  0.070365  0  0.101664  0.104984  0  0.99261  0
H  H4  1  0.76504393  0.29648478  0.81455527  1  0.074244  0  0.109837  0.127925  0  0.989031  0
H  H5  1  0.76571213  0.37019137  0.51879830  1  0.073261  0  0.109969  0.128063  0  0.989206  0
H  H6  1  0.15657628  0.49490844  0.63889308  1  0.07057  0  0.106264  0.115743  0  0.995322  0
H  H7  1  0.12195569  0.44442102  0.68819812  1  0.069766  0  0.101539  0.104685  0  0.992329  0
H  H8  1  0.15556607  0.02265105  0.82817972  1  0.114616  0  0.106542  0.116119  0  0.995624  0
H  H9  1  0.12151871  0.92285829  0.77773097  1  0.068221  0  0.101692  0.104994  0  0.992653  0
H  H10  1  0.76505567  0.01806299  0.70351501  1  0.088316  0  0.10988  0.127855  0  0.98912  0
H  H11  1  0.76572790  0.64860384  0.62980846  1  0.086945  0  0.109955  0.128067  0  0.989035  0
H  H12  1  0.15660137  0.64399164  0.50509127  1  0.062227  0  0.10627  0.115779  0  0.995379  0
H  H13  1  0.12200494  0.74378262  0.55557964  1  0.070549  0  0.101546  0.104698  0  0.992341  0
H  H14  1  0.15555019  0.30550685  0.97734145  1  0.070265  0  0.106604  0.116172  0  0.995506  0
H  H15  1  0.12150072  0.35485751  0.07713733  1  0.05984  0  0.101762  0.104995  0  0.99264  0
H  H16  1  0.76507214  0.18544147  0.98194346  1  0.09781  0  0.109841  0.127859  0  0.988899  0
H  H17  1  0.76571143  0.48121118  0.35139419  1  0.09816  0  0.109949  0.128016  0  0.989201  0
H  H18  1  0.15655974  0.36111627  0.35601897  1  0.061488  0  0.106355  0.115857  0  0.995255  0
H  H19  1  0.12194196  0.31181395  0.25622865  1  0.061919  0  0.10146  0.104488  0  0.99246  0
H  H20  1  0.77722165  0.37357338  0.74632942  1  0.427079  0  0.294418  0.290784  0  0.971239  0
H  H21  1  0.93492631  0.36815790  0.79774995  1  0.444174  0  0.306365  0.305909  0  0.935899  0
H  H22  1  0.77703502  0.29306580  0.58697323  1  0.427257  0  0.294571  0.29077  0  0.971744  0
H  H23  1  0.93500829  0.29847627  0.53557167  1  0.444131  0  0.30644  0.30594  0  0.935957  0
H  H24  1  0.77717431  0.87274872  0.62642960  1  0.429059  0  0.294409  0.290743  0  0.97124  0
H  H25  1  0.93492055  0.92958252  0.63184261  1  0.446992  0  0.306313  0.305777  0  0.935656  0
H  H26  1  0.77707747  0.79390435  0.70693285  1  0.430141  0  0.294579  0.290859  0  0.971809  0
H  H27  1  0.93502165  0.73708802  0.70152255  1  0.446666  0  0.306473  0.306111  0  0.935878  0
H  H28  1  0.77712622  0.25366925  0.12725689  1  0.435177  0  0.294618  0.290939  0  0.971392  0
H  H29  1  0.93489588  0.20224853  0.07042836  1  0.426403  0  0.306358  0.306029  0  0.935734  0
H  H30  1  0.77698708  0.41303679  0.20609148  1  0.435495  0  0.294605  0.290827  0  0.971955  0
H  H31  1  0.93494535  0.46443907  0.26290398  1  0.425462  0  0.306452  0.305965  0  0.93603  0
C  C32  1  0.48840173  0.45376363  0.41818874  1  1.578359  0  0.274411  0.650186  0  4.05875  0
C  C33  1  0.48838490  0.46442968  0.54624124  1  1.579336  0  0.274317  0.650099  0  4.05954  0
C  C34  1  0.48837357  0.58181384  0.53557103  1  1.578789  0  0.274268  0.650232  0  4.059347  0
C  C35  1  0.48697097  0.20230078  0.78716070  1  1.578056  0  0.274702  0.650697  0  4.058688  0
C  C36  1  0.48698730  0.08484847  0.79769849  1  1.58427  0  0.274494  0.650177  0  4.05864  0
C  C37  1  0.48700166  0.21283551  0.91515017  1  1.578886  0  0.27475  0.650226  0  4.058926  0
C  C38  1  0.46241705  0.23177520  0.75735352  1  -0.003781  0  -0.010762  -0.016016  0  3.994665  0
C  C39  1  0.28099630  0.21008327  0.70940232  1  0.059282  0  -0.097313  -0.127779  0  4.022542  0
C  C40  1  0.26152377  0.23832676  0.68236216  1  -0.123765  0  -0.087142  -0.113454  0  4.008629  0
C  C41  1  0.41330201  0.28885385  0.70285859  1  0.145186  0  -0.01754  0.01705  0  4.100644  0
C  C42  1  0.59521538  0.31095301  0.75181001  1  0.380604  0  0.100047  0.254014  0  4.07893  0
C  C43  1  0.61912904  0.28132740  0.77794164  1  0.005118  0  -0.094007  -0.21388  0  3.943585  0
C  C44  1  0.39292167  0.31851254  0.67612674  1  -0.088236  0  -0.051154  -0.112046  0  4.141041  0
C  C45  1  0.39291143  0.34814873  0.65718981  1  -0.326936  0  -0.05092  -0.111434  0  4.13955  0
C  C46  1  0.41350588  0.37782640  0.63046380  1  0.143823  0  -0.017877  0.017416  0  4.100649  0
C  C47  1  0.59547444  0.35571480  0.58152279  1  0.352584  0  0.100172  0.253319  0  4.078214  0
C  C48  1  0.61973729  0.38535676  0.55540238  1  0.015451  0  -0.094377  -0.213919  0  3.943411  0
C  C49  1  0.46324445  0.43492664  0.57600936  1  0.040244  0  -0.011078  -0.01662  0  3.996662  0
C  C50  1  0.28173850  0.45662370  0.62395124  1  -0.001435  0  -0.096618  -0.126489  0  4.022445  0
C  C51  1  0.26201416  0.42836045  0.65096559  1  -0.118797  0  -0.086899  -0.113521  0  4.00932  0
C  C52  1  0.46242732  0.02556959  0.76822600  1  -0.018098  0  -0.010711  -0.015889  0  3.995138  0
C  C53  1  0.28099415  0.99931476  0.78992110  1  0.001054  0  -0.097347  -0.128011  0  4.022472  0
C  C54  1  0.26148762  0.94403297  0.76168086  1  -0.074333  0  -0.086925  -0.113081  0  4.008477  0
C  C55  1  0.41329700  0.91400366  0.71115683  1  0.073902  0  -0.01761  0.017114  0  4.100213  0
C  C56  1  0.59519783  0.94085157  0.68905091  1  0.374976  0  0.099991  0.253864  0  4.079427  0
C  C57  1  0.61912043  0.99660623  0.71867805  1  0.020689  0  -0.094112  -0.213798  0  3.944214  0
C  C58  1  0.39290530  0.85761118  0.68149802  1  -0.320465  0  -0.051036  -0.112078  0  4.14105  0
C  C59  1  0.39291290  0.80904145  0.65184899  1  -0.09694  0  -0.051093  -0.111618  0  4.140146  0
C  C60  1  0.41351849  0.75264241  0.62217729  1  0.075427  0  -0.017887  0.01735  0  4.100592  0
C  C61  1  0.59549959  0.72580504  0.64428584  1  0.372804  0  0.100197  0.253413  0  4.078324  0
C  C62  1  0.61972850  0.67004578  0.61464177  1  0.010331  0  -0.094424  -0.214001  0  3.943668  0
C  C63  1  0.46324669  0.64108792  0.56507538  1  0.033491  0  -0.011043  -0.016539  0  3.996435  0
C  C64  1  0.28175826  0.66733444  0.54337786  1  0.011129  0  -0.096466  -0.126523  0  4.022493  0
C  C65  1  0.26204792  0.72260989  0.57163767  1  -0.076174  0  -0.086991  -0.113414  0  4.009236  0
C  C66  1  0.46243046  0.24264729  0.97443027  1  0.045211  0  -0.010701  -0.015989  0  3.995091  0
C  C67  1  0.28097861  0.29058921  0.00068203  1  -0.093283  0  -0.097327  -0.127756  0  4.022673  0
C  C68  1  0.26151121  0.31763499  0.05596544  1  -0.009149  0  -0.087139  -0.113412  0  4.008966  0
C  C69  1  0.41326237  0.29713913  0.08599236  1  0.153362  0  -0.017521  0.017366  0  4.100061  0
C  C70  1  0.59518605  0.24818845  0.05915156  1  0.476828  0  0.099844  0.253597  0  4.079163  0
C  C71  1  0.61915445  0.22205986  0.00339772  1  -0.082216  0  -0.094055  -0.213731  0  3.943468  0
C  C72  1  0.39291731  0.32388159  0.14239521  1  -0.593298  0  -0.051285  -0.112361  0  4.140538  0
C  C73  1  0.39290244  0.34281089  0.19096535  1  0.026852  0  -0.05087  -0.111416  0  4.140305  0
C  C74  1  0.41351217  0.36953863  0.24736072  1  0.153383  0  -0.017836  0.017396  0  4.100702  0
C  C75  1  0.59547292  0.41848808  0.27419518  1  0.476408  0  0.100157  0.253458  0  4.077897  0
C  C76  1  0.61971354  0.44460546  0.32995943  1  -0.071798  0  -0.094336  -0.213996  0  3.943853  0
C  C77  1  0.46327855  0.42398990  0.35891149  1  -0.018175  0  -0.011045  -0.016326  0  3.996742  0
C  C78  1  0.28174034  0.37605534  0.33267224  1  -0.03216  0  -0.096791  -0.126772  0  4.023037  0
C  C79  1  0.26201088  0.34904055  0.27739940  1  -0.010518  0  -0.086755  -0.11318  0  4.009601  0
N  N80  1  0.73687124  0.36114380  0.77314971  1  -1.231624  0  -0.600008  -0.621329  0  3.311146  0
N  N81  1  0.73688120  0.30549141  0.56015845  1  -1.203139  0  -0.600191  -0.621113  0  3.31085  0
N  N82  1  0.73684721  0.91199930  0.63886174  1  -1.210828  0  -0.599956  -0.621122  0  3.311262  0
N  N83  1  0.73690033  0.75466127  0.69450650  1  -1.210139  0  -0.600191  -0.621391  0  3.311197  0
N  N84  1  0.73683732  0.22685179  0.08800944  1  -1.189885  0  -0.60009  -0.62143  0  3.311284  0
N  N85  1  0.73685676  0.43984919  0.24533377  1  -1.190287  0  -0.600225  -0.621249  0  3.311284  0
O  O86  1  0.73236123  0.56097618  0.54716688  1  -1.261498  0  -0.23469  -0.593301  0  2.375772  0
O  O87  1  0.73238081  0.48619894  0.43902709  1  -1.260867  0  -0.234673  -0.593185  0  2.375809  0
O  O88  1  0.73238303  0.45283742  0.51380861  1  -1.260435  0  -0.234747  -0.593302  0  2.375624  0
O  O89  1  0.26274300  0.55550413  0.50091688  1  -1.257466  0  -0.243069  -0.602401  0  2.356155  0
O  O90  1  0.26275625  0.49908653  0.55458415  1  -1.259976  0  -0.243121  -0.602294  0  2.356174  0
O  O91  1  0.26276174  0.44542235  0.44450296  1  -1.258369  0  -0.243228  -0.602554  0  2.355755  0
O  O92  1  0.73072660  0.18037019  0.89427247  1  -1.262382  0  -0.235238  -0.593234  0  2.375303  0
O  O93  1  0.73071687  0.21388991  0.81962600  1  -1.264137  0  -0.235253  -0.593705  0  2.37531  0
O  O94  1  0.73072366  0.10572856  0.78611257  1  -1.265129  0  -0.23515  -0.593416  0  2.375106  0
O  O95  1  0.26111628  0.22119369  0.88888420  1  -1.257782  0  -0.243102  -0.60182  0  2.356817  0
O  O96  1  0.26111751  0.11111679  0.83232223  1  -1.259661  0  -0.242912  -0.601631  0  2.356735  0
O  O97  1  0.26112176  0.16768209  0.77880465  1  -1.257428  0  -0.24304  -0.601854  0  2.357158  0
