# generated using pymatgen
data_ZnH28C30SNO7
_symmetry_space_group_name_H-M   'P 1'
_cell_length_a   12.90924782
_cell_length_b   12.90926343
_cell_length_c   21.06055287
_cell_angle_alpha   100.39197844
_cell_angle_beta   100.39189595
_cell_angle_gamma   104.77031403
_symmetry_Int_Tables_number   1
_chemical_formula_structural   ZnH28C30SNO7
_chemical_formula_sum   'Zn4 H112 C120 S4 N4 O28'
_cell_volume   3242.14774026
_cell_formula_units_Z   4
loop_
 _symmetry_equiv_pos_site_id
 _symmetry_equiv_pos_as_xyz
  1  'x, y, z'
loop_
 _atom_site_type_symbol
 _atom_site_label
 _atom_site_symmetry_multiplicity
 _atom_site_fract_x
 _atom_site_fract_y
 _atom_site_fract_z
 _atom_site_occupancy
 _atom_site_pbe_bader_charge
 _atom_site_pbe_bader_spin_density
 _atom_site_pbe_cm5_charge
 _atom_site_pbe_ddec_charge
 _atom_site_pbe_ddec_spin_density
 _atom_site_pbe_ddec_sum_bond_order
 _atom_site_pbe_magmom
Zn  Zn0  1  0.07761748  0.53855447  0.56499883  1  1.30025  0  0.676844  0.835938  0  2.388756  0
Zn  Zn1  1  0.46144415  0.92238341  0.93500119  1  1.300475  0  0.676857  0.835966  0  2.388721  0
Zn  Zn2  1  0.92238122  0.46144450  0.43500140  1  1.300475  0  0.676847  0.835976  0  2.388708  0
Zn  Zn3  1  0.53855373  0.07761768  0.06499824  1  1.300249  0  0.676849  0.835953  0  2.388716  0
H  H4  1  0.07333246  0.23520480  0.33695007  1  0.101243  0  0.107375  0.108165  0  1.005966  0
H  H5  1  0.76479427  0.92666576  0.16305037  1  0.101226  0  0.107374  0.108196  0  1.005983  0
H  H6  1  0.92666709  0.76479757  0.66305110  1  0.101174  0  0.107372  0.10818  0  1.005979  0
H  H7  1  0.23520278  0.07333272  0.83694820  1  0.101172  0  0.107356  0.108193  0  1.005926  0
H  H8  1  0.29726666  0.34167460  0.52951683  1  0.121538  0  0.106132  0.105041  0  1.027577  0
H  H9  1  0.65832576  0.70273262  0.97048299  1  0.121534  0  0.106147  0.105056  0  1.027554  0
H  H10  1  0.70273782  0.65832763  0.47048487  1  0.12159  0  0.106126  0.105024  0  1.027493  0
H  H11  1  0.34167127  0.29726192  0.02951467  1  0.121621  0  0.106125  0.105025  0  1.027397  0
H  H12  1  0.17716665  0.10442570  0.29927803  1  0.104676  0  0.108632  0.113989  0  0.99405  0
H  H13  1  0.89557446  0.82283255  0.20072158  1  0.104442  0  0.108642  0.114014  0  0.994035  0
H  H14  1  0.82283373  0.89557770  0.70072383  1  0.104614  0  0.108621  0.113962  0  0.993999  0
H  H15  1  0.10442259  0.17716671  0.79927566  1  0.104697  0  0.10863  0.113934  0  0.993993  0
H  H16  1  0.39985668  0.20994581  0.49331986  1  0.111936  0  0.108583  0.112049  0  1.004807  0
H  H17  1  0.79005392  0.60014360  0.00667975  1  0.111931  0  0.108572  0.112039  0  1.004842  0
H  H18  1  0.60014616  0.79005673  0.50668074  1  0.111623  0  0.108604  0.112087  0  1.004809  0
H  H19  1  0.20994230  0.39985307  0.99331900  1  0.111627  0  0.108609  0.112117  0  1.004808  0
H  H20  1  0.31827794  0.83735532  0.53903388  1  0.107037  0  0.109545  0.120858  0  1.008913  0
H  H21  1  0.16264275  0.68172117  0.96096591  1  0.107126  0  0.109555  0.120896  0  1.008906  0
H  H22  1  0.68172159  0.16264390  0.46096742  1  0.107081  0  0.10951  0.120849  0  1.008872  0
H  H23  1  0.83735842  0.31827774  0.03903364  1  0.107138  0  0.109547  0.120891  0  1.00892  0
H  H24  1  0.41505781  0.99083113  0.49463224  1  0.111331  0  0.105941  0.105512  0  1.039246  0
H  H25  1  0.00916824  0.58494309  0.00536779  1  0.111349  0  0.105923  0.105498  0  1.039283  0
H  H26  1  0.58494337  0.00916857  0.50536977  1  0.111637  0  0.105943  0.105535  0  1.03924  0
H  H27  1  0.99083210  0.41505557  0.99463069  1  0.111642  0  0.10595  0.105525  0  1.039274  0
H  H28  1  0.38780558  0.63061997  0.99322188  1  0.086569  0  0.108152  0.124616  0  1.027728  0
H  H29  1  0.36938085  0.61219419  0.50677815  1  0.086774  0  0.108139  0.124611  0  1.027766  0
H  H30  1  0.61219395  0.36938082  0.00677817  1  0.086771  0  0.108139  0.124612  0  1.027774  0
H  H31  1  0.63062033  0.38780629  0.49322205  1  0.086578  0  0.108136  0.124604  0  1.027728  0
H  H32  1  0.39858211  0.45076373  0.83243340  1  0.089833  0  0.103251  0.094043  0  1.045794  0
H  H33  1  0.54923721  0.60141784  0.66756656  1  0.089824  0  0.103264  0.094073  0  1.045766  0
H  H34  1  0.60141825  0.54923730  0.16756676  1  0.089823  0  0.103268  0.094063  0  1.045759  0
H  H35  1  0.45075984  0.39858065  0.33243296  1  0.089805  0  0.103284  0.094092  0  1.045777  0
H  H36  1  0.06278740  0.71854884  0.35791080  1  0.100499  0  0.112934  0.125997  0  0.98672  0
H  H37  1  0.28145370  0.93721053  0.14209262  1  0.100484  0  0.112903  0.125974  0  0.986671  0
H  H38  1  0.93721050  0.28145463  0.64209174  1  0.100475  0  0.112923  0.125989  0  0.986665  0
H  H39  1  0.71854665  0.06278893  0.85790832  1  0.100489  0  0.112913  0.125996  0  0.986646  0
H  H40  1  0.23112106  0.43666164  0.62730453  1  0.121072  0  0.119088  0.094813  0  1.007164  0
H  H41  1  0.56333759  0.76887791  0.87269569  1  0.121447  0  0.119105  0.094831  0  1.007108  0
H  H42  1  0.76887435  0.56333794  0.37269494  1  0.12146  0  0.119098  0.094841  0  1.007106  0
H  H43  1  0.43666277  0.23112312  0.12730495  1  0.121452  0  0.119112  0.094828  0  1.007109  0
H  H44  1  0.17116610  0.67559268  0.81826084  1  0.09843  0  0.11405  0.125028  0  0.983128  0
H  H45  1  0.32440581  0.82883484  0.68173871  1  0.098478  0  0.114052  0.125056  0  0.983181  0
H  H46  1  0.82883507  0.32440702  0.18173926  1  0.098428  0  0.114045  0.125029  0  0.983125  0
H  H47  1  0.67559289  0.17116334  0.31826096  1  0.098488  0  0.114051  0.125062  0  0.983122  0
H  H48  1  0.29689884  0.62312534  0.89653556  1  0.096596  0  0.104812  0.11542  0  1.013823  0
H  H49  1  0.37687588  0.70310188  0.60346418  1  0.096605  0  0.104817  0.115413  0  1.013805  0
H  H50  1  0.70310151  0.37687490  0.10346357  1  0.096571  0  0.104814  0.115413  0  1.0138  0
H  H51  1  0.62312365  0.29689812  0.39653578  1  0.096591  0  0.104822  0.115448  0  1.013799  0
H  H52  1  0.08230021  0.66563223  0.70036929  1  0.106875  0  0.119103  0.090162  0  0.999323  0
H  H53  1  0.33436780  0.91770047  0.79963139  1  0.106881  0  0.119086  0.090131  0  0.999351  0
H  H54  1  0.91769768  0.33436965  0.29963165  1  0.107258  0  0.119091  0.090099  0  0.99935  0
H  H55  1  0.66563256  0.08230055  0.20036877  1  0.107193  0  0.119114  0.090179  0  0.999356  0
H  H56  1  0.16098354  0.87099244  0.31204472  1  0.062652  0  0.107819  0.111063  0  1.009375  0
H  H57  1  0.12900807  0.83901113  0.18795577  1  0.062416  0  0.107824  0.111081  0  1.009328  0
H  H58  1  0.83901436  0.12901023  0.68795678  1  0.062384  0  0.107837  0.111083  0  1.009302  0
H  H59  1  0.87098898  0.16098736  0.81204375  1  0.06264  0  0.107833  0.11108  0  1.009381  0
H  H60  1  0.32510854  0.43514876  0.74014202  1  0.05074  0  0.107108  0.110925  0  1.025493  0
H  H61  1  0.56485014  0.67489117  0.75985773  1  0.05076  0  0.107112  0.110922  0  1.025497  0
H  H62  1  0.67488768  0.56484869  0.25985540  1  0.050725  0  0.107107  0.110882  0  1.025559  0
H  H63  1  0.43515186  0.32510955  0.24014306  1  0.05077  0  0.107082  0.110879  0  1.025529  0
H  H64  1  0.33736639  0.65722920  0.09299351  1  0.04463  0  0.096232  0.058716  0  1.003906  0
H  H65  1  0.34277222  0.66263445  0.40700661  1  0.044597  0  0.096232  0.058713  0  1.003933  0
H  H66  1  0.66263397  0.34277262  0.90700722  1  0.044597  0  0.096228  0.058706  0  1.003956  0
H  H67  1  0.65722813  0.33736579  0.59299300  1  0.044608  0  0.096228  0.058707  0  1.003949  0
H  H68  1  0.45381064  0.76584991  0.09060585  1  0.036714  0  0.099018  0.070286  0  0.997199  0
H  H69  1  0.23415024  0.54618921  0.40939449  1  0.036719  0  0.099007  0.070279  0  0.997144  0
H  H70  1  0.54618972  0.23415112  0.90939479  1  0.036715  0  0.099017  0.070299  0  0.99721  0
H  H71  1  0.76584928  0.45381000  0.59060491  1  0.036709  0  0.098994  0.070262  0  0.997182  0
H  H72  1  0.37910811  0.80901887  0.19113887  1  0.050777  0  0.094702  0.098782  0  0.994243  0
H  H73  1  0.19098254  0.62089365  0.30886235  1  0.050736  0  0.09469  0.098798  0  0.994229  0
H  H74  1  0.62089390  0.19098343  0.80886304  1  0.05079  0  0.094711  0.098801  0  0.994272  0
H  H75  1  0.80901781  0.37910580  0.69113811  1  0.050821  0  0.094696  0.098791  0  0.994252  0
H  H76  1  0.40415414  0.69191854  0.21532329  1  0.042109  0  0.089184  0.079853  0  1.013715  0
H  H77  1  0.30808337  0.59584756  0.28467697  1  0.042298  0  0.089198  0.07989  0  1.013745  0
H  H78  1  0.59584704  0.30808195  0.78467739  1  0.042473  0  0.089193  0.079878  0  1.013762  0
H  H79  1  0.69191781  0.40415292  0.71532323  1  0.042338  0  0.089196  0.079873  0  1.013753  0
H  H80  1  0.65033865  0.93579352  0.31952319  1  0.02375  0  0.081326  0.071219  0  0.983813  0
H  H81  1  0.06420686  0.34966398  0.18047699  1  0.023773  0  0.081311  0.07123  0  0.983834  0
H  H82  1  0.34966417  0.06420508  0.68047745  1  0.02377  0  0.081306  0.071231  0  0.98385  0
H  H83  1  0.93579513  0.65033595  0.81952228  1  0.023771  0  0.081303  0.071207  0  0.98386  0
H  H84  1  0.51624424  0.94804747  0.29703441  1  0.03032  0  0.082333  0.078993  0  1.023876  0
H  H85  1  0.05195395  0.48375892  0.20296554  1  0.030325  0  0.082323  0.079  0  1.023917  0
H  H86  1  0.48376023  0.05195318  0.70296616  1  0.030508  0  0.082311  0.078993  0  1.023906  0
H  H87  1  0.94804639  0.51623974  0.79703294  1  0.030473  0  0.082312  0.078978  0  1.023923  0
H  H88  1  0.58116312  0.88754785  0.19787302  1  0.033098  0  0.083747  0.073726  0  1.013603  0
H  H89  1  0.11245385  0.41883884  0.30212583  1  0.033162  0  0.08374  0.073756  0  1.013523  0
H  H90  1  0.41883888  0.11245208  0.80212626  1  0.033118  0  0.08374  0.073757  0  1.013605  0
H  H91  1  0.88754650  0.58116061  0.69787322  1  0.033124  0  0.083748  0.073756  0  1.013626  0
H  H92  1  0.60715883  0.77388429  0.22555333  1  0.009255  0  0.082534  0.071631  0  1.007826  0
H  H93  1  0.22611669  0.39284333  0.27444491  1  0.009076  0  0.082532  0.071656  0  1.007843  0
H  H94  1  0.39284234  0.22611461  0.77444621  1  0.009272  0  0.082525  0.071662  0  1.007859  0
H  H95  1  0.77388448  0.60715714  0.72555386  1  0.009083  0  0.082534  0.071668  0  1.007843  0
H  H96  1  0.43436559  0.77700213  0.32804503  1  0.039329  0  0.082522  0.068796  0  1.007719  0
H  H97  1  0.22299873  0.56563524  0.17195266  1  0.039478  0  0.082537  0.068781  0  1.00773  0
H  H98  1  0.56563558  0.22299835  0.67195421  1  0.039313  0  0.082546  0.068829  0  1.007692  0
H  H99  1  0.77700245  0.43436524  0.82804659  1  0.039498  0  0.082546  0.068807  0  1.007718  0
H  H100  1  0.54017250  0.86752768  0.39395508  1  -0.012803  0  0.080846  0.069238  0  0.999276  0
H  H101  1  0.13247083  0.45982697  0.10604315  1  -0.012867  0  0.080844  0.069206  0  0.999311  0
H  H102  1  0.45982949  0.13246988  0.60604346  1  -0.012872  0  0.08085  0.069225  0  0.999318  0
H  H103  1  0.86753033  0.54017115  0.89395631  1  -0.012862  0  0.08084  0.069216  0  0.999296  0
H  H104  1  0.55702994  0.66261663  0.29996105  1  0.013627  0  0.081278  0.105584  0  1.02442  0
H  H105  1  0.33738297  0.44296982  0.20003817  1  0.013751  0  0.081264  0.10556  0  1.024383  0
H  H106  1  0.44297041  0.33738203  0.70003838  1  0.013534  0  0.081262  0.105561  0  1.024447  0
H  H107  1  0.66261821  0.55702987  0.79996146  1  0.013451  0  0.081299  0.10562  0  1.024358  0
H  H108  1  0.55564240  0.67828705  0.38484718  1  0.020378  0  0.081005  0.109057  0  1.036056  0
H  H109  1  0.32171212  0.44435709  0.11515149  1  0.020352  0  0.080991  0.108993  0  1.036119  0
H  H110  1  0.44435794  0.32171082  0.61515216  1  0.020378  0  0.08101  0.109019  0  1.036098  0
H  H111  1  0.67828906  0.55564260  0.88484814  1  0.020379  0  0.081011  0.109045  0  1.036089  0
H  H112  1  0.67058039  0.75795357  0.36134263  1  0.011451  0  0.08298  0.109747  0  1.000427  0
H  H113  1  0.24204571  0.32941917  0.13865699  1  0.011406  0  0.082969  0.109746  0  1.000442  0
H  H114  1  0.32942078  0.24204455  0.63865683  1  0.011431  0  0.082986  0.109747  0  1.000441  0
H  H115  1  0.75795546  0.67057973  0.86134208  1  0.011412  0  0.082979  0.109765  0  1.000437  0
C  C116  1  0.11655225  0.37356740  0.45781060  1  1.583  0  0.215052  0.581694  0  4.184398  0
C  C117  1  0.62643180  0.88344664  0.04218951  1  1.583005  0  0.215037  0.581589  0  4.184515  0
C  C118  1  0.88344811  0.62643284  0.54219091  1  1.582887  0  0.214944  0.581531  0  4.184465  0
C  C119  1  0.37356690  0.11655153  0.95780874  1  1.583311  0  0.214966  0.581645  0  4.184374  0
C  C120  1  0.17872745  0.29515890  0.43551546  1  0.010373  0  -0.006987  -0.01592  0  3.918111  0
C  C121  1  0.70484130  0.82127163  0.06448518  1  0.010384  0  -0.00702  -0.0159  0  3.918131  0
C  C122  1  0.82127456  0.70484262  0.56448542  1  0.010007  0  -0.006984  -0.015811  0  3.918143  0
C  C123  1  0.29515986  0.17872569  0.93551324  1  0.01022  0  -0.007047  -0.01606  0  3.918281  0
C  C124  1  0.14495237  0.22890539  0.37056702  1  -0.086133  0  -0.076618  -0.076945  0  3.951369  0
C  C125  1  0.77109393  0.85504617  0.12943393  1  -0.08633  0  -0.076683  -0.07713  0  3.951603  0
C  C126  1  0.85504964  0.77109691  0.62943347  1  -0.08608  0  -0.07666  -0.077102  0  3.951388  0
C  C127  1  0.22890477  0.14495280  0.87056536  1  -0.086288  0  -0.076595  -0.077001  0  3.951399  0
C  C128  1  0.27075387  0.28844213  0.47960096  1  -0.022046  0  -0.07489  -0.078748  0  3.94686  0
C  C129  1  0.71155643  0.72924527  0.02039946  1  -0.022034  0  -0.074866  -0.078699  0  3.946797  0
C  C130  1  0.72924980  0.71156144  0.52040080  1  -0.021744  0  -0.07489  -0.078747  0  3.946751  0
C  C131  1  0.28843979  0.27075218  0.97959796  1  -0.021703  0  -0.074887  -0.078655  0  3.946615  0
C  C132  1  0.20189345  0.15606929  0.34967652  1  0.01994  0  -0.082406  -0.094984  0  3.987695  0
C  C133  1  0.84392863  0.79810509  0.15032373  1  0.020336  0  -0.082339  -0.094901  0  3.987807  0
C  C134  1  0.79810608  0.84393150  0.65032448  1  0.020114  0  -0.08235  -0.094885  0  3.98764  0
C  C135  1  0.15606842  0.20189340  0.84967485  1  0.020017  0  -0.082274  -0.094753  0  3.987598  0
C  C136  1  0.32796412  0.21543914  0.45951655  1  -0.027211  0  -0.079268  -0.087925  0  3.978273  0
C  C137  1  0.78456129  0.67203575  0.04048314  1  -0.027209  0  -0.079281  -0.087961  0  3.978313  0
C  C138  1  0.67203873  0.78456498  0.54048518  1  -0.026985  0  -0.079293  -0.087964  0  3.97827  0
C  C139  1  0.21543492  0.32796170  0.95951428  1  -0.026987  0  -0.079357  -0.088163  0  3.978253  0
C  C140  1  0.12680417  0.67464315  0.47652591  1  1.592676  0  0.210963  0.577402  0  4.20032  0
C  C141  1  0.32535638  0.87319613  0.02347548  1  1.592664  0  0.210955  0.577396  0  4.200478  0
C  C142  1  0.87319783  0.32535678  0.52347479  1  1.592694  0  0.21094  0.577374  0  4.200268  0
C  C143  1  0.67464150  0.12680260  0.97652511  1  1.592681  0  0.210936  0.577341  0  4.200314  0
C  C144  1  0.25839605  0.55780134  0.79031818  1  0.003749  0  0.01274  0.159797  0  4.022471  0
C  C145  1  0.44219685  0.74160311  0.70968247  1  0.003813  0  0.012696  0.159657  0  4.022532  0
C  C146  1  0.74160265  0.44219762  0.20968158  1  0.003736  0  0.012727  0.159771  0  4.022467  0
C  C147  1  0.55780516  0.25839919  0.29031754  1  0.003806  0  0.012726  0.159743  0  4.022427  0
C  C148  1  0.28356113  0.84567857  0.48977934  1  0.008442  0  -0.076585  -0.080776  0  3.931921  0
C  C149  1  0.15432278  0.71643810  0.01022214  1  0.008381  0  -0.076552  -0.080713  0  3.931981  0
C  C150  1  0.71643759  0.15432277  0.51022258  1  0.008482  0  -0.076533  -0.08068  0  3.931954  0
C  C151  1  0.84567757  0.28356135  0.98977785  1  0.008427  0  -0.076542  -0.080716  0  3.931988  0
C  C152  1  0.18443623  0.76947440  0.45112025  1  -0.038733  0  -0.008474  -0.024368  0  3.946139  0
C  C153  1  0.23052751  0.81556311  0.04888084  1  -0.038754  0  -0.008478  -0.024463  0  3.94615  0
C  C154  1  0.81556166  0.23052748  0.54888021  1  -0.038703  0  -0.00846  -0.024369  0  3.946086  0
C  C155  1  0.76947203  0.18443767  0.95111969  1  -0.038741  0  -0.008481  -0.024381  0  3.946105  0
C  C156  1  0.29299724  0.93906862  0.40101927  1  -0.218541  0  -0.019531  -0.079394  0  3.991441  0
C  C157  1  0.06093318  0.70700034  0.09898259  1  -0.218507  0  -0.019548  -0.079401  0  3.991626  0
C  C158  1  0.70700313  0.06093399  0.59898297  1  -0.218521  0  -0.019546  -0.079316  0  3.99143  0
C  C159  1  0.93906634  0.29299887  0.90101728  1  -0.218544  0  -0.019558  -0.079393  0  3.991525  0
C  C160  1  0.33807534  0.93126238  0.46486228  1  -0.05166  0  -0.082106  -0.092716  0  3.982763  0
C  C161  1  0.06873909  0.66192372  0.03513968  1  -0.051696  0  -0.082107  -0.092767  0  3.982806  0
C  C162  1  0.66192420  0.06873920  0.53513975  1  -0.051691  0  -0.082099  -0.092837  0  3.982887  0
C  C163  1  0.93126043  0.33807549  0.96486019  1  -0.051708  0  -0.082112  -0.092788  0  3.982866  0
C  C164  1  0.43605650  0.57305807  0.99662370  1  0.016711  0  -0.103272  -0.246259  0  3.980999  0
C  C165  1  0.42694303  0.56394372  0.50337683  1  0.016521  0  -0.103261  -0.246301  0  3.981108  0
C  C166  1  0.56394304  0.42694193  0.00337674  1  0.016521  0  -0.103273  -0.246325  0  3.981107  0
C  C167  1  0.57305732  0.43605573  0.49662364  1  0.016708  0  -0.103266  -0.246284  0  3.981001  0
C  C168  1  0.38424431  0.50682615  0.87285767  1  -0.11371  0  -0.081433  -0.08943  0  3.986181  0
C  C169  1  0.49317447  0.61575649  0.62714286  1  -0.113778  0  -0.081445  -0.089489  0  3.986151  0
C  C170  1  0.61575522  0.49317464  0.12714190  1  -0.113706  0  -0.081444  -0.089415  0  3.98613  0
C  C171  1  0.50682506  0.38424508  0.37285727  1  -0.113626  0  -0.081458  -0.089443  0  3.986139  0
C  C172  1  0.13965057  0.77905997  0.38735710  1  0.036858  0  -0.07365  -0.079055  0  3.93701  0
C  C173  1  0.22094240  0.86034613  0.11264473  1  0.036761  0  -0.073613  -0.07895  0  3.936869  0
C  C174  1  0.86034651  0.22094325  0.61264485  1  0.036857  0  -0.073643  -0.079001  0  3.936807  0
C  C175  1  0.77905878  0.13965356  0.88735633  1  0.036829  0  -0.073613  -0.079034  0  3.936888  0
C  C176  1  0.22087219  0.48830591  0.67135494  1  0.421113  0  0.043509  0.090451  0  3.959581  0
C  C177  1  0.51169421  0.77912732  0.82864499  1  0.420408  0  0.043516  0.090444  0  3.959449  0
C  C178  1  0.77912404  0.51169391  0.32864416  1  0.420308  0  0.043573  0.090509  0  3.959608  0
C  C179  1  0.48830697  0.22087395  0.17135529  1  0.420405  0  0.043565  0.090549  0  3.959611  0
C  C180  1  0.49178518  0.56707995  0.05812628  1  0.445817  0  0.081613  0.191103  0  4.065201  0
C  C181  1  0.43292021  0.50821382  0.44187433  1  0.445539  0  0.081605  0.191138  0  4.065136  0
C  C182  1  0.50821435  0.43292084  0.94187425  1  0.445537  0  0.081629  0.191142  0  4.065159  0
C  C183  1  0.56707931  0.49178539  0.55812602  1  0.445586  0  0.081626  0.191161  0  4.065133  0
C  C184  1  0.18682252  0.62156039  0.77733067  1  -0.034304  0  -0.078897  -0.175755  0  3.933152  0
C  C185  1  0.37843934  0.81317954  0.72266959  1  -0.034187  0  -0.07887  -0.175756  0  3.933144  0
C  C186  1  0.81317701  0.37843961  0.22266929  1  -0.034343  0  -0.078883  -0.175769  0  3.933113  0
C  C187  1  0.62156018  0.18682046  0.27732990  1  -0.034182  0  -0.078887  -0.175746  0  3.93314  0
C  C188  1  0.31404290  0.56584058  0.85785026  1  0.031883  0  -0.090625  -0.140145  0  3.959994  0
C  C189  1  0.43416071  0.68595876  0.64215051  1  0.031929  0  -0.090624  -0.140058  0  3.960016  0
C  C190  1  0.68595745  0.43415966  0.14214982  1  0.031935  0  -0.090625  -0.140142  0  3.959942  0
C  C191  1  0.56584131  0.31404433  0.35784959  1  0.031843  0  -0.090603  -0.140146  0  3.959961  0
C  C192  1  0.13755544  0.61686565  0.71231901  1  0.470735  0  0.049203  0.094431  0  3.952909  0
C  C193  1  0.38313482  0.86244521  0.78768167  1  0.470733  0  0.049207  0.094451  0  3.952983  0
C  C194  1  0.86244245  0.38313466  0.28768175  1  0.470476  0  0.049203  0.094531  0  3.952962  0
C  C195  1  0.61686553  0.13755424  0.21231832  1  0.4704  0  0.049192  0.094385  0  3.953003  0
C  C196  1  0.44280986  0.50650466  0.93766204  1  0.033725  0  -0.017128  0.034529  0  4.041044  0
C  C197  1  0.49349486  0.55719029  0.56233827  1  0.033725  0  -0.017137  0.034534  0  4.041073  0
C  C198  1  0.55718967  0.49349534  0.06233792  1  0.033477  0  -0.017132  0.034535  0  4.041058  0
C  C199  1  0.50650467  0.44280971  0.43766217  1  0.033725  0  -0.017144  0.034499  0  4.041049  0
C  C200  1  0.19397053  0.86390561  0.36191980  1  -0.017869  0  -0.07993  -0.091941  0  3.985625  0
C  C201  1  0.13609636  0.80602566  0.13808147  1  -0.017785  0  -0.079958  -0.091986  0  3.985662  0
C  C202  1  0.80602902  0.13609676  0.63808233  1  -0.017926  0  -0.079983  -0.092043  0  3.985511  0
C  C203  1  0.86390316  0.19397276  0.86191784  1  -0.017842  0  -0.079969  -0.091998  0  3.985685  0
C  C204  1  0.29293603  0.15010983  0.39457663  1  -0.245868  0  -0.019115  -0.074853  0  3.982934  0
C  C205  1  0.84988843  0.70706406  0.10542331  1  -0.245875  0  -0.019105  -0.074794  0  3.982982  0
C  C206  1  0.70706599  0.84989248  0.60542529  1  -0.245911  0  -0.019099  -0.074818  0  3.983064  0
C  C207  1  0.15010533  0.29293503  0.89457450  1  -0.245918  0  -0.019141  -0.074813  0  3.982919  0
C  C208  1  0.27273959  0.48855982  0.73463127  1  -0.00035  0  -0.082281  -0.175969  0  3.938403  0
C  C209  1  0.51143962  0.72726137  0.76536920  1  -0.000497  0  -0.082284  -0.17593  0  3.938378  0
C  C210  1  0.72726408  0.51144454  0.26536867  1  -0.000321  0  -0.082302  -0.175951  0  3.938502  0
C  C211  1  0.48856073  0.27273887  0.23463088  1  -0.000511  0  -0.082287  -0.175953  0  3.938449  0
C  C212  1  0.42389456  0.70359116  0.11796312  1  0.414608  0  -0.065759  0.033958  0  3.889183  0
C  C213  1  0.29641029  0.57610553  0.38203690  1  0.414652  0  -0.065771  0.033987  0  3.889156  0
C  C214  1  0.57610581  0.29641066  0.88203761  1  0.414635  0  -0.065793  0.033928  0  3.889278  0
C  C215  1  0.70359006  0.42389392  0.61796261  1  0.414619  0  -0.065783  0.033951  0  3.889242  0
C  C216  1  0.43471463  0.75709753  0.19006923  1  -0.025476  0  -0.166654  -0.177039  0  3.949899  0
C  C217  1  0.24290454  0.56528768  0.30993017  1  -0.025776  0  -0.166634  -0.177097  0  3.949976  0
C  C218  1  0.56528903  0.24290446  0.80993092  1  -0.025846  0  -0.166633  -0.177062  0  3.950011  0
C  C219  1  0.75709581  0.43471098  0.69006879  1  -0.025899  0  -0.166608  -0.177012  0  3.94994  0
C  C220  1  0.56305590  0.88780671  0.29784110  1  -0.037523  0  -0.171328  -0.154398  0  3.944116  0
C  C221  1  0.11219213  0.43694422  0.20215724  1  -0.037976  0  -0.171321  -0.154446  0  3.944336  0
C  C222  1  0.43694444  0.11219117  0.70215777  1  -0.038121  0  -0.171302  -0.154413  0  3.944226  0
C  C223  1  0.88780904  0.56305547  0.79784192  1  -0.037737  0  -0.171269  -0.154351  0  3.944181  0
C  C224  1  0.55235370  0.82675353  0.22634785  1  -0.027826  0  -0.169943  -0.137138  0  3.938873  0
C  C225  1  0.17324907  0.44764899  0.27365115  1  -0.027676  0  -0.169934  -0.137187  0  3.939002  0
C  C226  1  0.44764996  0.17324847  0.77365278  1  -0.027843  0  -0.169924  -0.1372  0  3.939072  0
C  C227  1  0.82675209  0.55234991  0.72634745  1  -0.02766  0  -0.169933  -0.137223  0  3.939044  0
C  C228  1  0.52457464  0.81430680  0.34391300  1  -0.015646  0  -0.169108  -0.089958  0  3.957785  0
C  C229  1  0.18569170  0.47542621  0.15608489  1  -0.015384  0  -0.169107  -0.089887  0  3.957852  0
C  C230  1  0.47542652  0.18569052  0.65608543  1  -0.015272  0  -0.169143  -0.090023  0  3.957957  0
C  C231  1  0.81431030  0.52457450  0.84391400  1  -0.015798  0  -0.169186  -0.089991  0  3.957938  0
C  C232  1  0.58010812  0.72351770  0.34784577  1  -0.062216  0  -0.249231  -0.355496  0  3.95931  0
C  C233  1  0.27648014  0.41989206  0.15215285  1  -0.062243  0  -0.249179  -0.355391  0  3.959316  0
C  C234  1  0.41989305  0.27648041  0.65215369  1  -0.062036  0  -0.249216  -0.355392  0  3.959403  0
C  C235  1  0.72352021  0.58010818  0.84784628  1  -0.061939  0  -0.249224  -0.355514  0  3.95936  0
S  S236  1  0.36036464  0.05062429  0.36994162  1  2.473722  0  0.475628  0.96448  0  5.74891  0
S  S237  1  0.94937339  0.63963330  0.13005793  1  2.473678  0  0.475555  0.964228  0  5.749164  0
S  S238  1  0.63963406  0.94937390  0.63005947  1  2.473677  0  0.475529  0.9642  0  5.749136  0
S  S239  1  0.05062530  0.36036566  0.86993993  1  2.473647  0  0.475652  0.964473  0  5.749114  0
N  N240  1  0.15498441  0.55249262  0.65984127  1  -1.25008  0  -0.3388  -0.227404  0  3.55514  0
N  N241  1  0.44750705  0.84501536  0.84015965  1  -1.249781  0  -0.33879  -0.227388  0  3.55512  0
N  N242  1  0.84501265  0.44750745  0.34015937  1  -1.249751  0  -0.338824  -0.227487  0  3.555289  0
N  N243  1  0.55249331  0.15498567  0.15984051  1  -1.249767  0  -0.338843  -0.227467  0  3.555204  0
O  O244  1  0.15534871  0.43640169  0.51584779  1  -1.174257  0  -0.309633  -0.544076  0  2.342984  0
O  O245  1  0.56360168  0.84465486  0.98415200  1  -1.17423  0  -0.309617  -0.543998  0  2.343013  0
O  O246  1  0.84465332  0.56360298  0.48415343  1  -1.174159  0  -0.309586  -0.544004  0  2.343036  0
O  O247  1  0.43639867  0.15534617  0.01584579  1  -1.174474  0  -0.309587  -0.544028  0  2.343013  0
O  O248  1  0.03017488  0.37112614  0.41655808  1  -1.177595  0  -0.314204  -0.553505  0  2.346285  0
O  O249  1  0.62887372  0.96982577  0.08344091  1  -1.177576  0  -0.314205  -0.553468  0  2.346348  0
O  O250  1  0.96982216  0.62886998  0.58344356  1  -1.177499  0  -0.314128  -0.553408  0  2.346272  0
O  O251  1  0.37112498  0.03017398  0.91655751  1  -1.177664  0  -0.314182  -0.553476  0  2.346237  0
O  O252  1  0.16846253  0.66888425  0.53502222  1  -1.167589  0  -0.315392  -0.539999  0  2.304493  0
O  O253  1  0.33111560  0.83153676  0.96497968  1  -1.167545  0  -0.315397  -0.54  0  2.304533  0
O  O254  1  0.83153783  0.33111599  0.46497833  1  -1.167564  0  -0.315411  -0.540026  0  2.304391  0
O  O255  1  0.66888311  0.16846300  0.03502159  1  -1.167562  0  -0.315404  -0.539981  0  2.304418  0
O  O256  1  0.47500003  0.09098487  0.40677270  1  -1.302449  0  -0.308704  -0.519421  0  2.188534  0
O  O257  1  0.90901363  0.52500081  0.09322437  1  -1.302466  0  -0.308775  -0.519383  0  2.188594  0
O  O258  1  0.52500113  0.90901324  0.59322581  1  -1.3024  0  -0.308728  -0.519347  0  2.188571  0
O  O259  1  0.09098755  0.47500124  0.90677362  1  -1.302391  0  -0.308719  -0.519429  0  2.188505  0
O  O260  1  0.48995415  0.62903072  0.11736520  1  -1.100953  0  -0.181311  -0.203874  0  2.606489  0
O  O261  1  0.37096982  0.51004526  0.38263505  1  -1.100948  0  -0.181309  -0.203909  0  2.606495  0
O  O262  1  0.51004538  0.37096927  0.88263524  1  -1.100946  0  -0.18131  -0.203861  0  2.606502  0
O  O263  1  0.62903053  0.48995419  0.61736494  1  -1.100942  0  -0.181305  -0.203893  0  2.606522  0
O  O264  1  0.33191306  0.01703474  0.29783389  1  -1.289187  0  -0.319297  -0.523772  0  2.133752  0
O  O265  1  0.98295727  0.66807869  0.20216673  1  -1.28915  0  -0.319144  -0.523596  0  2.133812  0
O  O266  1  0.66808151  0.98295909  0.70216770  1  -1.289211  0  -0.319176  -0.523613  0  2.133819  0
O  O267  1  0.01703481  0.33191362  0.79783252  1  -1.289224  0  -0.319269  -0.52372  0  2.133935  0
O  O268  1  0.04101823  0.60613496  0.43668983  1  -1.189907  0  -0.313241  -0.555858  0  2.370213  0
O  O269  1  0.39386346  0.95898102  0.06331181  1  -1.189919  0  -0.31323  -0.555853  0  2.370258  0
O  O270  1  0.95898211  0.39386292  0.56331142  1  -1.189927  0  -0.313192  -0.555804  0  2.370246  0
O  O271  1  0.60613442  0.04101929  0.93668848  1  -1.189935  0  -0.313224  -0.555828  0  2.370296  0
