# generated using pymatgen
data_BaH18C14(N3O2)4
_symmetry_space_group_name_H-M   'P 1'
_cell_length_a   6.92319848
_cell_length_b   10.11485668
_cell_length_c   16.57430000
_cell_angle_alpha   99.05425152
_cell_angle_beta   90.00000000
_cell_angle_gamma   90.00000000
_symmetry_Int_Tables_number   1
_chemical_formula_structural   BaH18C14(N3O2)4
_chemical_formula_sum   'Ba2 H36 C28 N24 O16'
_cell_volume   1146.18919009
_cell_formula_units_Z   2
loop_
 _symmetry_equiv_pos_site_id
 _symmetry_equiv_pos_as_xyz
  1  'x, y, z'
loop_
 _atom_site_type_symbol
 _atom_site_label
 _atom_site_symmetry_multiplicity
 _atom_site_fract_x
 _atom_site_fract_y
 _atom_site_fract_z
 _atom_site_occupancy
 _atom_site_hle17_bader_spin_density
 _atom_site_hle17_ddec_charge
 _atom_site_hle17_ddec_spin_density
 _atom_site_hle17_ddec_sum_bond_order
 _atom_site_hle17_magmom
 _atom_site_hse06_10hf_bader_spin_density
 _atom_site_hse06_10hf_ddec_charge
 _atom_site_hse06_10hf_ddec_spin_density
 _atom_site_hse06_10hf_ddec_sum_bond_order
 _atom_site_hse06_10hf_magmom
 _atom_site_hse06_bader_spin_density
 _atom_site_hse06_ddec_charge
 _atom_site_hse06_ddec_spin_density
 _atom_site_hse06_ddec_sum_bond_order
 _atom_site_hse06_magmom
 _atom_site_pbe_bader_charge
 _atom_site_pbe_bader_spin_density
 _atom_site_pbe_cm5_charge
 _atom_site_pbe_ddec_charge
 _atom_site_pbe_ddec_spin_density
 _atom_site_pbe_ddec_sum_bond_order
 _atom_site_pbe_magmom
Ba  Ba0  1  0.32901122  0.25000142  0.25000000  1  0  1.538967  0  1.190158  0  0  1.350123  0  1.610386  0  0  1.391431  0  1.567817  0  1.677987  0  0.884884  1.319844  0  1.639551  0
Ba  Ba1  1  0.67098611  0.75000025  0.74999901  1  0  1.538959  0  1.190201  0  0  1.350136  0  1.610417  0  0  1.391443  0  1.567849  0  1.677968  0  0.884886  1.319876  0  1.639551  0
H  H2  1  0.61538753  0.17933944  0.37372060  1  0  0.412462  0  0.89304  0  0  0.379959  0  0.959903  0  0  0.391578  0  0.942676  0  0.625602  0  0.29063  0.371775  0  0.971981  0
H  H3  1  0.61538897  0.32066039  0.12627972  1  0  0.412505  0  0.892988  0  0  0.380006  0  0.959844  0  0  0.391626  0  0.942617  0  0.625613  0  0.290645  0.371822  0  0.971923  0
H  H4  1  0.38460980  0.82065923  0.62627873  1  0  0.412514  0  0.892997  0  0  0.380007  0  0.959865  0  0  0.391628  0  0.942636  0  0.625573  0  0.290645  0.371822  0  0.971944  0
H  H5  1  0.38461269  0.67933928  0.87372152  1  0  0.412475  0  0.893012  0  0  0.379968  0  0.959878  0  0  0.391589  0  0.94265  0  0.625605  0  0.290623  0.371784  0  0.971957  0
H  H6  1  0.72420717  0.32079855  0.38937378  1  0  0.392898  0  0.921395  0  0  0.347775  0  1.009608  0  0  0.359042  0  0.993362  0  0.61976  0  0.283555  0.339773  0  1.021082  0
H  H7  1  0.72420862  0.17919929  0.11062634  1  0  0.392918  0  0.921367  0  0  0.347794  0  1.00957  0  0  0.35906  0  0.993324  0  0.619754  0  0.283553  0.339792  0  1.021043  0
H  H8  1  0.27579016  0.67919912  0.61062606  1  0  0.392913  0  0.921364  0  0  0.347797  0  1.009558  0  0  0.359063  0  0.993311  0  0.619752  0  0.283544  0.339796  0  1.02103  0
H  H9  1  0.27579160  0.82079938  0.88937359  1  0  0.393018  0  0.921282  0  0  0.347877  0  1.009507  0  0  0.359145  0  0.993259  0  0.619747  0  0.283614  0.339876  0  1.02098  0
H  H10  1  0.04627630  0.03155827  0.30787566  1  0  0.406569  0  0.901287  0  0  0.374317  0  0.967892  0  0  0.385942  0  0.950767  0  0.614932  0  0.282928  0.366017  0  0.980132  0
H  H11  1  0.04627485  0.46844056  0.19212396  1  0  0.406638  0  0.901204  0  0  0.37432  0  0.967891  0  0  0.385944  0  0.950768  0  0.614949  0  0.282908  0.36602  0  0.980131  0
H  H12  1  0.95372392  0.96844340  0.69212275  1  0  0.406574  0  0.901257  0  0  0.374332  0  0.967846  0  0  0.385956  0  0.950723  0  0.614929  0  0.282944  0.366034  0  0.980083  0
H  H13  1  0.95372681  0.53155911  0.80787426  1  0  0.406617  0  0.901246  0  0  0.374295  0  0.967933  0  0  0.385921  0  0.950805  0  0.61497  0  0.282898  0.365995  0  0.980172  0
H  H14  1  0.89202845  0.14791432  0.30055180  1  0  0.426207  0  0.871874  0  0  0.398593  0  0.929525  0  0  0.409102  0  0.91423  0  0.64852  0  0.289746  0.391126  0  0.940384  0
H  H15  1  0.89202556  0.35208552  0.19944912  1  0  0.426226  0  0.871869  0  0  0.398612  0  0.929516  0  0  0.409119  0  0.914225  0  0.648525  0  0.289745  0.391144  0  0.940375  0
H  H16  1  0.10797033  0.85208735  0.69944902  1  0  0.426239  0  0.871853  0  0  0.398628  0  0.929495  0  0  0.409137  0  0.914201  0  0.648545  0  0.289763  0.391161  0  0.940354  0
H  H17  1  0.10797610  0.64791516  0.80055101  1  0  0.426206  0  0.871891  0  0  0.398588  0  0.929545  0  0  0.409097  0  0.914251  0  0.648484  0  0.289745  0.391121  0  0.940405  0
H  H18  1  0.10412673  0.46512986  0.65886826  1  0  0.099891  0  0.938335  0  0  0.108397  0  0.998843  0  0  0.111863  0  0.995172  0  0.201312  0  0.125917  0.105848  0  1.00162  0
H  H19  1  0.10412239  0.03486997  0.84113266  1  0  0.099878  0  0.938314  0  0  0.108371  0  0.998825  0  0  0.11184  0  0.995148  0  0.201337  0  0.125905  0.105819  0  1.001609  0
H  H20  1  0.89587060  0.53487081  0.34113247  1  0  0.099902  0  0.93828  0  0  0.108385  0  0.998807  0  0  0.111852  0  0.995132  0  0.201327  0  0.125888  0.105835  0  1.001585  0
H  H21  1  0.89587060  0.96513070  0.15886807  1  0  0.099864  0  0.938307  0  0  0.108357  0  0.998844  0  0  0.111826  0  0.995165  0  0.201319  0  0.125865  0.105806  0  1.001623  0
H  H22  1  0.00990871  0.22749727  0.59349074  1  0  0.140816  0  0.962322  0  0  0.146674  0  1.022388  0  0  0.151576  0  1.019967  0  0.189733  0  0.111892  0.143223  0  1.024191  0
H  H23  1  0.00990294  0.27249956  0.90650989  1  0  0.140811  0  0.962352  0  0  0.146691  0  1.022411  0  0  0.151594  0  1.019989  0  0.189722  0  0.111898  0.143248  0  1.024205  0
H  H24  1  0.99009584  0.77250140  0.40650980  1  0  0.140829  0  0.962349  0  0  0.146696  0  1.022408  0  0  0.1516  0  1.019986  0  0.189723  0  0.111896  0.143253  0  1.024203  0
H  H25  1  0.99009439  0.72750111  0.09349265  1  0  0.140771  0  0.962371  0  0  0.146641  0  1.02244  0  0  0.151544  0  1.02002  0  0.189707  0  0.11191  0.143202  0  1.024227  0
H  H26  1  0.09109662  0.15937713  0.44374374  1  0  0.083461  0  0.935512  0  0  0.091139  0  0.997859  0  0  0.094355  0  0.994003  0  0.137686  0  0.126754  0.088852  0  1.000563  0
H  H27  1  0.09109373  0.34062571  0.05625747  1  0  0.083501  0  0.935446  0  0  0.091165  0  0.997815  0  0  0.094384  0  0.993953  0  0.137641  0  0.126751  0.088875  0  1.000519  0
H  H28  1  0.90890937  0.84062154  0.55625740  1  0  0.083412  0  0.935568  0  0  0.091089  0  0.997914  0  0  0.094306  0  0.994056  0  0.137277  0  0.12672  0.088802  0  1.000618  0
H  H29  1  0.90890937  0.65937396  0.94374377  1  0  0.083519  0  0.935435  0  0  0.091186  0  0.997813  0  0  0.094406  0  0.99395  0  0.137258  0  0.126751  0.088897  0  1.000517  0
H  H30  1  0.62021622  0.86344104  0.33498491  1  0  0.130975  0  0.912857  0  0  0.14091  0  0.975303  0  0  0.143847  0  0.972307  0  0.132218  0  0.133588  0.138737  0  0.977651  0
H  H31  1  0.62021622  0.63655946  0.16501493  1  0  0.131005  0  0.912861  0  0  0.140931  0  0.975299  0  0  0.14387  0  0.972302  0  0.132228  0  0.133589  0.138761  0  0.977647  0
H  H32  1  0.37978833  0.13655963  0.66501642  1  0  0.131035  0  0.912812  0  0  0.140961  0  0.975262  0  0  0.143902  0  0.972265  0  0.132212  0  0.133599  0.138789  0  0.977611  0
H  H33  1  0.37978400  0.36344021  0.83498510  1  0  0.131035  0  0.91283  0  0  0.140966  0  0.975262  0  0  0.143905  0  0.972265  0  0.132226  0  0.133614  0.138792  0  0.97761  0
H  H34  1  0.58254288  0.90176988  0.44303477  1  0  0.128304  0  0.910281  0  0  0.143418  0  0.964585  0  0  0.145356  0  0.963653  0  0.117359  0  0.128089  0.141876  0  0.965483  0
H  H35  1  0.58254288  0.59823163  0.05696517  1  0  0.128326  0  0.910277  0  0  0.143428  0  0.964579  0  0  0.145367  0  0.963646  0  0.117366  0  0.128091  0.141888  0  0.965477  0
H  H36  1  0.41745156  0.09823379  0.55696625  1  0  0.128315  0  0.910287  0  0  0.143416  0  0.964603  0  0  0.145356  0  0.96367  0  0.117368  0  0.128099  0.141875  0  0.965499  0
H  H37  1  0.41746456  0.40176905  0.94303375  1  0  0.12835  0  0.910231  0  0  0.143432  0  0.964558  0  0  0.145371  0  0.963624  0  0.117411  0  0.128098  0.141891  0  0.965452  0
C  C38  1  0.33934315  0.55885762  0.42278367  1  0  0.189997  0  3.795954  0  0  0.168768  0  4.077804  0  0  0.174096  0  4.093132  0  0.955644  0  0.232262  0.16498  0  4.067453  0
C  C39  1  0.33934460  0.94114389  0.07721687  1  0  0.190002  0  3.795989  0  0  0.168738  0  4.077831  0  0  0.174104  0  4.093108  0  0.955322  0  0.232232  0.164949  0  4.067481  0
C  C40  1  0.66065707  0.44114405  0.57721595  1  0  0.189996  0  3.79591  0  0  0.168771  0  4.077781  0  0  0.174106  0  4.093101  0  0.955306  0  0.232262  0.164983  0  4.067431  0
C  C41  1  0.66065707  0.05885478  0.92278548  1  0  0.189938  0  3.796028  0  0  0.168762  0  4.077816  0  0  0.17415  0  4.093066  0  0.955284  0  0.232261  0.164974  0  4.067466  0
C  C42  1  0.34779300  0.95939429  0.36862769  1  0  0.688498  0  3.918064  0  0  0.637603  0  4.231621  0  0  0.669643  0  4.225782  0  1.652482  0  0.212964  0.615901  0  4.234965  0
C  C43  1  0.34778434  0.54061022  0.13137192  1  0  0.68856  0  3.918047  0  0  0.637661  0  4.23159  0  0  0.669701  0  4.22575  0  1.652551  0  0.212976  0.615962  0  4.234935  0
C  C44  1  0.65223177  0.04061840  0.63136815  1  0  0.688507  0  3.917867  0  0  0.637638  0  4.231388  0  0  0.669677  0  4.225549  0  1.65192  0  0.21293  0.615937  0  4.234733  0
C  C45  1  0.65221155  0.45939245  0.86862538  1  0  0.688469  0  3.918154  0  0  0.637635  0  4.231609  0  0  0.669675  0  4.225769  0  1.652558  0  0.212948  0.615931  0  4.234954  0
C  C46  1  0.13433242  0.42568177  0.59462287  1  0  0.173371  0  3.650484  0  0  0.138329  0  3.91328  0  0  0.147143  0  3.928667  0  0.375654  0  0.065995  0.132645  0  3.902376  0
C  C47  1  0.13433097  0.07431906  0.90537814  1  0  0.173326  0  3.650569  0  0  0.138349  0  3.91331  0  0  0.147162  0  3.928702  0  0.376049  0  0.065976  0.132662  0  3.902408  0
C  C48  1  0.86566347  0.57431890  0.40537725  1  0  0.173236  0  3.650516  0  0  0.138244  0  3.913245  0  0  0.147059  0  3.928634  0  0.375727  0  0.065921  0.13256  0  3.902344  0
C  C49  1  0.86566780  0.92568061  0.09462249  1  0  0.173323  0  3.650482  0  0  0.138305  0  3.913269  0  0  0.147119  0  3.928659  0  0.376054  0  0.06602  0.13262  0  3.902367  0
C  C50  1  0.08349609  0.29607091  0.55894470  1  0  -0.177563  0  3.673344  0  0  -0.192008  0  3.933471  0  0  -0.202771  0  3.953985  0  -0.021296  0  -0.082093  -0.184476  0  3.919055  0
C  C51  1  0.08349031  0.20393093  0.94105521  1  0  -0.177482  0  3.673259  0  0  -0.192007  0  3.933411  0  0  -0.202771  0  3.953924  0  -0.021729  0  -0.08207  -0.184484  0  3.918992  0
C  C52  1  0.91650846  0.70392976  0.44105543  1  0  -0.177502  0  3.67333  0  0  -0.191974  0  3.933427  0  0  -0.202737  0  3.953939  0  -0.021363  0  -0.082056  -0.18445  0  3.919007  0
C  C53  1  0.91650702  0.79606974  0.05894673  1  0  -0.177347  0  3.673395  0  0  -0.191829  0  3.933523  0  0  -0.202592  0  3.954036  0  -0.02178  0  -0.08206  -0.184309  0  3.919102  0
C  C54  1  0.25160914  0.46575756  0.47157885  1  0  0.309643  0  3.815736  0  0  0.29019  0  4.076613  0  0  0.302663  0  4.091675  0  1.118067  0  0.253639  0.282167  0  4.066063  0
C  C55  1  0.25161058  0.03424427  0.02842105  1  0  0.309633  0  3.815858  0  0  0.290256  0  4.076637  0  0  0.302717  0  4.091695  0  1.118035  0  0.253651  0.282234  0  4.066085  0
C  C56  1  0.74838530  0.53424611  0.52842035  1  0  0.309663  0  3.815767  0  0  0.290166  0  4.076705  0  0  0.302636  0  4.091768  0  1.117997  0  0.253647  0.282144  0  4.066155  0
C  C57  1  0.74838675  0.96575540  0.97157958  1  0  0.309466  0  3.815875  0  0  0.289999  0  4.076744  0  0  0.302453  0  4.0918  0  1.118005  0  0.253579  0.281977  0  4.066192  0
C  C58  1  0.12535680  0.25898646  0.47619912  1  0  0.191903  0  3.667313  0  0  0.157855  0  3.934369  0  0  0.16828  0  3.947293  0  0.50093  0  0.077073  0.151235  0  3.92484  0
C  C59  1  0.12535391  0.24101538  0.02380018  1  0  0.191881  0  3.667312  0  0  0.157859  0  3.934377  0  0  0.168282  0  3.947306  0  0.50093  0  0.077042  0.151241  0  3.924848  0
C  C60  1  0.87464775  0.74101421  0.52380160  1  0  0.191929  0  3.667338  0  0  0.157884  0  3.934387  0  0  0.168308  0  3.947313  0  0.501324  0  0.077095  0.151263  0  3.924861  0
C  C61  1  0.87464631  0.75898530  0.97620176  1  0  0.191741  0  3.667438  0  0  0.157695  0  3.934508  0  0  0.168117  0  3.947438  0  0.501616  0  0.077016  0.151077  0  3.924981  0
C  C62  1  0.51431575  0.86450824  0.38416157  1  0  -0.220481  0  3.617159  0  0  -0.283926  0  3.882792  0  0  -0.284682  0  3.886671  0  0.252795  0  -0.044981  -0.283474  0  3.880229  0
C  C63  1  0.51431575  0.63549327  0.11583836  1  0  -0.220575  0  3.617239  0  0  -0.283967  0  3.882806  0  0  -0.284724  0  3.886686  0  0.252767  0  -0.044978  -0.283523  0  3.88025  0
C  C64  1  0.48568158  0.13549344  0.61583865  1  0  -0.220556  0  3.617035  0  0  -0.283985  0  3.882668  0  0  -0.284748  0  3.886554  0  0.252711  0  -0.045005  -0.283543  0  3.880122  0
C  C65  1  0.48568736  0.36450540  0.88416036  1  0  -0.220642  0  3.617174  0  0  -0.284066  0  3.882772  0  0  -0.284821  0  3.886648  0  0.252702  0  -0.045063  -0.283599  0  3.880181  0
N  N66  1  0.38149275  0.68704990  0.45120736  1  0  -0.259761  0  2.818137  0  0  -0.253747  0  3.091044  0  0  -0.25743  0  3.102581  0  -0.609046  0  -0.177956  -0.250704  0  3.083004  0
N  N67  1  0.38149275  0.81295061  0.04879188  1  0  -0.259824  0  2.818098  0  0  -0.253807  0  3.091017  0  0  -0.257502  0  3.102543  0  -0.609056  0  -0.177979  -0.250764  0  3.082975  0
N  N68  1  0.61850603  0.31295078  0.54879337  1  0  -0.259745  0  2.818179  0  0  -0.253735  0  3.09109  0  0  -0.25742  0  3.102625  0  -0.609469  0  -0.177947  -0.250691  0  3.083048  0
N  N69  1  0.61850603  0.18704906  0.95120694  1  0  -0.259728  0  2.818187  0  0  -0.253742  0  3.091088  0  0  -0.257443  0  3.102608  0  -0.609504  0  -0.177942  -0.250701  0  3.083047  0
N  N70  1  0.45490101  0.72788854  0.38550116  1  0  0.24943  0  3.565942  0  0  0.295779  0  3.852246  0  0  0.292427  0  3.873602  0  -0.311713  0  0.003162  0.297861  0  3.837562  0
N  N71  1  0.45489957  0.77211297  0.11449877  1  0  0.249405  0  3.566011  0  0  0.29574  0  3.852313  0  0  0.292385  0  3.873675  0  -0.311704  0  0.003151  0.297825  0  3.837629  0
N  N72  1  0.54510210  0.27211313  0.61449906  1  0  0.249279  0  3.56608  0  0  0.295632  0  3.852389  0  0  0.29228  0  3.873749  0  -0.311273  0  0.003095  0.297717  0  3.837703  0
N  N73  1  0.54510065  0.22788470  0.88550106  1  0  0.249441  0  3.566061  0  0  0.295789  0  3.852357  0  0  0.292435  0  3.87372  0  -0.311262  0  0.003191  0.29787  0  3.837671  0
N  N74  1  0.20950143  0.34316154  0.43181821  1  0  -0.381184  0  3.062706  0  0  -0.336649  0  3.330379  0  0  -0.352488  0  3.344484  0  -1.205045  0  -0.313684  -0.325969  0  3.320346  0
N  N75  1  0.20950143  0.15684030  0.06818169  1  0  -0.381199  0  3.062792  0  0  -0.3367  0  3.330447  0  0  -0.352539  0  3.344558  0  -1.205018  0  -0.313675  -0.326019  0  3.320413  0
N  N76  1  0.79049879  0.65683913  0.56818191  1  0  -0.381149  0  3.062682  0  0  -0.336612  0  3.330381  0  0  -0.352449  0  3.344488  0  -1.205057  0  -0.313674  -0.325934  0  3.320349  0
N  N77  1  0.79049734  0.84315837  0.93181945  1  0  -0.381048  0  3.062653  0  0  -0.336524  0  3.330361  0  0  -0.352361  0  3.344475  0  -1.205232  0  -0.313624  -0.325845  0  3.320326  0
N  N78  1  0.21887138  0.51125241  0.55110302  1  0  -0.365829  0  3.082329  0  0  -0.313378  0  3.334786  0  0  -0.329449  0  3.350173  0  -1.20098  0  -0.291521  -0.302105  0  3.32399  0
N  N79  1  0.21886993  0.98874910  0.94889752  1  0  -0.365891  0  3.082537  0  0  -0.313458  0  3.334935  0  0  -0.329531  0  3.350329  0  -1.200946  0  -0.291548  -0.302184  0  3.324137  0
N  N80  1  0.78112740  0.48875126  0.44889860  1  0  -0.365831  0  3.082455  0  0  -0.313353  0  3.334893  0  0  -0.329427  0  3.350285  0  -1.20096  0  -0.291507  -0.302079  0  3.324093  0
N  N81  1  0.78112595  0.01125057  0.05110251  1  0  -0.365768  0  3.082365  0  0  -0.313314  0  3.334815  0  0  -0.329387  0  3.350209  0  -1.200949  0  -0.291514  -0.30204  0  3.324017  0
N  N82  1  0.45934549  0.63345399  0.31926378  1  0  -0.073828  0  2.822081  0  0  -0.074715  0  3.105123  0  0  -0.071172  0  3.114902  0  -0.052794  0  -0.048981  -0.076924  0  3.098568  0
N  N83  1  0.45934405  0.86654751  0.18073615  1  0  -0.073771  0  2.822127  0  0  -0.074651  0  3.10515  0  0  -0.071108  0  3.114933  0  -0.052582  0  -0.048959  -0.07686  0  3.098594  0
N  N84  1  0.54065473  0.36654868  0.68073654  1  0  -0.073713  0  2.822083  0  0  -0.074586  0  3.105104  0  0  -0.071042  0  3.114883  0  -0.052798  0  -0.048918  -0.076795  0  3.098549  0
N  N85  1  0.54065473  0.13345015  0.81926429  1  0  -0.073782  0  2.822053  0  0  -0.074666  0  3.105082  0  0  -0.071124  0  3.114866  0  -0.052625  0  -0.048952  -0.076875  0  3.098528  0
N  N86  1  0.38621166  0.52539021  0.34245796  1  0  -0.273129  0  3.014879  0  0  -0.240047  0  3.300533  0  0  -0.249066  0  3.312696  0  -0.615831  0  -0.20799  -0.234153  0  3.292437  0
N  N87  1  0.38621311  0.97461129  0.15754258  1  0  -0.273084  0  3.014961  0  0  -0.239992  0  3.300601  0  0  -0.249022  0  3.312752  0  -0.615525  0  -0.207947  -0.2341  0  3.292509  0
N  N88  1  0.61378711  0.47461246  0.65754296  1  0  -0.273159  0  3.014894  0  0  -0.240076  0  3.300551  0  0  -0.249096  0  3.312712  0  -0.615518  0  -0.208006  -0.234186  0  3.29246  0
N  N89  1  0.61378422  0.02538637  0.84245786  1  0  -0.273116  0  3.0148  0  0  -0.240047  0  3.300437  0  0  -0.249083  0  3.312582  0  -0.615454  0  -0.20803  -0.234157  0  3.292346  0
O  O90  1  0.17730966  0.91650635  0.36090925  1  0  -0.623513  0  1.919708  0  0  -0.574302  0  2.133654  0  0  -0.598357  0  2.12404  0  -1.185494  0  -0.318674  -0.558049  0  2.140216  0
O  O91  1  0.17731544  0.58349015  0.13908899  1  0  -0.623477  0  1.919894  0  0  -0.574252  0  2.133847  0  0  -0.598304  0  2.124232  0  -1.185537  0  -0.31866  -0.558003  0  2.140409  0
O  O92  1  0.82267467  0.08348331  0.63908378  1  0  -0.623343  0  1.920356  0  0  -0.574153  0  2.134322  0  0  -0.598196  0  2.124705  0  -1.185604  0  -0.3186  -0.557906  0  2.140883  0
O  O93  1  0.82269344  0.41650652  0.86090833  1  0  -0.623499  0  1.919722  0  0  -0.574291  0  2.133626  0  0  -0.598347  0  2.124013  0  -1.18553  0  -0.318658  -0.55804  0  2.140188  0
O  O94  1  0.69551957  0.24148991  0.34747812  1  0  -0.846061  0  1.867668  0  0  -0.780217  0  2.040751  0  0  -0.80111  0  2.00805  0  -1.263118  0  -0.587604  -0.765435  0  2.063559  0
O  O95  1  0.69552245  0.25850993  0.15252219  1  0  -0.846123  0  1.867598  0  0  -0.780273  0  2.040717  0  0  -0.801165  0  2.008016  0  -1.263299  0  -0.587616  -0.76549  0  2.063524  0
O  O96  1  0.30448065  0.75851177  0.65252150  1  0  -0.846141  0  1.867612  0  0  -0.780282  0  2.040726  0  0  -0.801176  0  2.008023  0  -1.263283  0  -0.587634  -0.765502  0  2.063535  0
O  O97  1  0.30447921  0.74149174  0.84747863  1  0  -0.846177  0  1.867535  0  0  -0.780299  0  2.040672  0  0  -0.801195  0  2.007965  0  -1.263089  0  -0.587653  -0.765516  0  2.063474  0
O  O98  1  0.00179686  0.09614846  0.27239620  1  0  -0.870692  0  1.792328  0  0  -0.810235  0  1.957021  0  0  -0.831067  0  1.925507  0  -1.293527  0  -0.628057  -0.79546  0  1.979186  0
O  O99  1  0.00179252  0.40385137  0.22760412  1  0  -0.870773  0  1.792233  0  0  -0.810241  0  1.957036  0  0  -0.831071  0  1.925523  0  -1.293547  0  -0.62802  -0.795466  0  1.979202  0
O  O100  1  0.99820625  0.90385221  0.72760393  1  0  -0.870709  0  1.792346  0  0  -0.810253  0  1.957016  0  0  -0.831083  0  1.925498  0  -1.293523  0  -0.628046  -0.795482  0  1.979179  0
O  O101  1  0.99820625  0.59614930  0.77239541  1  0  -0.870746  0  1.792303  0  0  -0.81021  0  1.957129  0  0  -0.831041  0  1.925616  0  -1.293538  0  -0.628026  -0.795438  0  1.979293  0
O  O102  1  0.40575754  0.07733844  0.36513368  1  0  -0.701855  0  2.026809  0  0  -0.635552  0  2.268285  0  0  -0.665049  0  2.260755  0  -1.222852  0  -0.359077  -0.615197  0  2.272434  0
O  O103  1  0.40576043  0.42265939  0.13486946  1  0  -0.70193  0  2.026648  0  0  -0.635636  0  2.26813  0  0  -0.665137  0  2.2606  0  -1.222805  0  -0.359106  -0.61528  0  2.27228  0
O  O104  1  0.59423257  0.92265022  0.63486771  1  0  -0.701957  0  2.026182  0  0  -0.635678  0  2.267673  0  0  -0.665187  0  2.260148  0  -1.222023  0  -0.359093  -0.615315  0  2.271821  0
O  O105  1  0.59424412  0.57733527  0.86512827  1  0  -0.701863  0  2.02691  0  0  -0.635591  0  2.26837  0  0  -0.665089  0  2.260841  0  -1.222802  0  -0.359073  -0.615241  0  2.272523  0
