# generated using pymatgen
data_Zn4H30C36O13F2
_symmetry_space_group_name_H-M   'P 1'
_cell_length_a   17.78284084
_cell_length_b   18.64509139
_cell_length_c   23.46474501
_cell_angle_alpha   66.57379822
_cell_angle_beta   69.57560806
_cell_angle_gamma   90.07023544
_symmetry_Int_Tables_number   1
_chemical_formula_structural   Zn4H30C36O13F2
_chemical_formula_sum   'Zn8 H60 C72 O26 F4'
_cell_volume   6600.74161205
_cell_formula_units_Z   2
loop_
 _symmetry_equiv_pos_site_id
 _symmetry_equiv_pos_as_xyz
  1  'x, y, z'
loop_
 _atom_site_type_symbol
 _atom_site_label
 _atom_site_symmetry_multiplicity
 _atom_site_fract_x
 _atom_site_fract_y
 _atom_site_fract_z
 _atom_site_occupancy
 _atom_site_pbe_bader_charge
 _atom_site_pbe_bader_spin_density
 _atom_site_pbe_cm5_charge
 _atom_site_pbe_ddec_charge
 _atom_site_pbe_ddec_spin_density
 _atom_site_pbe_ddec_sum_bond_order
 _atom_site_pbe_magmom
Zn  Zn0  1  0.11863446  0.53074348  0.94263050  1  1.314148  0  0.670708  0.959734  0  2.390519  0
Zn  Zn1  1  0.97107535  0.55815878  0.05201661  1  1.317005  0  0.666468  0.953383  0  2.398464  0
Zn  Zn2  1  0.97672627  0.38892489  0.04886307  1  1.313737  0  0.669674  0.953877  0  2.415794  0
Zn  Zn3  1  0.93971750  0.53133925  0.93360484  1  1.312808  0  0.66813  0.964963  0  2.335801  0
Zn  Zn4  1  0.38517634  0.97837631  0.04847978  1  1.316285  0  0.67141  0.96063  0  2.387412  0
Zn  Zn5  1  0.52924793  0.11591097  0.93772134  1  1.312114  0  0.670353  0.954603  0  2.414483  0
Zn  Zn6  1  0.52499688  0.94691935  0.93583416  1  1.318548  0  0.667998  0.956362  0  2.396741  0
Zn  Zn7  1  0.56645792  0.97157193  0.05130202  1  1.312516  0  0.66857  0.966144  0  2.33375  0
H  H8  1  0.49428785  0.87053464  0.26011377  1  0.085619  0  0.113141  0.12081  0  0.98403  0
H  H9  1  0.43545193  0.80797186  0.38538072  1  0.091291  0  0.108469  0.115385  0  0.984764  0
H  H10  1  0.19431672  0.80774683  0.38027161  1  0.094613  0  0.117388  0.144376  0  0.974678  0
H  H11  1  0.32053686  0.69558153  0.61002545  1  0.120618  0  0.116888  0.143556  0  0.974607  0
H  H12  1  0.01998052  0.63600239  0.72576560  1  0.082959  0  0.112873  0.120582  0  0.985434  0
H  H13  1  0.08154413  0.69875147  0.60055502  1  0.074748  0  0.10913  0.116775  0  0.985931  0
H  H14  1  0.62666804  0.02389591  0.73043277  1  0.133793  0  0.113707  0.121825  0  0.98464  0
H  H15  1  0.69620645  0.08353711  0.60554077  1  0.073161  0  0.109155  0.115811  0  0.986385  0
H  H16  1  0.70171130  0.31626871  0.60467260  1  0.107009  0  0.117244  0.144029  0  0.97476  0
H  H17  1  0.80966023  0.18992299  0.38598208  1  0.09283  0  0.117262  0.144318  0  0.973695  0
H  H18  1  0.86970102  0.48215331  0.25564754  1  0.136738  0  0.113727  0.122824  0  0.985715  0
H  H19  1  0.81244458  0.42470062  0.38090858  1  0.072262  0  0.109079  0.115948  0  0.986128  0
H  H20  1  0.19937115  0.30243927  0.91065036  1  0.027758  0  0.091321  0.085592  0  0.980034  0
H  H21  1  0.12716274  0.23044294  0.98687934  1  0.056047  0  0.093183  0.092082  0  0.983236  0
H  H22  1  0.21664298  0.13886796  0.98406459  1  0.052918  0  0.092947  0.092053  0  0.98465  0
H  H23  1  0.28852237  0.21165341  0.90817525  1  -0.004351  0  0.091399  0.086071  0  0.978398  0
H  H24  1  0.21598505  0.12457469  0.09506621  1  0.061342  0  0.094095  0.095508  0  0.983834  0
H  H25  1  0.28801368  0.18574569  0.09906092  1  0.001724  0  0.089558  0.083645  0  0.979057  0
H  H26  1  0.12752946  0.21737705  0.09791903  1  0.070893  0  0.093602  0.095673  0  0.985771  0
H  H27  1  0.20096368  0.27860185  0.10040776  1  0.012761  0  0.089492  0.082958  0  0.980184  0
H  H28  1  0.30398650  0.39205711  0.91360255  1  0.042665  0  0.091641  0.09195  0  0.983986  0
H  H29  1  0.30452224  0.38355874  0.99073137  1  0.020462  0  0.089566  0.086028  0  0.980843  0
H  H30  1  0.39285725  0.29090720  0.99008683  1  0.04196  0  0.08951  0.086913  0  0.983864  0
H  H31  1  0.39349954  0.30068342  0.91234337  1  0.018233  0  0.091444  0.091494  0  0.981736  0
H  H32  1  0.89049354  0.80016007  0.90525521  1  0.028422  0  0.090473  0.084421  0  0.980167  0
H  H33  1  0.88747068  0.78728109  0.98499006  1  0.030192  0  0.092001  0.090593  0  0.984109  0
H  H34  1  0.79810588  0.87910633  0.98666629  1  0.040902  0  0.092891  0.092059  0  0.983665  0
H  H35  1  0.80150466  0.89117316  0.90702835  1  0.019424  0  0.091089  0.086109  0  0.978721  0
H  H36  1  0.69443726  0.77536663  0.09189052  1  0.049408  0  0.092551  0.093189  0  0.986277  0
H  H37  1  0.62232945  0.71365572  0.08848135  1  0.02669  0  0.089414  0.083595  0  0.979369  0
H  H38  1  0.78231611  0.68200136  0.09063911  1  0.052312  0  0.092989  0.094439  0  0.988853  0
H  H39  1  0.71041340  0.62192334  0.08551218  1  5.4e-05  0  0.089418  0.083188  0  0.979268  0
H  H40  1  0.78921704  0.71249694  0.89743895  1  0.051949  0  0.090038  0.088655  0  0.985316  0
H  H41  1  0.71605938  0.63901166  0.97063473  1  0.039295  0  0.089863  0.08699  0  0.980791  0
H  H42  1  0.62611134  0.72994222  0.97365428  1  0.017923  0  0.089597  0.086668  0  0.982074  0
H  H43  1  0.69884718  0.80299249  0.90001347  1  0.038875  0  0.089725  0.088459  0  0.986934  0
H  H44  1  0.16158853  0.79264981  0.93786233  1  0.007171  0  0.090624  0.084704  0  0.980062  0
H  H45  1  0.24551564  0.75593201  0.89731586  1  0.049961  0  0.094131  0.094381  0  0.98233  0
H  H46  1  0.33382665  0.85210236  0.89365772  1  0.038826  0  0.093035  0.092261  0  0.984168  0
H  H47  1  0.24940847  0.88759577  0.93507280  1  0.027452  0  0.091497  0.085966  0  0.978403  0
H  H48  1  0.39407372  0.74381816  0.96039915  1  0.047285  0  0.092808  0.093979  0  0.986439  0
H  H49  1  0.35336714  0.70320371  0.04904258  1  0.001766  0  0.089282  0.082931  0  0.981231  0
H  H50  1  0.30464327  0.64742292  0.96490430  1  0.027709  0  0.093787  0.095769  0  0.985619  0
H  H51  1  0.26391208  0.60817187  0.05350300  1  0.01702  0  0.089332  0.083432  0  0.980207  0
H  H52  1  0.10151435  0.73548293  0.06564718  1  0.028675  0  0.090397  0.089385  0  0.985222  0
H  H53  1  0.14282567  0.65979193  0.11283309  1  0.036344  0  0.089077  0.085564  0  0.981605  0
H  H54  1  0.23263274  0.75458642  0.10927424  1  0.033709  0  0.090126  0.087744  0  0.982187  0
H  H55  1  0.19066005  0.83017369  0.06280927  1  0.018045  0  0.090936  0.090262  0  0.983307  0
H  H56  1  0.89891925  0.26873945  0.92884354  1  0.017574  0  0.091493  0.086943  0  0.98025  0
H  H57  1  0.85374629  0.34368059  0.88377963  1  0.029124  0  0.092948  0.091126  0  0.980422  0
H  H58  1  0.76802841  0.24627984  0.88640863  1  0.049358  0  0.093719  0.093818  0  0.982147  0
H  H59  1  0.81219230  0.17185305  0.93294199  1  0.022809  0  0.090785  0.084703  0  0.979407  0
H  H60  1  0.64780454  0.29628750  0.94591454  1  0.037243  0  0.093594  0.095654  0  0.985507  0
H  H61  1  0.60508406  0.25581201  0.03449799  1  0.016133  0  0.089226  0.083164  0  0.980254  0
H  H62  1  0.73444938  0.39224023  0.94470641  1  0.052156  0  0.092008  0.092477  0  0.987253  0
H  H63  1  0.69205247  0.35024996  0.03329274  1  0.014011  0  0.089052  0.08336  0  0.980281  0
H  H64  1  0.83915083  0.20719419  0.05643957  1  0.015773  0  0.091805  0.093775  0  0.985841  0
H  H65  1  0.75594875  0.24096007  0.09973320  1  -0.000351  0  0.089982  0.087004  0  0.978428  0
H  H66  1  0.66632793  0.14724634  0.10198066  1  0.018653  0  0.089064  0.085659  0  0.982334  0
H  H67  1  0.74974128  0.11154122  0.06093492  1  0.034194  0  0.090161  0.089047  0  0.985168  0
C  C68  1  0.14066647  0.63442522  0.00464792  1  1.549983  0  0.233985  0.60163  0  4.102101  0
C  C69  1  0.90765851  0.40897948  0.17518520  1  1.595988  0  0.22409  0.616846  0  4.178992  0
C  C70  1  0.14567985  0.36451185  0.00058840  1  1.533572  0  0.233977  0.600697  0  4.103926  0
C  C71  1  0.86046603  0.36729607  0.98870546  1  1.544058  0  0.23282  0.60078  0  4.097847  0
C  C72  1  0.09293581  0.59249959  0.81352173  1  1.502921  0  0.223828  0.616925  0  4.177203  0
C  C73  1  0.86121693  0.64319566  0.98885150  1  1.537291  0  0.234132  0.603822  0  4.099553  0
C  C74  1  0.36163019  0.14294519  0.99647121  1  1.541188  0  0.233819  0.600543  0  4.095185  0
C  C75  1  0.58278981  0.09500454  0.81244396  1  1.569324  0  0.224054  0.616464  0  4.17886  0
C  C76  1  0.35685134  0.86373867  0.99705716  1  1.561224  0  0.235154  0.603141  0  4.097227  0
C  C77  1  0.64347437  0.86431133  0.99257330  1  1.552576  0  0.236608  0.606865  0  4.090419  0
C  C78  1  0.41794412  0.91422135  0.17440469  1  1.573726  0  0.224037  0.617631  0  4.173107  0
C  C79  1  0.64676574  0.13837517  0.99288549  1  1.565599  0  0.235345  0.604279  0  4.092882  0
C  C80  1  0.37947335  0.87541328  0.24945754  1  0.079441  0  -0.024827  -0.153691  0  3.949601  0
C  C81  1  0.42862714  0.85650177  0.28755811  1  0.057394  0  -0.075266  -0.061155  0  3.992864  0
C  C82  1  0.39589062  0.82160976  0.35722956  1  -0.08259  0  -0.08762  -0.14999  0  3.9544  0
C  C83  1  0.31055137  0.80340957  0.39234291  1  0.139257  0  0.008322  0.175726  0  4.118459  0
C  C84  1  0.26027904  0.82118374  0.35520669  1  0.057678  0  -0.092745  -0.26061  0  3.932532  0
C  C85  1  0.29478106  0.85632938  0.28558301  1  0.400503  0  0.111268  0.292583  0  4.043572  0
C  C86  1  0.27496340  0.76781701  0.46344637  1  -0.335509  0  -0.038205  -0.100563  0  4.090301  0
C  C87  1  0.24235939  0.73726459  0.52468681  1  -0.052524  0  -0.037746  -0.097535  0  4.087326  0
C  C88  1  0.20561319  0.70186918  0.59574047  1  0.06873  0  0.008039  0.174706  0  4.116864  0
C  C89  1  0.25445780  0.68315048  0.63408480  1  -0.035565  0  -0.092088  -0.258697  0  3.931433  0
C  C90  1  0.21844015  0.64830694  0.70368348  1  0.5035  0  0.111272  0.291587  0  4.042918  0
C  C91  1  0.13349496  0.63030138  0.73859400  1  0.094095  0  -0.024663  -0.153519  0  3.951602  0
C  C92  1  0.08580299  0.64962917  0.69925342  1  0.025993  0  -0.076374  -0.061239  0  3.993591  0
C  C93  1  0.12005980  0.68453125  0.62962217  1  -0.06529  0  -0.088073  -0.151814  0  3.957183  0
C  C94  1  0.62407944  0.13462430  0.73779756  1  0.058143  0  -0.024318  -0.154126  0  3.955674  0
C  C95  1  0.64349563  0.08787306  0.70164537  1  -0.115028  0  -0.075487  -0.060445  0  3.994198  0
C  C96  1  0.68220849  0.12098550  0.63237060  1  0.061025  0  -0.087398  -0.149425  0  3.961259  0
C  C97  1  0.70374006  0.20416659  0.59585784  1  0.144579  0  0.008775  0.176009  0  4.123583  0
C  C98  1  0.68564057  0.25204109  0.63102690  1  0.092849  0  -0.091864  -0.259818  0  3.929718  0
C  C99  1  0.64647750  0.21717534  0.70039221  1  0.383429  0  0.111691  0.294323  0  4.040639  0
C  C100  1  0.74180637  0.23919429  0.52501299  1  -0.370533  0  -0.03856  -0.100747  0  4.099386  0
C  C101  1  0.77294249  0.26913180  0.46374523  1  -0.007419  0  -0.037435  -0.098156  0  4.097059  0
C  C102  1  0.80681836  0.30319649  0.39274268  1  0.121553  0  0.008671  0.176167  0  4.122843  0
C  C103  1  0.82250357  0.25417542  0.35859922  1  0.03303  0  -0.092396  -0.260527  0  3.930711  0
C  C104  1  0.85432178  0.28787776  0.28894287  1  0.450087  0  0.111566  0.293151  0  4.045021  0
C  C105  1  0.87218189  0.37036940  0.25017917  1  -0.023476  0  -0.023974  -0.152941  0  3.954339  0
C  C106  1  0.85604878  0.41823866  0.28539182  1  -0.054032  0  -0.076382  -0.063317  0  3.996527  0
C  C107  1  0.82431256  0.38631156  0.35491558  1  -0.005315  0  -0.087385  -0.149198  0  3.960183  0
C  C108  1  0.19076309  0.26014915  0.96195511  1  -0.05657  0  -0.154853  -0.168909  0  3.850426  0
C  C109  1  0.25004029  0.19946567  0.96031041  1  -0.016202  0  -0.155432  -0.169134  0  3.852129  0
C  C110  1  0.30499748  0.20384833  0.99784431  1  0.053029  0  -0.015817  0.021543  0  3.813557  0
C  C111  1  0.24975139  0.18498719  0.07114448  1  -0.031097  0  -0.157473  -0.172373  0  3.860017  0
C  C112  1  0.19128590  0.24640367  0.07248697  1  -0.051102  0  -0.157988  -0.170393  0  3.859838  0
C  C113  1  0.20570984  0.30645370  0.00017694  1  0.052915  0  -0.016467  0.020503  0  3.813541  0
C  C114  1  0.29421252  0.34900873  0.96478996  1  -0.019366  0  -0.164797  -0.177243  0  3.889842  0
C  C115  1  0.35304562  0.28814110  0.96395982  1  -0.014142  0  -0.164752  -0.177805  0  3.889432  0
C  C116  1  0.84934432  0.78608880  0.95716200  1  -0.035361  0  -0.15453  -0.166554  0  3.847201  0
C  C117  1  0.78997305  0.84689254  0.95834807  1  -0.012387  0  -0.155991  -0.171804  0  3.851453  0
C  C118  1  0.70104073  0.80382751  0.99124850  1  0.037645  0  -0.016859  0.022141  0  3.807129  0
C  C119  1  0.68602430  0.74337388  0.06354383  1  -0.041898  0  -0.159484  -0.173965  0  3.865689  0
C  C120  1  0.74469546  0.68220956  0.06216592  1  -0.020412  0  -0.159075  -0.171588  0  3.86082  0
C  C121  1  0.80108563  0.70141447  0.98904499  1  0.038378  0  -0.016804  0.019737  0  3.812167  0
C  C122  1  0.74912462  0.69937884  0.94929019  1  -0.042154  0  -0.16469  -0.176476  0  3.889146  0
C  C123  1  0.68956424  0.75962983  0.95100064  1  -0.034045  0  -0.164594  -0.176191  0  3.88532  0
C  C124  1  0.21833820  0.77072832  0.94025707  1  -0.018142  0  -0.15505  -0.170125  0  3.852419  0
C  C125  1  0.27699859  0.83409973  0.93806948  1  -0.033979  0  -0.155244  -0.167946  0  3.8538  0
C  C126  1  0.29734517  0.80081038  0.00183021  1  0.027837  0  -0.016904  0.021658  0  3.810788  0
C  C127  1  0.33710215  0.72646741  0.00457472  1  -0.014969  0  -0.15888  -0.173737  0  3.86092  0
C  C128  1  0.27779899  0.66303317  0.00737505  1  -0.01232  0  -0.158188  -0.172181  0  3.861202  0
C  C129  1  0.19778903  0.69420196  0.00589834  1  0.043058  0  -0.016988  0.02034  0  3.812711  0
C  C130  1  0.15892928  0.71426829  0.06619234  1  -0.028161  0  -0.164264  -0.17532  0  3.885284  0
C  C131  1  0.21812897  0.77714640  0.06400593  1  -0.000384  0  -0.164359  -0.177702  0  3.885503  0
C  C132  1  0.84050641  0.28846487  0.92939544  1  -0.026056  0  -0.154453  -0.170138  0  3.850276  0
C  C133  1  0.78293211  0.22418209  0.93143531  1  -0.042296  0  -0.155036  -0.167761  0  3.849012  0
C  C134  1  0.70302453  0.19885429  0.99420380  1  0.041149  0  -0.017416  0.019271  0  3.814818  0
C  C135  1  0.66288338  0.27322625  0.99082760  1  -0.01759  0  -0.157744  -0.172384  0  3.854389  0
C  C136  1  0.72066824  0.33648880  0.98983777  1  -0.027011  0  -0.159515  -0.172571  0  3.867841  0
C  C137  1  0.80066004  0.30596295  0.99166325  1  0.045321  0  -0.016227  0.021435  0  3.808512  0
C  C138  1  0.78192132  0.22838669  0.05539917  1  0.020473  0  -0.165216  -0.178659  0  3.882184  0
C  C139  1  0.72310688  0.16549584  0.05742234  1  -0.018518  0  -0.164944  -0.176846  0  3.896356  0
O  O140  1  0.00050949  0.50348360  0.99315496  1  -1.238143  0  -0.572917  -1.027378  0  2.544692  0
O  O141  1  0.17072430  0.60782067  0.96043095  1  -1.177608  0  -0.315617  -0.549985  0  2.347616  0
O  O142  1  0.91620011  0.48458878  0.14761825  1  -1.178102  0  -0.316455  -0.546977  0  2.328813  0
O  O143  1  0.07112120  0.33473420  0.03739165  1  -1.177926  0  -0.315549  -0.54742  0  2.354405  0
O  O144  1  0.06716372  0.61681711  0.04636566  1  -1.184364  0  -0.313859  -0.547002  0  2.358863  0
O  O145  1  0.17347537  0.43788191  0.96343209  1  -1.177369  0  -0.312085  -0.545439  0  2.358724  0
O  O146  1  0.92689639  0.36428247  0.14489364  1  -1.155777  0  -0.312808  -0.538952  0  2.365355  0
O  O147  1  0.90117612  0.34067784  0.02570269  1  -1.173319  0  -0.312973  -0.546331  0  2.385435  0
O  O148  1  0.01512091  0.58044628  0.83807373  1  -1.133791  0  -0.316905  -0.549715  0  2.314238  0
O  O149  1  0.86694988  0.43978957  0.94882203  1  -1.178761  0  -0.316039  -0.550944  0  2.319816  0
O  O150  1  0.13898483  0.57542924  0.84650170  1  -1.151404  0  -0.313286  -0.540184  0  2.373343  0
O  O151  1  0.89930969  0.63408512  0.02781265  1  -1.180261  0  -0.318974  -0.555627  0  2.360089  0
O  O152  1  0.86961653  0.60882856  0.95017545  1  -1.174616  0  -0.312449  -0.54654  0  2.342452  0
O  O153  1  0.50229380  0.00164095  0.99447151  1  -1.23863  0  -0.574112  -1.028539  0  2.54693  0
O  O154  1  0.32888407  0.07001416  0.02689555  1  -1.174936  0  -0.315714  -0.549538  0  2.333163  0
O  O155  1  0.55709935  0.13866637  0.84295573  1  -1.166862  0  -0.315034  -0.542299  0  2.363049  0
O  O156  1  0.42748577  0.88189618  0.95048217  1  -1.18492  0  -0.318976  -0.555961  0  2.347671  0
O  O157  1  0.43761174  0.16902505  0.96484393  1  -1.181893  0  -0.312497  -0.543837  0  2.366154  0
O  O158  1  0.33190541  0.89392988  0.03909421  1  -1.184008  0  -0.311222  -0.542195  0  2.357674  0
O  O159  1  0.57652252  0.01953662  0.83972572  1  -1.169612  0  -0.315591  -0.545202  0  2.324141  0
O  O160  1  0.60299992  0.87609938  0.95523317  1  -1.190184  0  -0.314846  -0.54883  0  2.372316  0
O  O161  1  0.49493871  0.91799016  0.14799736  1  -1.166321  0  -0.315908  -0.546855  0  2.303419  0
O  O162  1  0.64042552  0.89869397  0.03068788  1  -1.167023  0  -0.318591  -0.556605  0  2.323513  0
O  O163  1  0.37106520  0.94079254  0.14312710  1  -1.165373  0  -0.315244  -0.544298  0  2.368646  0
O  O164  1  0.62137019  0.16378453  0.94483089  1  -1.184998  0  -0.318987  -0.552778  0  2.353499  0
O  O165  1  0.62969490  0.06770198  0.03863030  1  -1.18324  0  -0.313125  -0.54882  0  2.3384  0
F  F166  1  0.24208509  0.87052881  0.25379394  1  -0.61853  0  -0.099148  -0.13572  0  1.347901  0
F  F167  1  0.26995177  0.63242301  0.73658310  1  -0.617038  0  -0.099133  -0.135586  0  1.348437  0
F  F168  1  0.63144156  0.26699520  0.73074928  1  -0.625704  0  -0.09954  -0.136864  0  1.34278  0
F  F169  1  0.86695800  0.23686312  0.25976813  1  -0.617686  0  -0.09908  -0.136134  0  1.346549  0
