# generated using pymatgen
data_NiH10C12(NO2)2
_symmetry_space_group_name_H-M   'P 1'
_cell_length_a   7.91194072
_cell_length_b   7.91193611
_cell_length_c   10.41169597
_cell_angle_alpha   112.33966969
_cell_angle_beta   112.33962975
_cell_angle_gamma   90.00071191
_symmetry_Int_Tables_number   1
_chemical_formula_structural   NiH10C12(NO2)2
_chemical_formula_sum   'Ni2 H20 C24 N4 O8'
_cell_volume   549.58811747
_cell_formula_units_Z   2
loop_
 _symmetry_equiv_pos_site_id
 _symmetry_equiv_pos_as_xyz
  1  'x, y, z'
loop_
 _atom_site_type_symbol
 _atom_site_label
 _atom_site_symmetry_multiplicity
 _atom_site_fract_x
 _atom_site_fract_y
 _atom_site_fract_z
 _atom_site_occupancy
 _atom_site_hle17_ddec_charge
 _atom_site_hle17_ddec_spin_density
 _atom_site_hle17_ddec_sum_bond_order
 _atom_site_hle17_magmom
 _atom_site_hse06_10hf_ddec_charge
 _atom_site_hse06_10hf_ddec_spin_density
 _atom_site_hse06_10hf_ddec_sum_bond_order
 _atom_site_hse06_10hf_magmom
 _atom_site_hse06_ddec_charge
 _atom_site_hse06_ddec_spin_density
 _atom_site_hse06_ddec_sum_bond_order
 _atom_site_hse06_magmom
 _atom_site_pbe_cm5_charge
 _atom_site_pbe_ddec_charge
 _atom_site_pbe_ddec_spin_density
 _atom_site_pbe_ddec_sum_bond_order
 _atom_site_pbe_magmom
Ni  Ni0  1  0.99997153  0.00002804  0.00000049  1  0.796008  -1.813069  1.950983  -1.491  0.797131  -1.849864  2.333221  -1.626  0.895601  -1.92069  2.259909  -1.72  0.620103  0.721998  -1.768368  2.388146  -1.529
Ni  Ni1  1  0.25002158  0.74997916  0.50000053  1  0.796625  1.812016  1.949347  1.49  0.798103  1.849473  2.330817  1.625  0.896807  1.920441  2.25706  1.72  0.620295  0.723539  1.768473  2.384914  1.529
H  H2  1  0.19629249  0.87510664  0.24999994  1  0.001027  8e-06  0.976938  0.0  0.004977  -5e-06  1.050997  0.0  0.003282  -6e-06  1.0497  0.0  0.105768  0.006588  -0.0  1.05163  0.0
H  H3  1  0.62497949  0.94627753  0.75002300  1  0.000819  7e-06  0.977174  0.0  0.004611  0.0  1.051396  0.0  0.00286  -0.0  1.050174  0.0  0.10571  0.006126  0.0  1.052153  0.0
H  H4  1  0.05372508  0.37502055  0.24997645  1  0.000826  7e-06  0.977187  0.0  0.004567  0.0  1.051469  0.0  0.002812  -0.0  1.050253  0.0  0.105717  0.006083  0.0  1.052227  0.0
H  H5  1  0.12489558  0.80370757  0.75000042  1  0.001029  7e-06  0.976924  0.0  0.004959  -5e-06  1.051007  0.0  0.003265  -6e-06  1.049709  0.0  0.105764  0.006566  -0.0  1.051653  0.0
H  H6  1  0.69347461  0.07669874  0.10135549  1  0.086831  -0.000626  0.975229  -0.002  0.094285  -0.000433  1.041066  -0.001  0.096862  -0.000302  1.038768  -0.001  0.11825  0.092266  -0.000551  1.043102  -0.001
H  H7  1  0.27485924  0.44360119  0.60146616  1  0.086568  0.000619  0.976131  0.002  0.094417  0.000428  1.04138  0.001  0.096987  0.0003  1.039118  0.001  0.118441  0.09243  0.00055  1.043304  0.001
H  H8  1  0.40785253  0.02482326  0.10144224  1  0.086285  -0.000629  0.975775  -0.002  0.093912  -0.000432  1.041447  -0.001  0.096467  -0.000301  1.039224  -0.001  0.118648  0.092006  -0.00055  1.043195  -0.001
H  H9  1  0.32670435  0.15781736  0.60135880  1  0.086788  0.000618  0.975065  0.002  0.094461  0.000427  1.040576  0.001  0.096975  0.000299  1.038417  0.001  0.118443  0.092477  0.00055  1.042459  0.001
H  H10  1  0.55639905  0.72514110  0.39853363  1  0.086566  0.000617  0.976137  0.002  0.094418  0.000428  1.041383  0.001  0.096988  0.0003  1.03912  0.001  0.118439  0.09243  0.00055  1.043309  0.001
H  H11  1  0.97517493  0.59214714  0.89855859  1  0.086249  -0.000627  0.975781  -0.002  0.093903  -0.000432  1.041425  -0.001  0.096456  -0.000301  1.039213  -0.001  0.118647  0.091998  -0.00055  1.043178  -0.001
H  H12  1  0.84218252  0.67329725  0.39864119  1  0.086764  0.000616  0.975083  0.002  0.094448  0.000427  1.040582  0.001  0.096962  0.000299  1.038424  0.001  0.118433  0.092465  0.00055  1.042465  0.001
H  H13  1  0.92330051  0.30652484  0.89864458  1  0.086834  -0.000627  0.975231  -0.002  0.094288  -0.000433  1.041074  -0.001  0.096864  -0.000302  1.038776  -0.001  0.118262  0.092268  -0.000551  1.043109  -0.001
H  H14  1  0.45442842  0.28785226  0.09728197  1  0.123817  -0.000339  0.971884  0.0  0.12947  -0.000337  1.038125  0.0  0.13465  -0.000218  1.034753  0.0  0.108684  0.125533  -0.000451  1.040887  0.0
H  H15  1  0.05960736  0.20448782  0.59740111  1  0.123201  0.000338  0.973274  0.0  0.129142  0.000337  1.039112  0.0  0.134305  0.000218  1.035754  0.0  0.109014  0.125165  0.00045  1.041853  0.0
H  H16  1  0.64282699  0.80954457  0.09734407  1  0.122934  -0.000338  0.973054  0.0  0.129605  -0.000337  1.038187  0.0  0.134771  -0.000219  1.034836  0.0  0.108882  0.125616  -0.000452  1.041025  0.0
H  H17  1  0.53794035  0.39282302  0.59733123  1  0.12387  0.000337  0.971609  0.0  0.129971  0.000334  1.037291  0.0  0.135138  0.000217  1.033905  0.0  0.109079  0.126042  0.00045  1.040068  0.0
H  H18  1  0.79551083  0.94039083  0.40259759  1  0.123203  0.000339  0.973275  0.0  0.129143  0.000337  1.039115  0.0  0.134306  0.000218  1.035758  0.0  0.109015  0.125165  0.00045  1.041859  0.0
H  H19  1  0.19045272  0.35716920  0.90265366  1  0.122937  -0.000338  0.973051  0.0  0.129624  -0.000337  1.038159  0.0  0.134797  -0.000219  1.034803  0.0  0.108882  0.125635  -0.000452  1.040998  0.0
H  H20  1  0.60717834  0.46205949  0.40266964  1  0.123845  0.000337  0.971661  0.0  0.129957  0.000334  1.037327  0.0  0.135125  0.000217  1.033941  0.0  0.109069  0.126028  0.00045  1.040105  0.0
H  H21  1  0.71214544  0.54556977  0.90271640  1  0.123848  -0.000338  0.971878  0.0  0.12949  -0.000337  1.038128  0.0  0.134672  -0.000218  1.034754  0.0  0.108677  0.12555  -0.000451  1.0409  0.0
C  C22  1  0.56576117  0.43423970  0.00000093  1  0.107576  0.007891  3.742015  0.009  0.120308  0.002751  3.965966  0.003  0.125364  0.002512  3.985189  0.003  0.015417  0.116232  0.003553  3.953903  0.004
C  C23  1  0.81590253  0.31578146  0.50002749  1  0.105811  -0.007816  3.742693  -0.009  0.119335  -0.002708  3.966267  -0.003  0.124366  -0.00249  3.985571  -0.003  0.015712  0.115313  -0.00356  3.954194  -0.004
C  C24  1  0.43412894  0.56586982  0.99999951  1  0.102713  0.008089  3.748983  0.009  0.116963  0.002851  3.971985  0.003  0.121986  0.002583  3.991279  0.003  0.014916  0.113148  0.00356  3.959716  0.004
C  C25  1  0.68421941  0.18409769  0.49997234  1  0.105745  -0.007815  3.742708  -0.009  0.119363  -0.002709  3.966204  -0.003  0.124396  -0.00249  3.985507  -0.003  0.015724  0.115339  -0.00356  3.954132  -0.004
C  C26  1  0.05694318  0.87505336  0.25002501  1  0.557302  1.8e-05  3.89772  0.0  0.4957  1.5e-05  4.217288  0.0  0.532998  0.0  4.213255  0.0  0.134075  0.469123  0.0  4.217873  0.0
C  C27  1  0.62502032  0.80692330  0.75003644  1  0.559359  -3e-06  3.896803  0.0  0.497972  7e-06  4.21612  0.0  0.535342  3e-06  4.212026  0.0  0.134941  0.471286  -2e-06  4.21697  0.0
C  C28  1  0.19307857  0.37497805  0.24996325  1  0.559342  -3e-06  3.896992  0.0  0.49798  6e-06  4.216324  0.0  0.535353  3e-06  4.212226  0.0  0.134894  0.471294  -3e-06  4.217176  0.0
C  C29  1  0.12494705  0.94305767  0.74997604  1  0.557275  2e-05  3.897704  0.0  0.49567  1.6e-05  4.217284  0.0  0.532969  0.0  4.213249  0.0  0.134065  0.469092  0.0  4.217869  0.0
C  C30  1  0.68728875  0.17926463  0.05456697  1  0.117756  0.007929  3.691187  0.01  0.08935  0.0018  3.947437  0.003  0.097768  0.002163  3.965232  0.003  0.043708  0.083098  0.00189  3.936411  0.003
C  C31  1  0.12549720  0.43735795  0.55470322  1  0.117127  -0.007863  3.690389  -0.01  0.088463  -0.001777  3.946955  -0.003  0.096838  -0.002142  3.964864  -0.003  0.04356  0.081864  -0.001888  3.93635  -0.003
C  C32  1  0.36722568  0.87547773  0.05460966  1  0.117488  0.008039  3.691702  0.01  0.088634  0.001841  3.948542  0.003  0.097028  0.002199  3.966395  0.003  0.043288  0.082122  0.001896  3.937784  0.003
C  C33  1  0.42929332  0.11722760  0.55460154  1  0.116097  -0.007819  3.691047  -0.01  0.087318  -0.001755  3.948054  -0.003  0.095686  -0.002132  3.965969  -0.003  0.042886  0.08063  -0.001892  3.93788  -0.003
C  C34  1  0.56264141  0.87450235  0.44529610  1  0.117169  -0.007856  3.690248  -0.01  0.088492  -0.001777  3.946842  -0.003  0.096868  -0.002142  3.964752  -0.003  0.043592  0.081897  -0.001888  3.936231  -0.003
C  C35  1  0.12452005  0.63277231  0.94538974  1  0.117582  0.008032  3.691702  0.01  0.088707  0.00184  3.948537  0.003  0.097094  0.002199  3.966395  0.003  0.043292  0.082199  0.001896  3.937772  0.003
C  C36  1  0.88277257  0.57070795  0.44539841  1  0.116102  -0.007812  3.691046  -0.01  0.08731  -0.001755  3.948047  -0.003  0.095677  -0.002132  3.965962  -0.003  0.042878  0.080623  -0.001892  3.937871  -0.003
C  C37  1  0.82073598  0.31271131  0.94543369  1  0.117791  0.007934  3.691238  0.01  0.089373  0.0018  3.947491  0.003  0.09779  0.002163  3.965285  0.003  0.043687  0.083121  0.00189  3.936465  0.003
C  C38  1  0.55792938  0.29792441  0.05357558  1  -0.153235  -0.007637  3.677328  -0.009  -0.169071  -0.002392  3.921193  -0.003  -0.176239  -0.002351  3.939098  -0.003  -0.078899  -0.164637  -0.002535  3.910555  -0.004
C  C39  1  0.00585425  0.30803860  0.55375141  1  -0.151165  0.007568  3.678841  0.009  -0.167741  0.00236  3.922564  0.003  -0.174942  0.002326  3.94059  0.003  -0.079225  -0.163083  0.002539  3.91166  0.004
C  C40  1  0.49559235  0.75581405  0.05366132  1  -0.150537  -0.007756  3.679693  -0.01  -0.167636  -0.002431  3.923067  -0.003  -0.174781  -0.002388  3.940973  -0.003  -0.078727  -0.163195  -0.002541  3.912306  -0.004
C  C41  1  0.54799820  0.24559151  0.55366079  1  -0.151846  0.007566  3.67677  0.009  -0.168416  0.002372  3.920886  0.003  -0.175581  0.002332  3.938841  0.003  -0.07897  -0.163937  0.002539  3.910278  0.004
C  C42  1  0.69196080  0.99414526  0.44624791  1  -0.151186  0.007563  3.678769  0.009  -0.167782  0.00236  3.922485  0.003  -0.174985  0.002326  3.940511  0.003  -0.079258  -0.163124  0.002539  3.911582  0.004
C  C43  1  0.24418282  0.50440484  0.94633659  1  -0.150557  -0.007755  3.679662  -0.01  -0.167669  -0.002431  3.923036  -0.003  -0.17482  -0.002389  3.940948  -0.003  -0.07871  -0.163228  -0.002541  3.912279  -0.004
C  C44  1  0.75440869  0.45200245  0.44633900  1  -0.151855  0.007567  3.676799  0.009  -0.168406  0.002372  3.92093  0.003  -0.175573  0.002333  3.938887  0.003  -0.07897  -0.163928  0.002539  3.910323  0.004
C  C45  1  0.70207586  0.44206881  0.94642449  1  -0.153288  -0.007642  3.677442  -0.009  -0.169104  -0.002392  3.921289  -0.003  -0.176273  -0.002351  3.939192  -0.003  -0.078879  -0.164671  -0.002535  3.91065  -0.004
N  N46  1  0.81590651  0.18409260  0.00000039  1  -0.300164  -0.051513  3.347138  -0.076  -0.253086  -0.032706  3.6312  -0.049  -0.281461  -0.027202  3.651743  -0.042  -0.333176  -0.233329  -0.036336  3.617698  -0.054
N  N47  1  0.06601170  0.56591246  0.50003249  1  -0.298411  0.051053  3.346311  0.075  -0.25129  0.03252  3.629998  0.049  -0.279864  0.027133  3.650698  0.042  -0.333027  -0.231726  0.036373  3.616549  0.054
N  N48  1  0.18399627  0.81600305  0.99999971  1  -0.298819  -0.05174  3.349151  -0.076  -0.250966  -0.032838  3.632085  -0.05  -0.279348  -0.027295  3.652711  -0.042  -0.332999  -0.231137  -0.036376  3.61853  -0.054
N  N49  1  0.43408717  0.93398760  0.49996687  1  -0.298438  0.051055  3.346254  0.075  -0.251331  0.03252  3.629968  0.049  -0.279906  0.027133  3.65067  0.042  -0.333061  -0.231768  0.036373  3.61652  0.054
O  O50  1  0.93940397  0.93752999  0.16406596  1  -0.557055  -0.047365  2.087027  -0.074  -0.527409  -0.030864  2.362204  -0.05  -0.567027  -0.023741  2.356018  -0.04  -0.307862  -0.495996  -0.036997  2.364539  -0.059
O  O51  1  0.47653015  0.68944545  0.66407378  1  -0.558036  0.04754  2.087462  0.074  -0.528897  0.030986  2.362793  0.051  -0.568596  0.023813  2.356335  0.04  -0.308438  -0.497649  0.036904  2.365138  0.059
O  O52  1  0.22450810  0.22642663  0.16399296  1  -0.557248  -0.047185  2.088116  -0.073  -0.527532  -0.030948  2.362764  -0.051  -0.567322  -0.023824  2.356497  -0.04  -0.308134  -0.49635  -0.036907  2.365135  -0.059
O  O53  1  0.18750311  0.97445351  0.66401048  1  -0.55745  0.047895  2.087785  0.075  -0.527776  0.031158  2.362821  0.051  -0.567355  0.023937  2.356549  0.04  -0.30801  -0.496253  0.036932  2.364885  0.059
O  O54  1  0.31055695  0.52346933  0.33592735  1  -0.558042  0.047543  2.087454  0.074  -0.52891  0.030987  2.362749  0.051  -0.568615  0.023813  2.3563  0.04  -0.30844  -0.497663  0.036905  2.365098  0.059
O  O55  1  0.77357485  0.77549219  0.83600715  1  -0.557281  -0.04719  2.087959  -0.073  -0.527588  -0.03095  2.362626  -0.051  -0.567382  -0.023825  2.356363  -0.04  -0.308181  -0.496404  -0.03691  2.364999  -0.059
O  O56  1  0.02554846  0.81250255  0.33599338  1  -0.557444  0.047896  2.087756  0.075  -0.527805  0.031159  2.362824  0.051  -0.567378  0.023938  2.356544  0.04  -0.308022  -0.496283  0.036933  2.364888  0.059
O  O57  1  0.06246999  0.06059540  0.83593441  1  -0.557057  -0.047363  2.087049  -0.074  -0.527406  -0.030863  2.362214  -0.05  -0.567025  -0.02374  2.35603  -0.04  -0.30787  -0.495993  -0.036996  2.36455  -0.059
