# generated using pymatgen
data_CdBH12C13(N4O)2
_symmetry_space_group_name_H-M   'P 1'
_cell_length_a   8.68446811
_cell_length_b   9.70940702
_cell_length_c   10.84391800
_cell_angle_alpha   95.63077775
_cell_angle_beta   96.69104814
_cell_angle_gamma   105.62436266
_symmetry_Int_Tables_number   1
_chemical_formula_structural   CdBH12C13(N4O)2
_chemical_formula_sum   'Cd2 B2 H24 C26 N16 O4'
_cell_volume   866.53214958
_cell_formula_units_Z   2
loop_
 _symmetry_equiv_pos_site_id
 _symmetry_equiv_pos_as_xyz
  1  'x, y, z'
loop_
 _atom_site_type_symbol
 _atom_site_label
 _atom_site_symmetry_multiplicity
 _atom_site_fract_x
 _atom_site_fract_y
 _atom_site_fract_z
 _atom_site_occupancy
 _atom_site_hle17_bader_spin_density
 _atom_site_hle17_ddec_charge
 _atom_site_hle17_ddec_spin_density
 _atom_site_hle17_ddec_sum_bond_order
 _atom_site_hle17_magmom
 _atom_site_hse06_10hf_bader_spin_density
 _atom_site_hse06_10hf_ddec_charge
 _atom_site_hse06_10hf_ddec_spin_density
 _atom_site_hse06_10hf_ddec_sum_bond_order
 _atom_site_hse06_10hf_magmom
 _atom_site_hse06_bader_spin_density
 _atom_site_hse06_ddec_charge
 _atom_site_hse06_ddec_spin_density
 _atom_site_hse06_ddec_sum_bond_order
 _atom_site_hse06_magmom
 _atom_site_pbe_bader_spin_density
 _atom_site_pbe_cm5_charge
 _atom_site_pbe_ddec_charge
 _atom_site_pbe_ddec_spin_density
 _atom_site_pbe_ddec_sum_bond_order
 _atom_site_pbe_magmom
Cd  Cd0  1  0.72750653  0.21871508  0.69278577  1  0  1.030285  0  1.863898  0  0  0.8336  0  2.318798  0  0  0.883105  0  2.27641  0  0  0.776188  0.798449  0  2.347459  0
Cd  Cd1  1  0.27250804  0.78128119  0.30722100  1  0  1.030428  0  1.863817  0  0  0.833758  0  2.318725  0  0  0.883264  0  2.276335  0  0  0.776199  0.798599  0  2.347388  0
B  B2  1  0.35748740  0.61970603  0.80479148  1  0  0.713445  0  3.006073  0  0  0.54594  0  3.318624  0  0  0.568463  0  3.31858  0  0  0.110377  0.529846  0  3.320304  0
B  B3  1  0.64251188  0.38028664  0.19521332  1  0  0.713421  0  3.005973  0  0  0.546005  0  3.318543  0  0  0.568517  0  3.318521  0  0  0.110442  0.529917  0  3.320214  0
H  H4  1  0.03467426  0.20448179  0.94972501  1  0  0.095208  0  0.946155  0  0  0.108428  0  0.998977  0  0  0.11095  0  0.997946  0  0  0.115054  0.106423  0  1.000135  0
H  H5  1  0.96533910  0.79549530  0.05026387  1  0  0.095187  0  0.946081  0  0  0.108426  0  0.998876  0  0  0.110945  0  0.997849  0  0  0.115019  0.106421  0  1.000035  0
H  H6  1  0.31672426  0.43111297  0.00101035  1  0  0.106426  0  0.973814  0  0  0.111981  0  1.042799  0  0  0.114601  0  1.041947  0  0  0.117633  0.110028  0  1.043566  0
H  H7  1  0.68328530  0.56888241  0.99899765  1  0  0.106493  0  0.973754  0  0  0.112027  0  1.042789  0  0  0.114646  0  1.041936  0  0  0.117643  0.110061  0  1.043573  0
H  H8  1  0.05679599  0.45200563  0.65166178  1  0  0.084782  0  0.960599  0  0  0.089926  0  1.031987  0  0  0.092217  0  1.029525  0  0  0.131849  0.08823  0  1.033719  0
H  H9  1  0.94321411  0.54798516  0.34835039  1  0  0.084704  0  0.960383  0  0  0.089831  0  1.031802  0  0  0.092119  0  1.029347  0  0  0.131816  0.088136  0  1.033528  0
H  H10  1  0.15907434  0.81758834  0.79872940  1  0  0.09936  0  0.959206  0  0  0.111409  0  1.016823  0  0  0.114218  0  1.015382  0  0  0.119628  0.109458  0  1.0179  0
H  H11  1  0.84090797  0.18241435  0.20126458  1  0  0.099387  0  0.959278  0  0  0.111386  0  1.016935  0  0  0.114195  0  1.015496  0  0  0.119656  0.109437  0  1.018011  0
H  H12  1  0.36198204  0.59337998  0.53800585  1  0  0.093982  0  0.935726  0  0  0.103228  0  0.997926  0  0  0.10564  0  0.995654  0  0  0.136338  0.101593  0  0.999307  0
H  H13  1  0.63800405  0.40660237  0.46199739  1  0  0.094001  0  0.93561  0  0  0.10328  0  0.99776  0  0  0.10569  0  0.995491  0  0  0.136343  0.101641  0  0.999147  0
H  H14  1  0.44883460  0.35502592  0.79085981  1  0  0.086814  0  0.962345  0  0  0.094537  0  1.02955  0  0  0.096734  0  1.027316  0  0  0.130708  0.093094  0  1.030823  0
H  H15  1  0.55118536  0.64498130  0.20914133  1  0  0.086776  0  0.962189  0  0  0.094493  0  1.029422  0  0  0.096692  0  1.027187  0  0  0.130657  0.093046  0  1.030701  0
H  H16  1  0.65273388  0.83329273  0.93931513  1  0  0.101609  0  0.961479  0  0  0.114083  0  1.019297  0  0  0.116436  0  1.018394  0  0  0.120128  0.11229  0  1.020137  0
H  H17  1  0.34724962  0.16671316  0.06068025  1  0  0.101545  0  0.961441  0  0  0.114008  0  1.019261  0  0  0.116363  0  1.018356  0  0  0.120078  0.112214  0  1.020099  0
H  H18  1  0.05104363  0.85847614  0.55734165  1  0  0.112783  0  0.927481  0  0  0.12643  0  0.976804  0  0  0.129469  0  0.975055  0  0  0.12484  0.124188  0  0.978249  0
H  H19  1  0.94896383  0.14152799  0.44263849  1  0  0.11276  0  0.927611  0  0  0.12647  0  0.976864  0  0  0.129507  0  0.975119  0  0  0.124864  0.124228  0  0.978307  0
H  H20  1  0.64766412  0.77968985  0.70911146  1  0  0.125814  0  0.963641  0  0  0.133423  0  1.025566  0  0  0.1372  0  1.022754  0  0  0.120841  0.130729  0  1.027673  0
H  H21  1  0.35233613  0.22030836  0.29089127  1  0  0.125697  0  0.963623  0  0  0.133362  0  1.025501  0  0  0.137142  0  1.022687  0  0  0.120824  0.13067  0  1.027607  0
H  H22  1  0.16961546  0.66214886  0.99732973  1  0  0.077241  0  0.964343  0  0  0.084195  0  1.034406  0  0  0.086356  0  1.032408  0  0  0.128476  0.082652  0  1.035787  0
H  H23  1  0.83037415  0.33783663  0.00267329  1  0  0.077154  0  0.964103  0  0  0.084135  0  1.034158  0  0  0.086299  0  1.032152  0  0  0.128423  0.082588  0  1.035536  0
H  H24  1  0.85767386  0.61716544  0.66907821  1  0  0.084904  0  0.99182  0  0  0.090335  0  1.062604  0  0  0.092125  0  1.063047  0  0  0.104079  0.089059  0  1.062394  0
H  H25  1  0.14232533  0.38285093  0.33091069  1  0  0.084867  0  0.991714  0  0  0.090309  0  1.062492  0  0  0.092098  0  1.062935  0  0  0.104078  0.089031  0  1.062285  0
H  H26  1  0.60925861  0.95541434  0.17150673  1  0  0.101859  0  0.955981  0  0  0.110169  0  1.018056  0  0  0.112477  0  1.017601  0  0  0.113843  0.108656  0  1.018144  0
H  H27  1  0.39072701  0.04458485  0.82848814  1  0  0.101825  0  0.956171  0  0  0.110138  0  1.018243  0  0  0.112445  0  1.017789  0  0  0.113849  0.108625  0  1.018331  0
C  C28  1  0.08115879  0.28982054  0.89480754  1  0  -0.015694  0  3.783519  0  0  -0.04475  0  4.044049  0  0  -0.043667  0  4.064802  0  0  -0.011415  -0.045615  0  4.030116  0
C  C29  1  0.91885333  0.71017244  0.10520231  1  0  -0.01567  0  3.78366  0  0  -0.044723  0  4.044126  0  0  -0.043638  0  4.064877  0  0  -0.011368  -0.045589  0  4.030195  0
C  C30  1  0.22177687  0.40123093  0.92098069  1  0  -0.030034  0  3.717751  0  0  -0.069144  0  3.982421  0  0  -0.067142  0  4.002159  0  0  9.8e-05  -0.070303  0  3.969132  0
C  C31  1  0.77822250  0.59877461  0.07903474  1  0  -0.03012  0  3.717674  0  0  -0.069175  0  3.982341  0  0  -0.067168  0  4.002071  0  0  0.000182  -0.070324  0  3.969065  0
C  C32  1  0.08865016  0.41473998  0.73944666  1  0  0.215364  0  3.67213  0  0  0.156241  0  3.935713  0  0  0.170842  0  3.94799  0  0  0.145129  0.146701  0  3.927211  0
C  C33  1  0.91134229  0.58526843  0.26055914  1  0  0.215401  0  3.672273  0  0  0.156359  0  3.935902  0  0  0.17096  0  3.948182  0  0  0.145246  0.146821  0  3.927398  0
C  C34  1  0.18428457  0.77744908  0.70876260  1  0  -0.038072  0  3.720324  0  0  -0.07522  0  3.97957  0  0  -0.073716  0  3.99853  0  0  -0.001086  -0.076255  0  3.966796  0
C  C35  1  0.81570377  0.22254793  0.29122770  1  0  -0.038073  0  3.720471  0  0  -0.075176  0  3.979725  0  0  -0.073673  0  3.998683  0  0  -0.001144  -0.076213  0  3.966951  0
C  C36  1  0.28945077  0.65829027  0.57468105  1  0  0.209849  0  3.673652  0  0  0.149818  0  3.943448  0  0  0.164106  0  3.955605  0  0  0.144051  0.140601  0  3.934713  0
C  C37  1  0.71054314  0.34169409  0.42531675  1  0  0.209864  0  3.674075  0  0  0.149812  0  3.943814  0  0  0.164102  0  3.955966  0  0  0.144028  0.140596  0  3.935077  0
C  C38  1  0.53452286  0.44844695  0.76662585  1  0  0.209466  0  3.67152  0  0  0.150945  0  3.937726  0  0  0.166037  0  3.94831  0  0  0.138934  0.141361  0  3.929703  0
C  C39  1  0.46548616  0.55155617  0.23338201  1  0  0.209476  0  3.671497  0  0  0.151009  0  3.937719  0  0  0.166101  0  3.948304  0  0  0.138963  0.141427  0  3.929693  0
C  C40  1  0.54694240  0.81647679  0.98604248  1  0  -0.021398  0  3.695803  0  0  -0.062434  0  3.958691  0  0  -0.060459  0  3.977697  0  0  0.002057  -0.063493  0  3.945462  0
C  C41  1  0.45303590  0.18354278  0.01394738  1  0  -0.021412  0  3.695967  0  0  -0.062381  0  3.958788  0  0  -0.060414  0  3.97781  0  0  0.002118  -0.063436  0  3.945555  0
C  C42  1  0.56008310  0.95113243  0.50518459  1  0  0.52151  0  3.932115  0  0  0.477577  0  4.230253  0  0  0.506714  0  4.226205  0  0  0.181689  0.457768  0  4.232306  0
C  C43  1  0.43995113  0.04886059  0.49482478  1  0  0.521602  0  3.932089  0  0  0.477698  0  4.230199  0  0  0.50683  0  4.226156  0  0  0.181715  0.45789  0  4.232254  0
C  C44  1  0.13027749  0.79539585  0.58870132  1  0  0.003626  0  3.750499  0  0  -0.024788  0  4.009974  0  0  -0.023041  0  4.029859  0  0  -0.00146  -0.025963  0  3.996592  0
C  C45  1  0.86972874  0.20459922  0.41128785  1  0  0.003648  0  3.750451  0  0  -0.024823  0  4.00994  0  0  -0.023081  0  4.029828  0  0  -0.001441  -0.025993  0  3.996557  0
C  C46  1  0.63994956  0.66941904  0.72525004  1  0  -0.037327  0  3.681092  0  0  -0.072826  0  3.934703  0  0  -0.071449  0  3.953032  0  0  -0.001471  -0.073605  0  3.9222  0
C  C47  1  0.36004265  0.33058850  0.27474918  1  0  -0.037205  0  3.681394  0  0  -0.072706  0  3.935029  0  0  -0.071325  0  3.953352  0  0  -0.001499  -0.073486  0  3.922519  0
C  C48  1  0.29392709  0.72908348  0.01288154  1  0  0.183549  0  3.721587  0  0  0.123594  0  3.994514  0  0  0.137205  0  4.007396  0  0  0.132903  0.114624  0  3.985493  0
C  C49  1  0.70605956  0.27090332  0.98711948  1  0  0.183575  0  3.721625  0  0  0.123607  0  3.99458  0  0  0.13722  0  4.007465  0  0  0.133027  0.114646  0  3.98555  0
C  C50  1  0.74241869  0.58643099  0.70335400  1  0  -0.015682  0  3.785389  0  0  -0.043446  0  4.048231  0  0  -0.042489  0  4.070193  0  0  -0.014923  -0.044197  0  4.033275  0
C  C51  1  0.25759384  0.41358107  0.29664505  1  0  -0.015626  0  3.785666  0  0  -0.043396  0  4.04851  0  0  -0.04244  0  4.070472  0  0  -0.014871  -0.044152  0  4.033568  0
C  C52  1  0.52372679  0.87753899  0.09974588  1  0  0.001553  0  3.752105  0  0  -0.029197  0  4.020119  0  0  -0.027759  0  4.040329  0  0  -0.006773  -0.029955  0  4.005903  0
C  C53  1  0.47624631  0.12248207  0.90023992  1  0  0.001475  0  3.752466  0  0  -0.029302  0  4.02049  0  0  -0.027866  0  4.040706  0  0  -0.006874  -0.030059  0  4.006273  0
N  N54  1  0.99845885  0.29957399  0.78061915  1  0  -0.38665  0  3.226419  0  0  -0.310252  0  3.503691  0  0  -0.329873  0  3.519292  0  0  -0.361831  -0.296871  0  3.492688  0
N  N55  1  0.00154172  0.70041937  0.21939601  1  0  -0.386739  0  3.226789  0  0  -0.310354  0  3.504051  0  0  -0.329973  0  3.519644  0  0  -0.361975  -0.296975  0  3.493052  0
N  N56  1  0.22580976  0.48094003  0.82140815  1  0  -0.327286  0  3.495215  0  0  -0.224865  0  3.724415  0  0  -0.243438  0  3.746187  0  0  -0.230358  -0.212497  0  3.709746  0
N  N57  1  0.77419483  0.51905767  0.17860328  1  0  -0.327181  0  3.495241  0  0  -0.224929  0  3.724583  0  0  -0.243502  0  3.746359  0  0  -0.230479  -0.212564  0  3.709906  0
N  N58  1  0.28678228  0.69057661  0.69932079  1  0  -0.327947  0  3.510189  0  0  -0.22795  0  3.745098  0  0  -0.246255  0  3.767022  0  0  -0.233992  -0.215522  0  3.730131  0
N  N59  1  0.71321032  0.30941981  0.30068096  1  0  -0.328031  0  3.510456  0  0  -0.228013  0  3.745325  0  0  -0.246308  0  3.767223  0  0  -0.234009  -0.215584  0  3.730355  0
N  N60  1  0.39989104  0.72087107  0.93113925  1  0  -0.323985  0  3.489237  0  0  -0.222803  0  3.723591  0  0  -0.240575  0  3.744719  0  0  -0.231371  -0.210851  0  3.709226  0
N  N61  1  0.60010277  0.27912537  0.06885986  1  0  -0.32396  0  3.489284  0  0  -0.222843  0  3.723686  0  0  -0.240614  0  3.744813  0  0  -0.231478  -0.210898  0  3.709329  0
N  N62  1  0.50725798  0.58031071  0.76656670  1  0  -0.335949  0  3.501474  0  0  -0.233792  0  3.735583  0  0  -0.251836  0  3.7562  0  0  -0.234284  -0.221518  0  3.721228  0
N  N63  1  0.49273695  0.41968564  0.23343344  1  0  -0.335818  0  3.501572  0  0  -0.233815  0  3.735835  0  0  -0.251856  0  3.756454  0  0  -0.234227  -0.221541  0  3.721473  0
N  N64  1  0.19673613  0.71955496  0.50530316  1  0  -0.401776  0  3.21006  0  0  -0.33029  0  3.4874  0  0  -0.35023  0  3.505582  0  0  -0.35966  -0.31665  0  3.474714  0
N  N65  1  0.80326129  0.28043834  0.49468583  1  0  -0.401752  0  3.210322  0  0  -0.33029  0  3.487673  0  0  -0.350231  0  3.50586  0  0  -0.35962  -0.31665  0  3.474984  0
N  N66  1  0.67527295  0.44841669  0.72977658  1  0  -0.395532  0  3.224635  0  0  -0.325038  0  3.503238  0  0  -0.344798  0  3.521302  0  0  -0.360232  -0.311351  0  3.490182  0
N  N67  1  0.32473867  0.55159311  0.27022581  1  0  -0.39559  0  3.224815  0  0  -0.325096  0  3.503414  0  0  -0.34486  0  3.521488  0  0  -0.360261  -0.31141  0  3.490354  0
N  N68  1  0.36410579  0.82228902  0.11528969  1  0  -0.397114  0  3.230825  0  0  -0.324256  0  3.51228  0  0  -0.343533  0  3.528525  0  0  -0.365005  -0.311217  0  3.500932  0
N  N69  1  0.63587888  0.17772005  0.88470799  1  0  -0.396841  0  3.230928  0  0  -0.323966  0  3.512357  0  0  -0.343245  0  3.528606  0  0  -0.364902  -0.310926  0  3.501005  0
O  O70  1  0.67146069  0.98310115  0.59944652  1  0  -0.606287  0  2.013445  0  0  -0.547829  0  2.255674  0  0  -0.572637  0  2.243806  0  0  -0.34313  -0.53037  0  2.263117  0
O  O71  1  0.32856495  0.01693334  0.40055538  1  0  -0.6065  0  2.013117  0  0  -0.548077  0  2.25534  0  0  -0.572887  0  2.243471  0  0  -0.343265  -0.530614  0  2.262789  0
O  O72  1  0.53772663  0.84638989  0.41985337  1  0  -0.5987  0  2.033249  0  0  -0.546981  0  2.276734  0  0  -0.571994  0  2.268864  0  0  -0.337747  -0.52951  0  2.281093  0
O  O73  1  0.46229184  0.15359199  0.58014947  1  0  -0.598767  0  2.033489  0  0  -0.547045  0  2.276963  0  0  -0.572055  0  2.269095  0  0  -0.337861  -0.529587  0  2.281346  0
