# generated using pymatgen
data_CuH32C34(N4O7)2
_symmetry_space_group_name_H-M   'P 1'
_cell_length_a   6.64649501
_cell_length_b   10.82024748
_cell_length_c   13.22730944
_cell_angle_alpha   92.28470835
_cell_angle_beta   99.72737527
_cell_angle_gamma   101.97832041
_symmetry_Int_Tables_number   1
_chemical_formula_structural   CuH32C34(N4O7)2
_chemical_formula_sum   'Cu1 H32 C34 N8 O14'
_cell_volume   914.39939165
_cell_formula_units_Z   1
loop_
 _symmetry_equiv_pos_site_id
 _symmetry_equiv_pos_as_xyz
  1  'x, y, z'
loop_
 _atom_site_type_symbol
 _atom_site_label
 _atom_site_symmetry_multiplicity
 _atom_site_fract_x
 _atom_site_fract_y
 _atom_site_fract_z
 _atom_site_occupancy
 _atom_site_pbe_bader_charge
 _atom_site_pbe_bader_spin_density
 _atom_site_pbe_cm5_charge
 _atom_site_pbe_ddec_charge
 _atom_site_pbe_ddec_spin_density
 _atom_site_pbe_ddec_sum_bond_order
 _atom_site_pbe_magmom
Cu  Cu0  1  0.99999869  0.99999892  0.00000168  1  1.041835  0.549623  0.758183  0.75183  0.716806  2.179792  0.549
H  H1  1  0.55764540  0.09304919  0.76742940  1  0.511868  1.2e-05  0.300933  0.274922  1.6e-05  1.015033  0.0
H  H2  1  0.44234467  0.90695290  0.23257305  1  0.512063  1.2e-05  0.300892  0.274859  1.6e-05  1.015032  0.0
H  H3  1  0.34381725  0.07332355  0.88905689  1  0.146699  0.002657  0.126277  0.116396  0.001216  0.990885  0.002
H  H4  1  0.65617579  0.92666994  0.11094107  1  0.146627  0.002656  0.126246  0.11638  0.001216  0.990951  0.002
H  H5  1  0.08724918  0.93574545  0.57293516  1  0.142759  0.000196  0.116908  0.127865  8.2e-05  1.022656  0.0
H  H6  1  0.91272754  0.06425760  0.42706312  1  0.142783  0.000196  0.116865  0.12787  8.2e-05  1.022637  0.0
H  H7  1  0.75898749  0.83406426  0.63024113  1  0.131999  0.001321  0.115495  0.131725  0.000682  1.01028  0.001
H  H8  1  0.24099275  0.16593593  0.36975739  1  0.131659  0.001321  0.115407  0.13161  0.000681  1.010418  0.001
H  H9  1  0.73782356  0.85451712  0.81859208  1  0.126588  0.002286  0.118625  0.095436  0.001019  1.003746  0.002
H  H10  1  0.26217285  0.14547734  0.18141073  1  0.126679  0.002285  0.11863  0.095417  0.001018  1.003732  0.002
H  H11  1  0.76510237  0.08580416  0.57998271  1  0.094641  -7e-06  0.103677  0.125723  -1.7e-05  1.014423  0.0
H  H12  1  0.23488689  0.91419979  0.42001669  1  0.094486  -7e-06  0.103688  0.125798  -1.7e-05  1.014368  0.0
H  H13  1  0.79164731  0.19181655  0.68814093  1  -0.005237  -1.1e-05  0.090765  0.097265  -1.9e-05  1.017522  0.0
H  H14  1  0.20834287  0.80819406  0.31185947  1  -0.005128  -1.1e-05  0.090754  0.097266  -1.9e-05  1.017598  0.0
H  H15  1  0.66752487  0.24325387  0.46138205  1  0.029113  -7e-06  0.089198  0.087477  -9e-06  0.98793  0.0
H  H16  1  0.33246453  0.75674627  0.53861500  1  0.029226  -7e-06  0.089189  0.0875  -9e-06  0.987944  0.0
H  H17  1  0.66297777  0.34930794  0.56437049  1  0.006405  1e-06  0.080801  0.070777  1e-06  0.999877  0.0
H  H18  1  0.33702784  0.65069872  0.43562285  1  0.006464  1e-06  0.080817  0.070793  1e-06  0.999798  0.0
H  H19  1  0.05112024  0.25222379  0.52845160  1  0.029929  0.0  0.084696  0.083202  0.0  1.007573  0.0
H  H20  1  0.94886316  0.74777261  0.47154861  1  0.029828  0.0  0.084732  0.083192  0.0  1.00753  0.0
H  H21  1  0.04673000  0.36045242  0.62959250  1  0.016472  -1e-06  0.078608  0.076907  -2e-06  1.019033  0.0
H  H22  1  0.95327010  0.63954763  0.37040171  1  0.016336  -1e-06  0.078575  0.07685  -2e-06  1.019146  0.0
H  H23  1  0.19928944  0.45799309  0.48253282  1  -0.008236  7e-06  0.081121  0.072047  5e-06  1.005491  0.0
H  H24  1  0.80072072  0.54200126  0.51746515  1  -0.008104  7e-06  0.081162  0.072084  5e-06  1.005562  0.0
H  H25  1  0.95161086  0.41068215  0.40183970  1  -0.028097  -7e-06  0.078472  0.070575  -8e-06  1.005035  0.0
H  H26  1  0.04840322  0.58931023  0.59815326  1  -0.027929  -7e-06  0.078449  0.070579  -8e-06  1.004905  0.0
H  H27  1  0.24331370  0.40701510  0.94805124  1  0.184915  0.000459  0.121247  0.1427  0.000424  1.016066  0.0
H  H28  1  0.75669989  0.59298015  0.05194327  1  0.18489  0.000459  0.1212  0.142582  0.000424  1.016155  0.0
H  H29  1  0.94488646  0.67142273  0.77495603  1  0.178753  -2e-05  0.124118  0.130602  -4.8e-05  1.048367  0.0
H  H30  1  0.05512904  0.32858211  0.22504947  1  0.178899  -2e-05  0.124104  0.13061  -4.8e-05  1.048345  0.0
H  H31  1  0.58421616  0.30391755  0.81922481  1  0.161836  5.6e-05  0.122244  0.128309  4e-06  1.014031  0.0
H  H32  1  0.41579243  0.69608918  0.18077787  1  0.161709  5.6e-05  0.122259  0.128332  4e-06  1.013935  0.0
C  C33  1  0.21819530  0.01991886  0.82970078  1  0.49224  -0.000973  0.045514  -0.004436  -0.001199  3.878094  -0.001
C  C34  1  0.78180103  0.98007933  0.17029456  1  0.492204  -0.000975  0.045465  -0.004457  -0.0012  3.878154  -0.001
C  C35  1  0.24422850  0.01070145  0.72678703  1  0.366442  0.005705  0.109392  0.222693  0.003947  4.008083  0.005
C  C36  1  0.75575458  0.98929395  0.27320859  1  0.366563  0.005704  0.109385  0.222532  0.003946  4.008059  0.005
C  C37  1  0.07548652  0.94272352  0.65367804  1  0.015058  -0.003752  -0.063976  -0.116456  -0.0042  3.878883  -0.002
C  C38  1  0.92449983  0.05727663  0.34631950  1  0.014998  -0.003752  -0.063895  -0.116374  -0.0042  3.878499  -0.002
C  C39  1  0.89210958  0.88558960  0.68623066  1  -0.010781  0.005877  -0.078333  -0.103329  0.004076  3.974362  0.005
C  C40  1  0.10787522  0.11441058  0.31376901  1  -0.010378  0.005876  -0.078272  -0.103209  0.004075  3.974203  0.005
C  C41  1  0.87821957  0.89740294  0.78965376  1  0.44579  -0.000986  0.032639  0.056522  -0.001277  3.952577  -0.001
C  C42  1  0.12177859  0.10259627  0.21034932  1  0.445709  -0.000986  0.032668  0.056607  -0.001278  3.952443  -0.001
C  C43  1  0.47644284  0.11014195  0.61102121  1  1.355902  0.000259  0.246902  0.548338  0.000237  4.045723  0.0
C  C44  1  0.52353625  0.88985916  0.38897345  1  1.355478  0.000259  0.246905  0.548219  0.000237  4.045218  0.0
C  C45  1  0.70411997  0.16476848  0.60936945  1  -0.013971  0.000294  -0.167419  -0.307879  0.000198  3.956836  0.0
C  C46  1  0.29586727  0.83523836  0.39063287  1  -0.01366  0.000294  -0.167401  -0.307994  0.000198  3.957248  0.0
C  C47  1  0.74158424  0.27526269  0.54156722  1  -0.01628  4.4e-05  -0.16765  -0.119592  2.6e-05  3.955279  0.0
C  C48  1  0.25841724  0.72474118  0.45842947  1  -0.01631  4.4e-05  -0.167664  -0.119599  2.6e-05  3.955358  0.0
C  C49  1  0.97569983  0.32894259  0.54888694  1  -0.00286  2.5e-05  -0.173718  -0.15429  1.5e-05  3.94198  0.0
C  C50  1  0.02429582  0.67105369  0.45110678  1  -0.002681  2.5e-05  -0.173735  -0.154213  1.5e-05  3.941921  0.0
C  C51  1  0.02994241  0.43915919  0.48231533  1  0.05867  1.1e-05  -0.170069  -0.136065  6e-06  3.945827  0.0
C  C52  1  0.97006147  0.56083038  0.51767592  1  0.033248  1.1e-05  -0.170131  -0.136192  6e-06  3.945772  0.0
C  C53  1  0.91309550  0.34051209  0.88645747  1  0.002371  0.00931  -0.006876  -0.010668  0.006542  3.928455  0.007
C  C54  1  0.08691101  0.65948893  0.11354186  1  0.002012  0.009308  -0.006918  -0.010862  0.006541  3.928976  0.007
C  C55  1  0.10332285  0.42970688  0.90429037  1  0.030953  -6.8e-05  -0.052282  -0.101409  -0.000183  3.866343  0.0
C  C56  1  0.89669233  0.57029696  0.09571054  1  0.030813  -6.9e-05  -0.052221  -0.101147  -0.000183  3.866558  0.0
C  C57  1  0.10943148  0.54755673  0.86429733  1  0.172862  0.00015  0.081182  0.067542  3.8e-05  3.936732  0.0
C  C58  1  0.89058111  0.45244430  0.13570631  1  0.173371  0.00015  0.081216  0.067474  3.8e-05  3.936596  0.0
C  C59  1  0.93554619  0.57959037  0.80633438  1  0.046401  -0.000554  -0.051124  -0.131038  -0.000629  3.905198  0.0
C  C60  1  0.06446368  0.42041165  0.19367056  1  0.046478  -0.000554  -0.051007  -0.1309  -0.000629  3.905058  0.0
C  C61  1  0.74881329  0.48941158  0.79175835  1  0.179615  0.000654  0.085367  0.077815  0.000422  3.925959  0.0
C  C62  1  0.25119867  0.51059613  0.20824842  1  0.179634  0.000654  0.085153  0.077451  0.000422  3.926227  0.0
C  C63  1  0.73375016  0.37144580  0.83139032  1  0.042495  0.000417  -0.053226  -0.104102  4.6e-05  3.899569  0.0
C  C64  1  0.26625926  0.62855903  0.16861162  1  0.0428  0.000417  -0.053174  -0.103964  4.6e-05  3.89948  0.0
C  C65  1  0.89562909  0.20896640  0.92306174  1  1.607358  -0.002221  0.197141  0.553039  -0.002619  4.230193  -0.004
C  C66  1  0.10437604  0.79103081  0.07693510  1  1.607303  -0.00222  0.197144  0.553007  -0.002618  4.230489  -0.004
N  N67  1  0.03986517  0.96485950  0.85904357  1  -1.231964  0.0863  -0.361285  -0.21653  0.05782  3.718992  0.074
N  N68  1  0.96013573  0.03513868  0.14095368  1  -1.231846  0.086275  -0.361259  -0.216503  0.057804  3.719011  0.074
N  N69  1  0.43764987  0.06932740  0.70465356  1  -1.268584  0.001327  -0.40291  -0.394629  0.000752  3.557697  0.001
N  N70  1  0.56233949  0.93067281  0.29535029  1  -1.269046  0.001326  -0.402828  -0.394411  0.000751  3.55773  0.001
N  N71  1  0.30805244  0.64331291  0.88279205  1  0.37539  3.5e-05  0.057396  0.50609  3e-06  4.208089  0.0
N  N72  1  0.69195745  0.35668908  0.11721062  1  0.375432  3.5e-05  0.057493  0.506137  3e-06  4.207861  0.0
N  N73  1  0.55981068  0.51974433  0.73202944  1  0.394649  0.000181  0.059851  0.506429  0.000116  4.208507  0.0
N  N74  1  0.44019990  0.48025957  0.26797485  1  0.394764  0.00018  0.060007  0.506662  0.000116  4.208648  0.0
O  O75  1  0.33713321  0.10053957  0.53433454  1  -1.152458  0.000979  -0.284649  -0.489374  0.000626  2.155488  0.001
O  O76  1  0.66287602  0.89946916  0.46567731  1  -1.152382  0.00098  -0.284695  -0.489379  0.000626  2.154732  0.001
O  O77  1  0.05966150  0.18741106  0.97982113  1  -1.101928  0.113763  -0.316491  -0.519696  0.073592  2.298798  0.103
O  O78  1  0.94034719  0.81258322  0.02016914  1  -1.101788  0.113766  -0.316518  -0.519593  0.073593  2.298834  0.103
O  O79  1  0.72639488  0.12852933  0.89540177  1  -1.192915  0.001043  -0.317131  -0.565784  -0.000347  2.202776  0.002
O  O80  1  0.27359487  0.87147175  0.10459533  1  -1.192971  0.001042  -0.317109  -0.565772  -0.000348  2.202976  0.002
O  O81  1  0.39140550  0.44293604  0.72904559  1  -0.47147  7e-06  -0.115639  -0.321785  -1.5e-05  1.971477  0.0
O  O82  1  0.60860623  0.55706695  0.27096256  1  -0.471166  7e-06  -0.115741  -0.321883  -1.5e-05  1.971566  0.0
O  O83  1  0.57975242  0.61968901  0.68862800  1  -0.450316  0.000278  -0.107894  -0.311608  0.000192  1.9607  0.0
O  O84  1  0.42025679  0.38031106  0.31137153  1  -0.450886  0.000279  -0.10788  -0.311614  0.000192  1.960682  0.0
O  O85  1  0.45836401  0.61823328  0.94131892  1  -0.458434  6.4e-05  -0.125132  -0.330177  1.8e-05  1.983615  0.0
O  O86  1  0.54164233  0.38177160  0.05868654  1  -0.45839  6.5e-05  -0.125211  -0.330217  1.8e-05  1.983491  0.0
O  O87  1  0.31298964  0.74248770  0.83876607  1  -0.443028  9.4e-05  -0.111833  -0.307443  6.1e-05  1.948156  0.0
O  O88  1  0.68702075  0.25751140  0.16123203  1  -0.443241  9.3e-05  -0.111864  -0.307459  6.1e-05  1.948148  0.0
