# generated using pymatgen
data_NiMo6H20C16(N3O11)2
_symmetry_space_group_name_H-M   'P 1'
_cell_length_a   7.64065623
_cell_length_b   10.04383095
_cell_length_c   10.19528996
_cell_angle_alpha   105.78279528
_cell_angle_beta   92.34487153
_cell_angle_gamma   98.95138709
_symmetry_Int_Tables_number   1
_chemical_formula_structural   NiMo6H20C16(N3O11)2
_chemical_formula_sum   'Ni1 Mo6 H20 C16 N6 O22'
_cell_volume   740.87816113
_cell_formula_units_Z   1
loop_
 _symmetry_equiv_pos_site_id
 _symmetry_equiv_pos_as_xyz
  1  'x, y, z'
loop_
 _atom_site_type_symbol
 _atom_site_label
 _atom_site_symmetry_multiplicity
 _atom_site_fract_x
 _atom_site_fract_y
 _atom_site_fract_z
 _atom_site_occupancy
 _atom_site_hle17_ddec_charge
 _atom_site_hle17_ddec_spin_density
 _atom_site_hle17_ddec_sum_bond_order
 _atom_site_hle17_magmom
 _atom_site_hse06_10hf_ddec_charge
 _atom_site_hse06_10hf_ddec_spin_density
 _atom_site_hse06_10hf_ddec_sum_bond_order
 _atom_site_hse06_10hf_magmom
 _atom_site_hse06_ddec_charge
 _atom_site_hse06_ddec_spin_density
 _atom_site_hse06_ddec_sum_bond_order
 _atom_site_hse06_magmom
 _atom_site_pbe_cm5_charge
 _atom_site_pbe_ddec_charge
 _atom_site_pbe_ddec_spin_density
 _atom_site_pbe_ddec_sum_bond_order
 _atom_site_pbe_magmom
Ni  Ni0  1  0.00000000  0.00000000  0.00000000  1  0.940011  -0.018226  2.094888  -0.007  0.96304  -0.038233  2.490335  -0.025  1.036573  -0.028543  2.421157  -0.019  0.672771  0.912347  -0.056179  2.541126  -0.038
Mo  Mo1  1  0.30419314  0.19352531  0.64126411  1  2.167436  -0.000713  4.154077  -0.001  2.163673  -0.000337  4.698345  0.0  2.264878  -0.000302  4.660566  0.0  1.479646  2.091689  -4.5e-05  4.729251  0.0
Mo  Mo2  1  0.69580554  0.80647649  0.35873515  1  2.167383  -0.000713  4.154043  -0.001  2.163619  -0.000337  4.698318  0.0  2.264826  -0.000316  4.660536  0.0  1.479616  2.091638  -4.5e-05  4.729224  0.0
Mo  Mo3  1  0.99548605  0.09512329  0.37943345  1  2.269789  0.022199  4.014129  0.024  2.28113  0.024394  4.522631  0.027  2.387033  0.018003  4.486955  0.02  1.534859  2.203438  0.031964  4.552857  0.033
Mo  Mo4  1  0.00451393  0.90487851  0.62056486  1  2.269824  0.022191  4.014049  0.024  2.281172  0.024389  4.522526  0.027  2.387072  0.017994  4.486853  0.02  1.534856  2.203491  0.031962  4.552737  0.033
Mo  Mo5  1  0.50593984  0.92431030  0.64312987  1  2.25393  0.000116  4.02858  0.0  2.260175  -8.2e-05  4.546435  0.0  2.360527  -6.7e-05  4.511694  0.0  1.524033  2.187502  0.000485  4.577321  0.0
Mo  Mo6  1  0.49405992  0.07569045  0.35687011  1  2.253959  0.000122  4.028514  0.0  2.260219  -8.9e-05  4.546335  0.0  2.360572  -6.6e-05  4.511596  0.0  1.524062  2.187548  0.000486  4.577217  0.0
H  H7  1  0.06922414  0.82447689  0.18899221  1  0.311478  -0.000202  0.877104  0.0  0.286777  -0.000106  0.945924  0.0  0.293763  -9.5e-05  0.940065  0.0  0.335903  0.282084  -6.8e-05  0.949893  0.0
H  H8  1  0.93077886  0.17552071  0.81100702  1  0.311457  -0.000202  0.877123  0.0  0.286738  -0.000106  0.945998  0.0  0.293723  -9.5e-05  0.94014  0.0  0.335894  0.282047  -6.8e-05  0.949965  0.0
H  H9  1  0.34239721  0.39408884  0.42872748  1  0.318179  7e-06  0.87037  0.0  0.296389  6e-06  0.933792  0.0  0.305188  3e-06  0.926659  0.0  0.321089  0.290594  -0.0  0.938495  0.0
H  H10  1  0.65760018  0.60591297  0.57127468  1  0.318239  6e-06  0.870289  0.0  0.296435  6e-06  0.933711  0.0  0.305234  3e-06  0.926577  0.0  0.321098  0.290639  -0.0  0.938414  0.0
H  H11  1  0.29951566  0.13722721  0.94014677  1  0.440131  -0.000373  0.849301  0.0  0.41656  -0.000957  0.90255  -0.001  0.427358  -0.000633  0.886959  0.0  0.295328  0.409425  -0.001224  0.912799  -0.001
H  H12  1  0.70048410  0.86277354  0.05985223  1  0.440018  -0.000373  0.849433  0.0  0.416485  -0.000958  0.902627  -0.001  0.427279  -0.000634  0.887045  0.0  0.2953  0.40935  -0.001224  0.912875  -0.001
H  H13  1  0.34632791  0.05854082  0.05357696  1  0.433121  -0.0001  0.855536  0.001  0.409468  -0.000793  0.911314  0.0  0.41992  -0.000494  0.896149  0.0  0.298394  0.402043  -0.001026  0.922189  -0.001
H  H14  1  0.65367077  0.94146098  0.94642229  1  0.433121  -0.0001  0.855534  0.001  0.409462  -0.000793  0.911325  0.0  0.419915  -0.000494  0.89616  0.0  0.298382  0.402038  -0.001026  0.9222  -0.001
H  H15  1  0.15651173  0.74639131  0.78501509  1  0.111865  -4.6e-05  0.98815  0.0  0.115264  2.1e-05  1.057126  0.0  0.117042  7e-06  1.055195  0.0  0.121826  0.114176  4.9e-05  1.058317  0.0
H  H16  1  0.84348209  0.25360629  0.21498291  1  0.11188  -4.6e-05  0.988199  0.0  0.115268  2.1e-05  1.057174  0.0  0.117045  7e-06  1.055244  0.0  0.121835  0.11418  4.9e-05  1.058362  0.0
H  H17  1  0.26801555  0.53525566  0.86852577  1  0.13918  6.3e-05  0.95414  0.0  0.147359  0.000129  1.014429  0.0  0.149766  0.0001  1.014836  0.0  0.115116  0.145737  0.00017  1.014277  0.0
H  H18  1  0.73197958  0.46474194  0.13147128  1  0.1392  6.4e-05  0.954148  0.0  0.147385  0.000129  1.014428  0.0  0.149795  0.0001  1.014836  0.0  0.115114  0.145761  0.00017  1.014276  0.0
H  H19  1  0.17553602  0.57046934  0.49763076  1  0.119393  3e-06  0.927865  0.0  0.128841  6e-06  0.983314  0.0  0.131969  4e-06  0.979749  0.0  0.134629  0.126613  2.1e-05  0.985946  0.0
H  H20  1  0.82446360  0.42953666  0.50237161  1  0.119399  3e-06  0.927921  0.0  0.128832  6e-06  0.983384  0.0  0.131961  4e-06  0.979818  0.0  0.134637  0.126603  2.1e-05  0.986016  0.0
H  H21  1  0.09128011  0.70006625  0.33628265  1  0.136279  4e-06  0.972288  0.0  0.142049  3e-06  1.034798  0.0  0.146479  -3e-06  1.032316  0.0  0.113443  0.139051  9e-06  1.036502  0.0
H  H22  1  0.90872341  0.29993976  0.66371590  1  0.136331  4e-06  0.97226  0.0  0.142081  3e-06  1.034776  0.0  0.146513  -3e-06  1.032293  0.0  0.113437  0.139077  9e-06  1.036478  0.0
H  H23  1  0.35366629  0.42695876  0.02807838  1  0.128082  -2.1e-05  0.949611  0.0  0.138116  -3.7e-05  1.008359  0.0  0.142161  -2.5e-05  1.006576  0.0  0.114472  0.135262  -3.3e-05  1.009827  0.0
H  H24  1  0.64633426  0.57303359  0.97192133  1  0.12812  -2e-05  0.949616  0.0  0.138137  -3.7e-05  1.008377  0.0  0.142181  -2.5e-05  1.006596  0.0  0.114477  0.135285  -3.2e-05  1.009841  0.0
H  H25  1  0.43709055  0.31656463  0.20837062  1  0.104321  -0.000272  0.958193  0.0  0.112583  -0.000357  1.020016  0.0  0.115727  -0.000243  1.016829  0.0  0.131028  0.110154  -0.000444  1.022637  0.0
H  H26  1  0.56290918  0.68342983  0.79163356  1  0.104196  -0.000271  0.958328  0.0  0.112626  -0.000357  1.019978  0.0  0.11577  -0.000243  1.016786  0.0  0.131017  0.110197  -0.000444  1.022601  0.0
C  C27  1  0.15605019  0.73029427  0.88563369  1  0.066539  0.000113  3.670315  0.0  0.029188  0.000144  3.947656  0.0  0.037051  -0.000174  3.964682  0.0  0.028658  0.024108  0.000377  3.935316  0.001
C  C28  1  0.84394781  0.26970438  0.11436666  1  0.06647  0.000115  3.67042  0.0  0.029153  0.000144  3.947735  0.0  0.037017  -0.000173  3.964759  0.0  0.028617  0.02407  0.000377  3.935395  0.001
C  C29  1  0.21324164  0.62282690  0.92983790  1  -0.219747  0.000446  3.682894  0.001  -0.238543  0.000583  3.939111  0.001  -0.247306  0.000574  3.960403  0.001  -0.097929  -0.232558  0.000704  3.923747  0.001
C  C30  1  0.78675765  0.37717175  0.07015954  1  -0.219824  0.000442  3.682998  0.001  -0.23863  0.00058  3.939195  0.001  -0.247399  0.00057  3.960491  0.001  -0.097953  -0.232641  0.000704  3.923824  0.001
C  C31  1  0.18076236  0.65035678  0.06807243  1  0.161267  -0.000133  3.749326  0.0  0.139778  -7.5e-05  4.007429  0.0  0.144852  -0.000224  4.027128  0.0  0.107136  0.137114  3.5e-05  3.992759  0.0
C  C32  1  0.81923847  0.34964292  0.93192435  1  0.161378  -0.000131  3.749271  0.0  0.139897  -7.2e-05  4.007369  0.0  0.144972  -0.000219  4.027067  0.0  0.107216  0.137234  3.5e-05  3.992695  0.0
C  C33  1  0.21277044  0.54557873  0.39339765  1  0.190727  4.4e-05  3.567712  0.0  0.148274  -5e-06  3.822893  0.0  0.159063  2.4e-05  3.834275  0.0  0.078316  0.141265  -4.1e-05  3.81562  0.0
C  C34  1  0.78723218  0.45442307  0.60660269  1  0.190713  4.3e-05  3.567876  0.0  0.148243  -4e-06  3.823007  0.0  0.159034  2.3e-05  3.834384  0.0  0.078324  0.141234  -4.1e-05  3.81573  0.0
C  C35  1  0.16692807  0.61554430  0.30147087  1  -0.129741  -5.4e-05  3.617799  0.0  -0.15219  -6.9e-05  3.874454  0.0  -0.160389  -0.000118  3.891868  0.0  -0.069962  -0.14768  -7.5e-05  3.863458  0.0
C  C36  1  0.83307455  0.38445751  0.69852947  1  -0.129736  -5.3e-05  3.617899  0.0  -0.152164  -7.1e-05  3.874451  0.0  -0.160363  -0.000117  3.891861  0.0  -0.069937  -0.147643  -7.5e-05  3.863445  0.0
C  C37  1  0.21950786  0.57718971  0.16762404  1  0.102371  0.000192  3.76801  0.0  0.109139  9.7e-05  4.013723  0.0  0.116631  0.000127  4.032533  0.0  0.029828  0.104178  0.000109  4.000643  0.0
C  C38  1  0.78049297  0.42280999  0.83237275  1  0.102295  0.000192  3.768199  0.0  0.109154  9.8e-05  4.013751  0.0  0.116645  0.000126  4.03256  0.0  0.029838  0.104194  0.000109  4.000668  0.0
C  C39  1  0.31514720  0.46545017  0.13140601  1  -0.144601  -0.000143  3.652802  0.0  -0.165769  -4e-05  3.907347  0.0  -0.174146  -7.8e-05  3.925525  0.0  -0.070431  -0.16039  -8.1e-05  3.895685  0.0
C  C40  1  0.68485406  0.53454533  0.86859751  1  -0.144541  -0.000145  3.652813  0.0  -0.165714  -4.1e-05  3.907387  0.0  -0.174092  -7.8e-05  3.925561  0.0  -0.070386  -0.160336  -8.1e-05  3.895728  0.0
C  C41  1  0.36068321  0.40114041  0.22825530  1  0.174806  -6e-05  3.599932  0.0  0.131591  -0.000161  3.855534  0.0  0.142511  -6.9e-05  3.867422  0.0  0.072718  0.124106  -0.0003  3.848272  0.0
C  C42  1  0.63931675  0.59885509  0.77174818  1  0.174844  -5.9e-05  3.599865  0.0  0.131433  -0.00016  3.855515  0.0  0.142358  -7e-05  3.867397  0.0  0.072688  0.123948  -0.0003  3.848257  0.0
N  N43  1  0.10596962  0.76848573  0.09787207  1  -0.165918  0.000727  3.404652  0.001  -0.101025  0.000658  3.638336  0.001  -0.110971  0.000471  3.65734  0.0  -0.262844  -0.094357  0.000852  3.624494  0.001
N  N44  1  0.89403160  0.23150977  0.90212556  1  -0.165908  0.000727  3.404495  0.001  -0.101122  0.000658  3.638354  0.001  -0.111067  0.00047  3.657356  0.0  -0.262924  -0.094456  0.000852  3.624511  0.001
N  N45  1  0.09157479  0.81868158  0.98913795  1  -0.160332  0.009562  3.16341  0.009  -0.147774  0.014192  3.465871  0.014  -0.170796  0.012232  3.486479  0.012  -0.229701  -0.130605  0.015915  3.450776  0.015
N  N46  1  0.90842476  0.18131812  0.01086468  1  -0.16033  0.009561  3.163386  0.009  -0.147718  0.014191  3.465842  0.014  -0.170741  0.012232  3.48645  0.012  -0.229671  -0.130549  0.015916  3.450745  0.015
N  N47  1  0.31002752  0.44280468  0.35586467  1  -0.199958  1.7e-05  3.453442  0.0  -0.126708  -9.9e-05  3.674872  0.0  -0.141553  -0.000132  3.687753  0.0  -0.338324  -0.117426  -8.4e-05  3.666363  0.0
N  N48  1  0.68997442  0.55719397  0.64413775  1  -0.20001  1.7e-05  3.453425  0.0  -0.126688  -9.9e-05  3.674845  0.0  -0.141535  -0.00013  3.687723  0.0  -0.33834  -0.117407  -8.4e-05  3.666338  0.0
O  O49  1  0.25893457  0.08880793  0.40827670  1  -1.013524  0.000219  1.926442  0.0  -1.007922  0.000346  2.231341  0.0  -1.055399  0.000202  2.230089  0.0  -0.620018  -0.973499  0.000567  2.232566  0.0
O  O50  1  0.74106543  0.91119387  0.59172357  1  -1.013531  0.000216  1.92645  0.0  -1.007929  0.000346  2.231356  0.0  -1.05541  0.0002  2.230107  0.0  -0.620012  -0.9735  0.000567  2.232563  0.0
O  O51  1  0.04692649  0.12586230  0.59554001  1  -1.008009  0.002165  1.750015  0.002  -0.999083  0.001383  2.036149  0.001  -1.038654  0.000897  2.026042  0.001  -0.606076  -0.969494  0.001794  2.042771  0.001
O  O52  1  0.95307327  0.87413845  0.40445997  1  -1.007979  0.002166  1.749979  0.002  -0.99906  0.001383  2.036123  0.001  -1.038632  0.000898  2.02602  0.001  -0.606082  -0.969475  0.001794  2.042749  0.001
O  O53  1  0.25396371  0.95859188  0.62017628  1  -0.998975  0.000608  1.966191  0.001  -0.992289  0.000809  2.270752  0.001  -1.03848  0.000383  2.268433  0.0  -0.618695  -0.95845  0.001144  2.271882  0.001
O  O54  1  0.74603629  0.04140992  0.37982399  1  -0.998952  0.000607  1.966152  0.001  -0.992277  0.000806  2.270739  0.001  -1.038475  0.000382  2.268429  0.0  -0.618698  -0.958442  0.001144  2.271876  0.001
O  O55  1  0.51893048  0.12600859  0.59507026  1  -0.957743  0.000499  1.712877  0.001  -0.954104  0.000232  2.001592  0.0  -0.99478  0.000117  1.995421  0.0  -0.59593  -0.924128  0.000174  2.005404  0.0
O  O56  1  0.48106736  0.87399532  0.40493150  1  -0.957739  0.000497  1.712839  0.001  -0.954129  0.000233  2.001618  0.0  -0.994779  0.000121  1.995386  0.0  -0.595913  -0.924152  0.000174  2.00543  0.0
O  O57  1  0.31584601  0.23432440  0.81865046  1  -0.746695  -0.000366  1.488401  0.0  -0.734176  -0.000282  1.740284  0.0  -0.761118  -0.000146  1.729401  0.0  -0.530302  -0.71631  -0.000518  1.748717  0.0
O  O58  1  0.68415398  0.76567740  0.18134883  1  -0.746647  -0.000364  1.488418  0.0  -0.734141  -0.00028  1.740295  0.0  -0.76108  -0.000145  1.729409  0.0  -0.530279  -0.716263  -0.000518  1.7487  0.0
O  O59  1  0.33275939  0.35337178  0.60385216  1  -0.727556  0.000607  1.469155  0.001  -0.72159  0.000465  1.722258  0.001  -0.750025  0.000312  1.714945  0.0  -0.528508  -0.701833  0.000481  1.727959  0.001
O  O60  1  0.66724191  0.64663002  0.39614814  1  -0.727526  0.000607  1.469155  0.001  -0.721545  0.000465  1.722246  0.001  -0.749983  0.000319  1.714934  0.0  -0.52848  -0.701791  0.000481  1.727949  0.001
O  O61  1  0.01058728  0.03030625  0.20262252  1  -0.767087  0.045111  1.740812  0.046  -0.778908  0.03067  2.057655  0.03  -0.814101  0.024502  2.042947  0.023  -0.52867  -0.755413  0.036855  2.06968  0.036
O  O62  1  0.98941379  0.96969450  0.79737651  1  -0.767069  0.045112  1.740784  0.046  -0.778883  0.03067  2.057611  0.03  -0.814075  0.024503  2.042906  0.023  -0.528652  -0.75539  0.036854  2.069633  0.036
O  O63  1  0.00005798  0.27126699  0.40472132  1  -0.665051  0.007072  1.49656  0.008  -0.658019  0.005447  1.745381  0.006  -0.68222  0.003947  1.737828  0.004  -0.493812  -0.641766  0.008009  1.75131  0.008
O  O64  1  0.99994202  0.72873481  0.59527993  1  -0.665073  0.007075  1.496511  0.008  -0.658034  0.005446  1.74532  0.006  -0.682233  0.003948  1.737766  0.004  -0.493815  -0.641791  0.008008  1.751265  0.008
O  O65  1  0.54881983  0.00180073  0.81733495  1  -0.705425  -0.000475  1.464343  -0.001  -0.695654  -0.000373  1.704903  0.0  -0.718994  -0.000245  1.693416  0.0  -0.513088  -0.680651  -0.000418  1.715476  0.0
O  O66  1  0.45117862  0.99820002  0.18266402  1  -0.705428  -0.000478  1.464291  -0.001  -0.695668  -0.00037  1.704859  0.0  -0.719009  -0.000242  1.693369  0.0  -0.513098  -0.680665  -0.000418  1.715431  0.0
O  O67  1  0.42624617  0.75055966  0.62944128  1  -0.694869  -9e-05  1.46821  0.0  -0.692037  -7.9e-05  1.720714  0.0  -0.718204  -3.4e-05  1.712495  0.0  -0.510711  -0.673127  -0.000145  1.727016  0.0
O  O68  1  0.57375360  0.24944109  0.37055968  1  -0.694897  -9.5e-05  1.4682  0.0  -0.692045  -7.8e-05  1.720684  0.0  -0.71821  -3.8e-05  1.712465  0.0  -0.510723  -0.673138  -0.000145  1.726988  0.0
O  O69  1  0.26020549  0.10956577  0.02202803  1  -0.793712  -0.077607  1.947892  -0.081  -0.772142  -0.056609  2.145168  -0.06  -0.803138  -0.044545  2.114177  -0.048  -0.557841  -0.747094  -0.067123  2.165515  -0.07
O  O70  1  0.73979427  0.89043499  0.97797097  1  -0.793597  -0.077608  1.947971  -0.081  -0.772049  -0.056609  2.145284  -0.06  -0.803046  -0.044545  2.114289  -0.048  -0.557798  -0.747002  -0.067124  2.165633  -0.07
