# generated using pymatgen
data_Cd3H30C18(Br3N7)2
_symmetry_space_group_name_H-M   'P 1'
_cell_length_a   8.04620176
_cell_length_b   9.74212725
_cell_length_c   10.22781468
_cell_angle_alpha   92.52265967
_cell_angle_beta   97.59887246
_cell_angle_gamma   100.79441429
_symmetry_Int_Tables_number   1
_chemical_formula_structural   Cd3H30C18(Br3N7)2
_chemical_formula_sum   'Cd3 H30 C18 Br6 N14'
_cell_volume   778.67658651
_cell_formula_units_Z   1
loop_
 _symmetry_equiv_pos_site_id
 _symmetry_equiv_pos_as_xyz
  1  'x, y, z'
loop_
 _atom_site_type_symbol
 _atom_site_label
 _atom_site_symmetry_multiplicity
 _atom_site_fract_x
 _atom_site_fract_y
 _atom_site_fract_z
 _atom_site_occupancy
 _atom_site_hle17_bader_spin_density
 _atom_site_hle17_ddec_charge
 _atom_site_hle17_ddec_spin_density
 _atom_site_hle17_ddec_sum_bond_order
 _atom_site_hle17_magmom
 _atom_site_hse06_10hf_bader_spin_density
 _atom_site_hse06_10hf_ddec_charge
 _atom_site_hse06_10hf_ddec_spin_density
 _atom_site_hse06_10hf_ddec_sum_bond_order
 _atom_site_hse06_10hf_magmom
 _atom_site_hse06_bader_spin_density
 _atom_site_hse06_ddec_charge
 _atom_site_hse06_ddec_spin_density
 _atom_site_hse06_ddec_sum_bond_order
 _atom_site_hse06_magmom
 _atom_site_pbe_bader_spin_density
 _atom_site_pbe_cm5_charge
 _atom_site_pbe_ddec_charge
 _atom_site_pbe_ddec_spin_density
 _atom_site_pbe_ddec_sum_bond_order
 _atom_site_pbe_magmom
Cd  Cd0  1  0.49999834  0.50000105  0.50000074  1  0  0.858825  0  2.019372  0  0  0.701124  0  2.46969  0  0  0.748472  0  2.43326  0  0  0.52745  0.667642  0  2.496354  0
Cd  Cd1  1  0.47790080  0.72368925  0.16458225  1  0  0.909752  0  1.845232  0  0  0.740715  0  2.27693  0  0  0.790094  0  2.239122  0  0  0.59486  0.704376  0  2.305005  0
Cd  Cd2  1  0.52210317  0.27631184  0.83541605  1  0  0.909736  0  1.845276  0  0  0.740691  0  2.276969  0  0  0.790071  0  2.239163  0  0  0.59486  0.704347  0  2.305058  0
H  H3  1  0.83930505  0.89319832  0.29811802  1  0  0.053581  0  0.973112  0  0  0.061052  0  1.042809  0  0  0.063122  0  1.039201  0  0  0.107571  0.060359  0  1.044231  0
H  H4  1  0.16069540  0.10680379  0.70188190  1  0  0.053567  0  0.97315  0  0  0.061046  0  1.042831  0  0  0.063115  0  1.039225  0  0  0.107556  0.060348  0  1.04426  0
H  H5  1  0.01471047  0.35570879  0.39575384  1  0  0.324109  0  0.905363  0  0  0.307671  0  0.971323  0  0  0.31512  0  0.964951  0  0  0.289764  0.301584  0  0.97724  0
H  H6  1  0.98528722  0.64429227  0.60424673  1  0  0.324132  0  0.905296  0  0  0.307665  0  0.971289  0  0  0.315131  0  0.964895  0  0  0.289714  0.301578  0  0.977205  0
H  H7  1  0.83529886  0.42703291  0.40970363  1  0  0.31888  0  0.942699  0  0  0.301739  0  1.007379  0  0  0.309112  0  1.001629  0  0  0.273268  0.296415  0  1.012027  0
H  H8  1  0.16470056  0.57297025  0.59029916  1  0  0.318839  0  0.942672  0  0  0.301736  0  1.007328  0  0  0.30911  0  1.001576  0  0  0.273249  0.296409  0  1.011981  0
H  H9  1  0.21681028  0.20144172  0.39047330  1  0  0.093726  0  0.947907  0  0  0.09615  0  1.026606  0  0  0.100094  0  1.020501  0  0  0.127365  0.093284  0  1.030715  0
H  H10  1  0.78318794  0.79855620  0.60952721  1  0  0.093728  0  0.947934  0  0  0.096149  0  1.02663  0  0  0.100094  0  1.020523  0  0  0.127358  0.093287  0  1.03074  0
H  H11  1  0.11827749  0.93773466  0.37630810  1  0  0.092478  0  0.928544  0  0  0.108289  0  0.990625  0  0  0.108485  0  0.991162  0  0  0.115508  0.108399  0  0.989385  0
H  H12  1  0.88172049  0.06226221  0.62369038  1  0  0.092528  0  0.928537  0  0  0.108321  0  0.990619  0  0  0.108518  0  0.991156  0  0  0.115519  0.108433  0  0.989381  0
H  H13  1  0.26955263  0.83025233  0.35571775  1  0  0.07661  0  0.964546  0  0  0.086411  0  1.040017  0  0  0.087448  0  1.039299  0  0  0.09874  0.086056  0  1.039778  0
H  H14  1  0.73044834  0.16974664  0.64428113  1  0  0.07661  0  0.964546  0  0  0.086383  0  1.040026  0  0  0.08742  0  1.039308  0  0  0.098742  0.086031  0  1.039787  0
H  H15  1  0.04304849  0.78820924  0.16868640  1  0  0.0764  0  0.934096  0  0  0.091981  0  1.000667  0  0  0.09269  0  1.000559  0  0  0.100467  0.091409  0  1.001028  0
H  H16  1  0.95695249  0.21178974  0.83131248  1  0  0.076397  0  0.93404  0  0  0.091977  0  1.00065  0  0  0.092685  0  1.000545  0  0  0.100498  0.091408  0  1.001012  0
H  H17  1  0.07343834  0.96779005  0.13606379  1  0  0.063047  0  0.932341  0  0  0.075584  0  1.004672  0  0  0.076603  0  1.003928  0  0  0.092429  0.074346  0  1.006165  0
H  H18  1  0.92656138  0.03220892  0.86393496  1  0  0.062993  0  0.932351  0  0  0.075543  0  1.004701  0  0  0.076562  0  1.003958  0  0  0.092417  0.074308  0  1.006198  0
H  H19  1  0.33514010  0.96104977  0.07435831  1  0  0.241192  0  0.940834  0  0  0.231364  0  1.003095  0  0  0.237435  0  0.999055  0  0  0.267785  0.226951  0  1.006173  0
H  H20  1  0.66486111  0.03895025  0.92564064  1  0  0.241174  0  0.940902  0  0  0.23135  0  1.00316  0  0  0.237422  0  0.99912  0  0  0.267789  0.226939  0  1.006238  0
H  H21  1  0.28548632  0.82443848  0.88941910  1  0  0.062438  0  0.944045  0  0  0.078102  0  1.009063  0  0  0.077813  0  1.010861  0  0  0.097239  0.078475  0  1.007312  0
H  H22  1  0.71451490  0.17556155  0.11057984  1  0  0.06239  0  0.943997  0  0  0.078022  0  1.009099  0  0  0.077731  0  1.010897  0  0  0.097217  0.078397  0  1.007344  0
H  H23  1  0.07561848  0.83682223  0.91950431  1  0  0.066928  0  0.930449  0  0  0.081661  0  0.9981  0  0  0.082541  0  0.997554  0  0  0.094523  0.080633  0  0.999462  0
H  H24  1  0.92438124  0.16317675  0.08049444  1  0  0.066853  0  0.930529  0  0  0.081611  0  0.998167  0  0  0.082491  0  0.997623  0  0  0.094508  0.080586  0  0.99952  0
H  H25  1  0.06483486  0.61128064  0.03709856  1  0  0.061266  0  0.942887  0  0  0.081206  0  1.004784  0  0  0.081309  0  1.005341  0  0  0.100506  0.081038  0  1.004988  0
H  H26  1  0.93516486  0.38871833  0.96290019  1  0  0.061308  0  0.942817  0  0  0.081313  0  1.004655  0  0  0.08142  0  1.005199  0  0  0.100532  0.08114  0  1.004865  0
H  H27  1  0.06877972  0.59316297  0.86437502  1  0  0.056495  0  0.949822  0  0  0.071681  0  1.019643  0  0  0.07246  0  1.019127  0  0  0.086428  0.071004  0  1.020334  0
H  H28  1  0.93122150  0.40683706  0.13562393  1  0  0.056479  0  0.949854  0  0  0.071668  0  1.019684  0  0  0.072444  0  1.019172  0  0  0.086419  0.070993  0  1.020369  0
H  H29  1  0.36178560  0.57780523  0.90873572  1  0  0.282026  0  0.912913  0  0  0.272758  0  0.970961  0  0  0.278317  0  0.967695  0  0  0.273437  0.268433  0  0.973817  0
H  H30  1  0.63821389  0.42219270  0.09126199  1  0  0.282056  0  0.912889  0  0  0.272789  0  0.970934  0  0  0.278348  0  0.967668  0  0  0.273458  0.268465  0  0.97379  0
H  H31  1  0.27044055  0.47580463  0.01359717  1  0  0.283349  0  0.935152  0  0  0.270093  0  1.001529  0  0  0.276156  0  0.997721  0  0  0.265922  0.265001  0  1.005614  0
H  H32  1  0.72956018  0.52419330  0.98640165  1  0  0.283365  0  0.935129  0  0  0.27011  0  1.001505  0  0  0.276174  0  0.997694  0  0  0.265933  0.265021  0  1.005588  0
C  C33  1  0.77261067  0.97728350  0.31988079  1  0  0.304373  0  3.795935  0  0  0.251347  0  4.081258  0  0  0.270805  0  4.090319  0  0  0.156836  0.238096  0  4.074157  0
C  C34  1  0.22738977  0.02271862  0.68012011  1  0  0.304396  0  3.796077  0  0  0.251361  0  4.081406  0  0  0.270819  0  4.090469  0  0  0.156875  0.238114  0  4.074319  0
C  C35  1  0.52575803  0.04613705  0.33751905  1  0  0.295119  0  3.812218  0  0  0.253823  0  4.081704  0  0  0.269796  0  4.098398  0  0  0.213956  0.2433  0  4.070066  0
C  C36  1  0.47424116  0.95386506  0.66248172  1  0  0.295126  0  3.812328  0  0  0.253804  0  4.081782  0  0  0.269778  0  4.098476  0  0  0.213949  0.243292  0  4.07014  0
C  C37  1  0.60976705  0.18481193  0.37541688  1  0  -0.055442  0  3.774905  0  0  -0.051573  0  4.028233  0  0  -0.057736  0  4.049501  0  0  0.073996  -0.04823  0  4.013779  0
C  C38  1  0.39022963  0.81519018  0.62458460  1  0  -0.055577  0  3.774921  0  0  -0.051579  0  4.028086  0  0  -0.057741  0  4.049351  0  0  0.073994  -0.048239  0  4.013628  0
C  C39  1  0.79042530  0.21330427  0.37947904  1  0  0.463392  0  3.852075  0  0  0.432672  0  4.117616  0  0  0.455034  0  4.127634  0  0  0.242497  0.418045  0  4.109045  0
C  C40  1  0.20957263  0.78669784  0.62052160  1  0  0.463541  0  3.851995  0  0  0.432753  0  4.117569  0  0  0.455115  0  4.127587  0  0  0.24257  0.418134  0  4.10899  0
C  C41  1  0.34022049  0.17660484  0.37873491  1  0  0.221315  0  3.634304  0  0  0.152719  0  3.918544  0  0  0.169577  0  3.928034  0  0  0.154305  0.14157  0  3.911076  0
C  C42  1  0.65977672  0.82339413  0.62126749  1  0  0.221282  0  3.634444  0  0  0.152687  0  3.918694  0  0  0.169545  0  3.928182  0  0  0.154311  0.141529  0  3.911233  0
C  C43  1  0.21725801  0.91931498  0.31736466  1  0  -0.011103  0  3.610159  0  0  -0.074733  0  3.865367  0  0  -0.070333  0  3.876244  0  0  -0.057489  -0.077467  0  3.856578  0
C  C44  1  0.78274297  0.08068400  0.68263520  1  0  -0.011154  0  3.610282  0  0  -0.074697  0  3.865426  0  0  -0.070298  0  3.876304  0  0  -0.057464  -0.077437  0  3.856647  0
C  C45  1  0.13985598  0.88490473  0.17319333  1  0  0.007174  0  3.659335  0  0  -0.052621  0  3.925379  0  0  -0.049538  0  3.937731  0  0  -0.078193  -0.054762  0  3.916843  0
C  C46  1  0.86014475  0.11509320  0.82680548  1  0  0.007297  0  3.65921  0  0  -0.052578  0  3.925361  0  0  -0.049493  0  3.937716  0  0  -0.078219  -0.054708  0  3.916804  0
C  C47  1  0.19081174  0.79654148  0.95681309  1  0  0.004219  0  3.634473  0  0  -0.0499  0  3.891749  0  0  -0.047038  0  3.905485  0  0  -0.081453  -0.052264  0  3.883402  0
C  C48  1  0.80918900  0.20345645  0.04318572  1  0  0.004473  0  3.634373  0  0  -0.049696  0  3.891757  0  0  -0.046826  0  3.905486  0  0  -0.081389  -0.052067  0  3.883407  0
C  C49  1  0.14486264  0.63782924  0.95932049  1  0  0.057927  0  3.650309  0  0  0.000238  0  3.911615  0  0  0.004251  0  3.924317  0  0  -0.084698  -0.002776  0  3.903338  0
C  C50  1  0.85513858  0.36217078  0.04067846  1  0  0.057846  0  3.65026  0  0  0.000112  0  3.911603  0  0  0.004129  0  3.924301  0  0  -0.084732  -0.002894  0  3.90332  0
Br  Br51  1  0.72461447  0.61541943  0.32499763  1  0  -0.528041  0  1.084386  0  0  -0.464723  0  1.390335  0  0  -0.484271  0  1.368256  0  0  -0.241419  -0.452189  0  1.409228  0
Br  Br52  1  0.27538375  0.38457849  0.67500189  1  0  -0.52803  0  1.084395  0  0  -0.464726  0  1.39036  0  0  -0.484274  0  1.368279  0  0  -0.241414  -0.452188  0  1.409253  0
Br  Br53  1  0.24359336  0.53990247  0.31016835  1  0  -0.527652  0  1.039041  0  0  -0.467644  0  1.347161  0  0  -0.487072  0  1.325672  0  0  -0.256535  -0.454621  0  1.363757  0
Br  Br54  1  0.75640887  0.46009651  0.68982871  1  0  -0.527654  0  1.039046  0  0  -0.467641  0  1.347156  0  0  -0.487072  0  1.325673  0  0  -0.256531  -0.454616  0  1.363762  0
Br  Br55  1  0.69272182  0.79397425  0.98165852  1  0  -0.584855  0  0.833328  0  0  -0.530226  0  1.102445  0  0  -0.547265  0  1.083576  0  0  -0.31217  -0.515503  0  1.115902  0
Br  Br56  1  0.30728114  0.20602788  0.01834167  1  0  -0.584852  0  0.833313  0  0  -0.530226  0  1.102435  0  0  -0.547266  0  1.083567  0  0  -0.31217  -0.515502  0  1.115891  0
N  N57  1  0.86806692  0.10386845  0.35484089  1  0  -0.479984  0  3.008217  0  0  -0.440724  0  3.289749  0  0  -0.460516  0  3.298687  0  0  -0.345219  -0.426699  0  3.282044  0
N  N58  1  0.13193251  0.89613471  0.64515995  1  0  -0.480077  0  3.008253  0  0  -0.440812  0  3.289812  0  0  -0.460602  0  3.298748  0  0  -0.3453  -0.426792  0  3.282112  0
N  N59  1  0.60126358  0.93908272  0.30678049  1  0  -0.467602  0  3.197851  0  0  -0.404014  0  3.479976  0  0  -0.427908  0  3.494712  0  0  -0.354625  -0.386688  0  3.469935  0
N  N60  1  0.39873662  0.06091836  0.69322034  1  0  -0.467534  0  3.198003  0  0  -0.403947  0  3.480122  0  0  -0.427843  0  3.494862  0  0  -0.354593  -0.386606  0  3.470026  0
N  N61  1  0.88868800  0.34019779  0.40618399  1  0  -0.6218  0  3.166968  0  0  -0.584321  0  3.394474  0  0  -0.605556  0  3.391957  0  0  -0.567479  -0.569367  0  3.396785  0
N  N62  1  0.11131094  0.65980328  0.59381769  1  0  -0.621811  0  3.166917  0  0  -0.584328  0  3.394398  0  0  -0.605583  0  3.39185  0  0  -0.567413  -0.569372  0  3.39671  0
N  N63  1  0.48963700  0.26460690  0.40086101  1  0  -0.382569  0  3.189625  0  0  -0.325574  0  3.471947  0  0  -0.344952  0  3.4906  0  0  -0.344092  -0.311968  0  3.458445  0
N  N64  1  0.51036045  0.73539311  0.59914145  1  0  -0.382551  0  3.189761  0  0  -0.325591  0  3.472051  0  0  -0.34497  0  3.490706  0  0  -0.344113  -0.311983  0  3.458546  0
N  N65  1  0.35452935  0.04312004  0.34064333  1  0  -0.140176  0  3.470086  0  0  -0.04635  0  3.692954  0  0  -0.06432  0  3.714974  0  0  -0.237522  -0.034166  0  3.677386  0
N  N66  1  0.64547061  0.95687999  0.65935744  1  0  -0.14014  0  3.470072  0  0  -0.046337  0  3.692929  0  0  -0.064305  0  3.714948  0  0  -0.237518  -0.034153  0  3.677363  0
N  N67  1  0.26872318  0.86307009  0.08885493  1  0  -0.411299  0  3.211812  0  0  -0.333447  0  3.454608  0  0  -0.352617  0  3.467358  0  0  -0.492071  -0.319976  0  3.446659  0
N  N68  1  0.73127780  0.13692889  0.91114493  1  0  -0.411456  0  3.211853  0  0  -0.333521  0  3.454566  0  0  -0.352697  0  3.467326  0  0  -0.49212  -0.320052  0  3.446627  0
N  N69  1  0.29951605  0.57801450  0.98984115  1  0  -0.634676  0  3.144462  0  0  -0.571958  0  3.374174  0  0  -0.593368  0  3.377244  0  0  -0.638179  -0.55593  0  3.373473  0
N  N70  1  0.70048367  0.42198447  0.01015760  1  0  -0.634702  0  3.144442  0  0  -0.571984  0  3.374185  0  0  -0.593396  0  3.377256  0  0  -0.638199  -0.55596  0  3.373485  0
