# generated using pymatgen
data_Zr3H14C33S5O26
_symmetry_space_group_name_H-M   'P 1'
_cell_length_a   16.43629746
_cell_length_b   16.52573288
_cell_length_c   16.40928595
_cell_angle_alpha   61.72656727
_cell_angle_beta   60.42424048
_cell_angle_gamma   59.72473991
_symmetry_Int_Tables_number   1
_chemical_formula_structural   Zr3H14C33S5O26
_chemical_formula_sum   'Zr6 H28 C66 S10 O52'
_cell_volume   3194.16965094
_cell_formula_units_Z   2
loop_
 _symmetry_equiv_pos_site_id
 _symmetry_equiv_pos_as_xyz
  1  'x, y, z'
loop_
 _atom_site_type_symbol
 _atom_site_label
 _atom_site_symmetry_multiplicity
 _atom_site_fract_x
 _atom_site_fract_y
 _atom_site_fract_z
 _atom_site_occupancy
 _atom_site_pbe_bader_charge
 _atom_site_pbe_bader_spin_density
 _atom_site_pbe_cm5_charge
 _atom_site_pbe_ddec_charge
 _atom_site_pbe_ddec_spin_density
 _atom_site_pbe_ddec_sum_bond_order
 _atom_site_pbe_magmom
Zr  Zr0  1  0.89440834  0.89581951  0.59396524  1  2.638909  0  1.636734  2.382121  0  2.741614  0
Zr  Zr1  1  0.11572115  0.09902582  0.39098380  1  2.636371  0  1.637434  2.382222  0  2.742159  0
Zr  Zr2  1  0.10913424  0.88914067  0.60271550  1  2.639977  0  1.634739  2.373665  0  2.732666  0
Zr  Zr3  1  0.89918837  0.10752983  0.38374488  1  2.643265  0  1.636474  2.373886  0  2.733188  0
Zr  Zr4  1  0.11212352  0.89048925  0.38545113  1  2.629534  0  1.626183  2.363782  0  2.775717  0
Zr  Zr5  1  0.89703126  0.10539821  0.60000896  1  2.624915  0  1.628147  2.363554  0  2.776427  0
H  H6  1  0.08300413  0.74744341  0.57466797  1  0.623969  0  0.335492  0.432375  0  0.844534  0
H  H7  1  0.09528972  0.07925518  0.24238952  1  0.626747  0  0.334994  0.431405  0  0.844985  0
H  H8  1  0.08906904  0.07905928  0.58264201  1  0.609465  0  0.334713  0.430667  0  0.845143  0
H  H9  1  0.74922582  0.08749679  0.57370338  1  0.603739  0  0.334749  0.430948  0  0.844803  0
H  H10  1  0.86113404  0.65432613  0.83571244  1  0.093502  0  0.106583  0.118728  0  1.011401  0
H  H11  1  0.15051617  0.33913464  0.14772654  1  0.066767  0  0.106364  0.118016  0  1.011781  0
H  H12  1  0.85765026  0.29452778  0.64582528  1  0.657752  0  0.301876  0.348824  0  1.002433  0
H  H13  1  0.12903936  0.72748226  0.31284566  1  0.648521  0  0.302346  0.352165  0  0.994975  0
H  H14  1  0.33103090  0.81790307  0.22303632  1  0.625377  0  0.302296  0.352872  0  0.992667  0
H  H15  1  0.70247582  0.15036964  0.78935889  1  0.627123  0  0.301693  0.348385  0  1.003171  0
H  H16  1  0.15998272  0.76914307  0.96357475  1  0.621119  0  0.338666  0.372263  0  0.875679  0
H  H17  1  0.76837756  0.08326957  0.19809715  1  0.617564  0  0.331138  0.357886  0  0.89835  0
H  H18  1  0.43712780  0.70903731  0.58255499  1  0.615403  0  0.329777  0.356995  0  0.901233  0
H  H19  1  0.59928209  0.47996851  0.26377660  1  0.605711  0  0.33753  0.370715  0  0.876922  0
H  H20  1  0.42892334  0.08872255  0.25874068  1  0.621986  0  0.324467  0.353014  0  0.912296  0
H  H21  1  0.72594500  0.76375587  0.58234330  1  0.604574  0  0.324499  0.353649  0  0.911692  0
H  H22  1  0.24927452  0.42240820  0.03929416  1  0.064555  0  0.100512  0.142946  0  0.978703  0
H  H23  1  0.22668114  0.51859255  0.93276634  1  0.067257  0  0.096726  0.145526  0  1.00723  0
H  H24  1  0.18473528  0.54419429  0.04350563  1  0.036842  0  0.093597  0.134396  0  0.997068  0
H  H25  1  0.15781422  0.66903886  0.86022003  1  0.091154  0  0.1011  0.150399  0  1.002826  0
H  H26  1  0.04132880  0.76371836  0.88494045  1  0.051383  0  0.08739  0.1276  0  1.027378  0
H  H27  1  0.08313798  0.66913122  0.98390377  1  0.021082  0  0.087738  0.115122  0  1.032242  0
H  H28  1  0.78674345  0.54654497  0.91950257  1  0.044447  0  0.100417  0.142109  0  0.978628  0
H  H29  1  0.81992196  0.43962895  0.01540907  1  0.083063  0  0.097508  0.14529  0  1.00505  0
H  H30  1  0.72641726  0.55048382  0.04142034  1  0.029441  0  0.093848  0.134855  0  0.997731  0
H  H31  1  0.81244865  0.36602391  0.16516263  1  0.090508  0  0.101168  0.150834  0  1.002002  0
H  H32  1  0.81095897  0.38991502  0.25959886  1  0.060941  0  0.08716  0.127506  0  1.026702  0
H  H33  1  0.76412827  0.48933425  0.16576906  1  0.014837  0  0.087305  0.11464  0  1.034028  0
C  C34  1  0.99966966  0.73662956  0.47014763  1  1.557981  0  0.227914  0.640512  0  4.137348  0
C  C35  1  0.29393905  0.97519563  0.23193802  1  1.540472  0  0.2283  0.641842  0  4.136015  0
C  C36  1  0.99696321  0.27458822  0.49527629  1  1.55755  0  0.233394  0.647447  0  4.123007  0
C  C37  1  0.73299958  0.00018166  0.76940119  1  1.547781  0  0.233063  0.647218  0  4.122767  0
C  C38  1  0.98653870  0.74223114  0.76592578  1  1.496067  0  0.239433  0.653689  0  4.050961  0
C  C39  1  0.73605502  0.00102173  0.48129632  1  1.58329  0  0.226347  0.645876  0  4.152175  0
C  C40  1  0.00601054  0.27049388  0.23684892  1  1.482856  0  0.239103  0.653879  0  4.050446  0
C  C41  1  0.28126870  0.98650022  0.49657823  1  1.58227  0  0.226078  0.645681  0  4.150706  0
C  C42  1  0.27497104  0.72350879  0.49356545  1  1.571901  0  0.225372  0.64546  0  4.159108  0
C  C43  1  0.99872940  0.00106635  0.76691617  1  1.558626  0  0.229169  0.644663  0  4.153569  0
C  C44  1  0.73312077  0.27193527  0.49499435  1  1.581371  0  0.22999  0.646991  0  4.148878  0
C  C45  1  0.00831680  0.99821942  0.21835286  1  1.573131  0  0.225087  0.643871  0  4.160595  0
C  C46  1  0.92686151  0.42509129  0.55584323  1  0.046931  0  -0.021217  -0.101585  0  3.985965  0
C  C47  1  0.05311849  0.60236730  0.39286658  1  0.04994  0  -0.017502  -0.087303  0  3.965061  0
C  C48  1  0.98879248  0.37006252  0.48896098  1  -0.198488  0  -0.016309  -0.161254  0  3.913711  0
C  C49  1  0.99634279  0.65253328  0.46383262  1  -0.189833  0  -0.026228  -0.177557  0  3.939652  0
C  C50  1  0.02702611  0.51901785  0.42711155  1  -0.189049  0  -0.01095  -0.028368  0  4.046505  0
C  C51  1  0.95166014  0.50928427  0.51918217  1  -0.112954  0  -0.014012  -0.023397  0  4.077135  0
C  C52  1  0.45218647  0.89769257  0.09797946  1  0.108606  0  -0.017277  -0.087257  0  3.966611  0
C  C53  1  0.59257154  0.06068457  0.92011393  1  0.08247  0  -0.021449  -0.101461  0  3.986536  0
C  C54  1  0.38777607  0.96882715  0.14791874  1  -0.229365  0  -0.02597  -0.177486  0  3.938442  0
C  C55  1  0.65234598  0.99377619  0.86510546  1  -0.177809  0  -0.016454  -0.161283  0  3.915616  0
C  C56  1  0.52028121  0.02410336  0.00444088  1  -0.155786  0  -0.014353  -0.023798  0  4.07898  0
C  C57  1  0.52722481  0.93196265  0.01440158  1  -0.150936  0  -0.010784  -0.027576  0  4.048354  0
C  C58  1  0.07769023  0.94375425  0.89453566  1  0.027724  0  -0.018312  -0.102874  0  4.019405  0
C  C59  1  0.93682713  0.06725325  0.08210521  1  0.032011  0  -0.015898  -0.09638  0  4.007249  0
C  C60  1  0.00299207  0.00488293  0.85213807  1  -0.12115  0  -0.013961  -0.14111  0  3.938181  0
C  C61  1  0.00802808  0.00094100  0.12814939  1  -0.13052  0  -0.021277  -0.155615  0  3.967129  0
C  C62  1  0.96037058  0.04405993  0.99845197  1  -0.160097  0  -0.016066  -0.036924  0  4.053161  0
C  C63  1  0.05102618  0.96419832  0.98082280  1  -0.148061  0  -0.01832  -0.048257  0  4.083172  0
C  C64  1  0.41296643  0.58593065  0.56314112  1  0.020855  0  -0.01554  -0.094526  0  4.003778  0
C  C65  1  0.58451672  0.40109538  0.43617368  1  0.063932  0  -0.0178  -0.104517  0  4.01774  0
C  C66  1  0.36285520  0.63341976  0.49589898  1  -0.154127  0  -0.021884  -0.157688  0  3.967986  0
C  C67  1  0.63965090  0.35704230  0.49850072  1  -0.145445  0  -0.012805  -0.138414  0  3.930441  0
C  C68  1  0.50405879  0.48673166  0.45789964  1  -0.193617  0  -0.018397  -0.048464  0  4.086252  0
C  C69  1  0.49622238  0.50248364  0.53937157  1  -0.129575  0  -0.015981  -0.036394  0  4.054283  0
C  C70  1  0.02633204  0.62776067  0.92269133  1  -0.00801  0  0.015477  0.151497  0  3.846672  0
C  C71  1  0.90052964  0.62474705  0.88664222  1  -0.030792  0  -0.096174  -0.172453  0  4.000833  0
C  C72  1  0.87824268  0.55227879  0.97287322  1  -0.004887  0  -0.004053  0.132319  0  3.942591  0
C  C73  1  0.93898891  0.50692767  0.03396823  1  -0.005485  0  0.001704  -0.031528  0  3.874779  0
C  C74  1  0.92363098  0.42774154  0.12308429  1  0.031124  0  0.01551  0.152001  0  3.846884  0
C  C75  1  0.08945090  0.39053051  0.11869088  1  -0.027627  0  -0.095588  -0.171192  0  3.999876  0
C  C76  1  0.09808645  0.47673567  0.04624641  1  0.080263  0  -0.004402  0.133827  0  3.940929  0
C  C77  1  0.02097776  0.53851648  0.00170076  1  -0.062132  0  0.001356  -0.032566  0  3.874409  0
C  C78  1  0.97141109  0.66458700  0.86139943  1  -0.029322  0  -0.027285  -0.120341  0  3.989044  0
C  C79  1  0.00347489  0.36590587  0.15916576  1  -0.092172  0  -0.027602  -0.121632  0  3.988394  0
C  C80  1  0.41851102  0.05499458  0.42615761  1  0.045969  0  -0.01808  -0.097378  0  4.008124  0
C  C81  1  0.60089134  0.93036492  0.54970807  1  0.05124  0  -0.018312  -0.09816  0  4.007837  0
C  C82  1  0.37230217  0.98611859  0.49310516  1  -0.177896  0  -0.021987  -0.16081  0  3.956096  0
C  C83  1  0.64882068  0.99752005  0.48101516  1  -0.190399  0  -0.022214  -0.162767  0  3.956551  0
C  C84  1  0.51965120  0.94861588  0.52650764  1  -0.137568  0  -0.016918  -0.039066  0  4.064256  0
C  C85  1  0.50496225  0.03154429  0.44410697  1  -0.169438  0  -0.017468  -0.042893  0  4.067554  0
C  C86  1  0.84476815  0.41300668  0.65291913  1  1.581202  0  0.222304  0.574402  0  4.162228  0
C  C87  1  0.12668093  0.62390371  0.29132845  1  1.568326  0  0.221576  0.575496  0  4.161115  0
C  C88  1  0.45909990  0.79576424  0.12036422  1  1.564767  0  0.222036  0.577204  0  4.157746  0
C  C89  1  0.59019166  0.15753151  0.90811664  1  1.577552  0  0.221563  0.571821  0  4.163867  0
C  C90  1  0.18037938  0.87958635  0.84773471  1  1.581203  0  0.238622  0.599651  0  4.113264  0
C  C91  1  0.85464898  0.15865374  0.10813578  1  1.596293  0  0.240106  0.603949  0  4.114874  0
C  C92  1  0.37668459  0.60981242  0.65607549  1  1.586153  0  0.241182  0.605712  0  4.11422  0
C  C93  1  0.59398216  0.35778321  0.36829212  1  1.577098  0  0.239142  0.601502  0  4.107199  0
C  C94  1  0.37384582  0.15148772  0.35789229  1  1.600603  0  0.236275  0.604472  0  4.118161  0
C  C95  1  0.61762751  0.86167328  0.64600072  1  1.599815  0  0.235401  0.604422  0  4.116922  0
C  C96  1  0.19414200  0.49235288  0.01281420  1  -0.063766  0  -0.234207  -0.408852  0  3.935431  0
C  C97  1  0.08093643  0.68489994  0.91206262  1  -0.0646  0  -0.246873  -0.430753  0  3.989841  0
C  C98  1  0.79907363  0.51964234  0.98918881  1  -0.040557  0  -0.234273  -0.406447  0  3.93366  0
C  C99  1  0.82243362  0.41743168  0.18088677  1  -0.055594  0  -0.246726  -0.428787  0  3.987171  0
S  S100  1  0.07111462  0.42329465  0.38357032  1  0.411992  0  0.154667  0.242694  0  2.814945  0
S  S101  1  0.91127213  0.60053916  0.56708232  1  0.375019  0  0.126439  0.194812  0  2.911479  0
S  S102  1  0.42162146  0.07209231  0.09571132  1  0.344026  0  0.126326  0.194003  0  2.909153  0
S  S103  1  0.62224476  0.88830688  0.91869689  1  0.392379  0  0.154507  0.242008  0  2.814643  0
S  S104  1  0.90503253  0.09043529  0.91202906  1  0.323663  0  0.131114  0.203651  0  2.728038  0
S  S105  1  0.10519551  0.91466914  0.06876133  1  0.31335  0  0.118464  0.184697  0  2.789185  0
S  S106  1  0.41199222  0.57567375  0.40805831  1  0.335191  0  0.117983  0.182704  0  2.801118  0
S  S107  1  0.59105639  0.41496113  0.58604182  1  0.310829  0  0.132517  0.205251  0  2.731377  0
S  S108  1  0.42930337  0.89751997  0.58031250  1  0.338413  0  0.131259  0.211282  0  2.818105  0
S  S109  1  0.59266887  0.08532087  0.39292264  1  0.349643  0  0.132404  0.214452  0  2.816029  0
O  O110  1  0.93276963  0.77066875  0.54126137  1  -1.184621  0  -0.338215  -0.596811  0  2.28336  0
O  O111  1  0.25564593  0.04621822  0.26610164  1  -1.17196  0  -0.337872  -0.596911  0  2.283021  0
O  O112  1  0.06948654  0.23383169  0.43095346  1  -1.167746  0  -0.334594  -0.583858  0  2.282426  0
O  O113  1  0.76554204  0.93577590  0.72873599  1  -1.167135  0  -0.33443  -0.58361  0  2.280624  0
O  O114  1  0.05991934  0.77122109  0.72987912  1  -1.175808  0  -0.354893  -0.609038  0  2.301094  0
O  O115  1  0.77160480  0.06753120  0.41436832  1  -1.175044  0  -0.344113  -0.596522  0  2.264501  0
O  O116  1  0.93979480  0.23443005  0.26566181  1  -1.167972  0  -0.35308  -0.607148  0  2.300972  0
O  O117  1  0.24626954  0.91936174  0.56291973  1  -1.175091  0  -0.345433  -0.600072  0  2.263067  0
O  O118  1  0.24150820  0.75716874  0.42360839  1  -1.178383  0  -0.356469  -0.611022  0  2.272083  0
O  O119  1  0.92864357  0.07018516  0.73302320  1  -1.173011  0  -0.360303  -0.616808  0  2.267553  0
O  O120  1  0.76727226  0.23812503  0.56466367  1  -1.180925  0  -0.36027  -0.619022  0  2.266176  0
O  O121  1  0.07844777  0.92857093  0.25162642  1  -1.177032  0  -0.355933  -0.61128  0  2.270432  0
O  O122  1  0.06498263  0.92883432  0.73370629  1  -1.176923  0  -0.346799  -0.597996  0  2.31144  0
O  O123  1  0.77322394  0.23868954  0.42267557  1  -1.170796  0  -0.3473  -0.597939  0  2.315914  0
O  O124  1  0.93785473  0.06660498  0.25597900  1  -1.175045  0  -0.352734  -0.605572  0  2.305285  0
O  O125  1  0.23908908  0.76067166  0.56240143  1  -1.176684  0  -0.353616  -0.608452  0  2.305339  0
O  O126  1  0.92570785  0.77461865  0.72034837  1  -1.1794  0  -0.374957  -0.633212  0  2.307387  0
O  O127  1  0.24401462  0.05680104  0.43022138  1  -1.183547  0  -0.363247  -0.620077  0  2.312515  0
O  O128  1  0.07981994  0.22501864  0.26953752  1  -1.179506  0  -0.375634  -0.63363  0  2.308901  0
O  O129  1  0.76953623  0.93449775  0.55146898  1  -1.182985  0  -0.364149  -0.621437  0  2.313098  0
O  O130  1  0.76561214  0.07148469  0.73162979  1  -1.188048  0  -0.347285  -0.613937  0  2.350478  0
O  O131  1  0.07163505  0.76904183  0.40549531  1  -1.190061  0  -0.347122  -0.608812  0  2.339818  0
O  O132  1  0.25409765  0.91071565  0.26403044  1  -1.183278  0  -0.347401  -0.609537  0  2.339158  0
O  O133  1  0.93045163  0.23713435  0.56627037  1  -1.192371  0  -0.347673  -0.614107  0  2.34853  0
O  O134  1  0.82176924  0.06252988  0.55052158  1  -1.229639  0  -0.691668  -1.071116  0  2.341483  0
O  O135  1  0.06469686  0.05587522  0.55763417  1  -1.233873  0  -0.691748  -1.07045  0  2.34035  0
O  O136  1  0.07137718  0.05339621  0.31344163  1  -1.251738  0  -0.693931  -1.070915  0  2.350459  0
O  O137  1  0.06184186  0.81847697  0.54858533  1  -1.247878  0  -0.694451  -1.072298  0  2.350945  0
O  O138  1  0.13913601  0.94898992  0.45159144  1  -1.20225  0  -0.79055  -1.152002  0  2.128527  0
O  O139  1  0.96052515  0.95639157  0.44397322  1  -1.203464  0  -0.790401  -1.151865  0  2.127973  0
O  O140  1  0.96211118  0.12930327  0.45116411  1  -1.195692  0  -0.79318  -1.151381  0  2.145059  0
O  O141  1  0.95712885  0.95639281  0.62432636  1  -1.194541  0  -0.792525  -1.150755  0  2.144463  0
O  O142  1  0.81679165  0.33593902  0.69173145  1  -1.16451  0  -0.337454  -0.464728  0  2.282547  0
O  O143  1  0.80449284  0.47600026  0.69422246  1  -1.104967  0  -0.28541  -0.453969  0  2.0774  0
O  O144  1  0.15889837  0.69690203  0.25941766  1  -1.153618  0  -0.341819  -0.476409  0  2.29897  0
O  O145  1  0.15427449  0.57494356  0.23880478  1  -1.102331  0  -0.286195  -0.460648  0  2.069255  0
O  O146  1  0.38559475  0.76409861  0.19312575  1  -1.136576  0  -0.341755  -0.477638  0  2.297065  0
O  O147  1  0.53360618  0.74261674  0.07245455  1  -1.105611  0  -0.286946  -0.462588  0  2.069238  0
O  O148  1  0.65654624  0.19612399  0.83100064  1  -1.135144  0  -0.336921  -0.463341  0  2.283992  0
O  O149  1  0.52660155  0.19869957  0.97130494  1  -1.106125  0  -0.28525  -0.453164  0  2.076997  0
O  O150  1  0.21373341  0.78545804  0.90329719  1  -1.104913  0  -0.317432  -0.442912  0  2.203249  0
O  O151  1  0.23474882  0.91149270  0.76725148  1  -1.100027  0  -0.26245  -0.436189  0  2.122958  0
O  O152  1  0.76422717  0.15165105  0.17086371  1  -1.108138  0  -0.321171  -0.457734  0  2.257505  0
O  O153  1  0.86739713  0.23649507  0.07059693  1  -1.088987  0  -0.251378  -0.41473  0  2.044796  0
O  O154  1  0.40457423  0.67685759  0.65086315  1  -1.094866  0  -0.321481  -0.457526  0  2.256442  0
O  O155  1  0.32834289  0.56676233  0.73377765  1  -1.087709  0  -0.25298  -0.417734  0  2.043008  0
O  O156  1  0.59363367  0.41856867  0.27653432  1  -1.083983  0  -0.318358  -0.444492  0  2.201674  0
O  O157  1  0.59365769  0.27581405  0.39490666  1  -1.093212  0  -0.2623  -0.436295  0  2.126789  0
O  O158  1  0.39478011  0.15467088  0.26592196  1  -1.111763  0  -0.324468  -0.456631  0  2.255897  0
O  O159  1  0.32508317  0.22530340  0.38341129  1  -1.090483  0  -0.265747  -0.426577  0  2.030175  0
O  O160  1  0.68650530  0.77026999  0.64850927  1  -1.09748  0  -0.324491  -0.457701  0  2.257654  0
O  O161  1  0.56637005  0.88641960  0.72025827  1  -1.08973  0  -0.265659  -0.426606  0  2.027633  0
