# generated using pymatgen
data_CuAg2H14(C8N3)2
_symmetry_space_group_name_H-M   'P 1'
_cell_length_a   9.53754768
_cell_length_b   10.50519939
_cell_length_c   10.50521993
_cell_angle_alpha   113.81885747
_cell_angle_beta   99.20909377
_cell_angle_gamma   99.20974041
_symmetry_Int_Tables_number   1
_chemical_formula_structural   CuAg2H14(C8N3)2
_chemical_formula_sum   'Cu2 Ag4 H28 C32 N12'
_cell_volume   920.60779931
_cell_formula_units_Z   2
loop_
 _symmetry_equiv_pos_site_id
 _symmetry_equiv_pos_as_xyz
  1  'x, y, z'
loop_
 _atom_site_type_symbol
 _atom_site_label
 _atom_site_symmetry_multiplicity
 _atom_site_fract_x
 _atom_site_fract_y
 _atom_site_fract_z
 _atom_site_occupancy
 _atom_site_pbe_bader_charge
 _atom_site_pbe_bader_spin_density
 _atom_site_pbe_cm5_charge
 _atom_site_pbe_ddec_charge
 _atom_site_pbe_ddec_spin_density
 _atom_site_pbe_ddec_sum_bond_order
 _atom_site_pbe_magmom
Cu  Cu0  1  0.24999936  0.92305334  0.07694704  1  1.092027  0.568628  0.817537  0.720499  0.731017  2.590177  0.566
Cu  Cu1  1  0.74999928  0.07694848  0.92305073  1  1.092031  0.568625  0.817542  0.720439  0.731015  2.590263  0.566
Ag  Ag2  1  0.25000001  0.21628318  0.78371534  1  0.418633  0.005291  0.31461  0.145265  0.004041  2.566936  0.004
Ag  Ag3  1  0.74999997  0.78371971  0.21628116  1  0.41864  0.005292  0.314581  0.145178  0.004041  2.567035  0.004
Ag  Ag4  1  0.99999753  0.99999087  0.50000080  1  0.418539  0.005799  0.34395  0.197218  0.0033  2.505005  0.005
Ag  Ag5  1  0.50000271  0.50000769  0.00000830  1  0.418498  0.005799  0.343937  0.197234  0.0033  2.505037  0.005
H  H6  1  0.05353017  0.67613258  0.07197508  1  0.101853  0.003694  0.115357  0.087245  0.001797  1.006489  0.002
H  H7  1  0.55352464  0.07197921  0.67613008  1  0.102088  0.003694  0.115342  0.087203  0.001797  1.006491  0.002
H  H8  1  0.94647378  0.32386923  0.92802346  1  0.101842  0.003694  0.115351  0.087226  0.001797  1.006503  0.002
H  H9  1  0.44646766  0.92802691  0.32387041  1  0.101822  0.003694  0.11534  0.087185  0.001797  1.006489  0.002
H  H10  1  0.81460306  0.50034072  0.92781196  1  0.090965  0.001823  0.098219  0.109036  0.000917  1.047509  0.001
H  H11  1  0.31460177  0.92780854  0.50033894  1  0.090968  0.001823  0.098219  0.109015  0.000917  1.047538  0.001
H  H12  1  0.18539876  0.49966110  0.07219104  1  0.090986  0.001823  0.098195  0.108974  0.000917  1.047551  0.001
H  H13  1  0.68539610  0.07219864  0.49966089  1  0.091073  0.001823  0.098199  0.108952  0.000917  1.04753  0.001
H  H14  1  0.78841673  0.71582562  0.65443349  1  0.110436  0.001878  0.109285  0.131254  0.000922  1.01916  0.001
H  H15  1  0.28841703  0.65443351  0.71583158  1  0.110412  0.001878  0.109279  0.131245  0.000922  1.01927  0.001
H  H16  1  0.21158185  0.28416760  0.34556461  1  0.110424  0.001878  0.109285  0.13125  0.000922  1.019288  0.001
H  H17  1  0.71158267  0.34556831  0.28416729  1  0.11035  0.001878  0.109278  0.131273  0.000922  1.019219  0.001
H  H18  1  0.02682396  0.88392012  0.81114005  1  0.119433  0.003409  0.114873  0.09023  0.00158  1.036235  0.002
H  H19  1  0.52682340  0.81114190  0.88391753  1  0.119489  0.003409  0.114861  0.090235  0.00158  1.036241  0.002
H  H20  1  0.97317385  0.11607847  0.18885821  1  0.119423  0.003409  0.114885  0.09031  0.00158  1.036151  0.002
H  H21  1  0.47318027  0.18885884  0.11607673  1  0.119425  0.003409  0.114921  0.090333  0.00158  1.036172  0.002
H  H22  1  0.62085690  0.38830369  0.68977009  1  0.02568  -1.9e-05  0.089892  0.133487  -2.6e-05  1.002011  0.0
H  H23  1  0.12085566  0.68976251  0.38830571  1  0.02588  -1.9e-05  0.089916  0.133478  -2.6e-05  1.001987  0.0
H  H24  1  0.37914487  0.61168952  0.31023799  1  0.025836  -1.9e-05  0.089938  0.133494  -2.6e-05  1.001977  0.0
H  H25  1  0.87913388  0.31022856  0.61169020  1  0.025639  -1.9e-05  0.089893  0.133477  -2.6e-05  1.001872  0.0
H  H26  1  0.54345671  0.53734725  0.73172671  1  0.07318  -0.000342  0.091996  0.137041  -0.000295  1.02615  0.0
H  H27  1  0.04345620  0.73172017  0.53735415  1  0.073139  -0.000342  0.091991  0.137045  -0.000295  1.02617  0.0
H  H28  1  0.45654424  0.46264275  0.26827900  1  0.073118  -0.000342  0.091988  0.137011  -0.000295  1.026219  0.0
H  H29  1  0.95654210  0.26827198  0.46265109  1  0.073145  -0.000342  0.092  0.137027  -0.000295  1.02619  0.0
H  H30  1  0.61441815  0.47982151  0.57833447  1  0.091368  -5.6e-05  0.099332  0.150293  -5.1e-05  0.995521  0.0
H  H31  1  0.11441905  0.57833129  0.47982854  1  0.091273  -5.6e-05  0.099352  0.150324  -5.1e-05  0.995685  0.0
H  H32  1  0.38557800  0.52016634  0.42166872  1  0.091258  -5.6e-05  0.099369  0.150358  -5.1e-05  0.995619  0.0
H  H33  1  0.88558222  0.42166837  0.52017732  1  0.091333  -5.6e-05  0.099312  0.150249  -5.1e-05  0.995583  0.0
C  C34  1  0.10582077  0.97447794  0.34168623  1  0.782083  -0.003091  -0.018201  -0.009818  -0.003676  3.784986  0.002
C  C35  1  0.60582788  0.34169275  0.97448938  1  0.781794  -0.003093  -0.018222  -0.009837  -0.003676  3.784926  0.002
C  C36  1  0.89417198  0.02551743  0.65831379  1  0.781987  -0.003093  -0.018154  -0.009734  -0.003677  3.78475  0.002
C  C37  1  0.39417267  0.65831659  0.02551837  1  0.782086  -0.003093  -0.018148  -0.0098  -0.003676  3.784826  0.002
C  C38  1  0.25000098  0.10073293  0.89926775  1  0.761729  -0.003983  -0.006376  0.025719  -0.004627  3.730748  0.003
C  C39  1  0.74999924  0.89926674  0.10072653  1  0.761421  -0.003982  -0.006373  0.025714  -0.004627  3.730743  0.003
C  C40  1  0.24999907  0.33145734  0.66853360  1  0.661056  0.000979  -0.069395  -0.102701  0.000564  3.922361  0.001
C  C41  1  0.75000011  0.66854662  0.33146511  1  0.66094  0.000979  -0.069316  -0.10249  0.000565  3.922178  0.001
C  C42  1  0.99109398  0.68086564  0.97837970  1  0.427276  -0.000405  0.04103  0.096357  -0.00122  3.958141  0.0
C  C43  1  0.49109313  0.97837972  0.68086388  1  0.427204  -0.000406  0.041094  0.096412  -0.00122  3.958159  0.0
C  C44  1  0.00890572  0.31913618  0.02162203  1  0.427386  -0.000405  0.041069  0.096376  -0.00122  3.958161  0.0
C  C45  1  0.50890180  0.02162425  0.31913518  1  0.427377  -0.000405  0.041085  0.096456  -0.00122  3.958104  0.0
C  C46  1  0.85752115  0.58341577  0.89713496  1  -0.035428  0.008241  -0.092909  -0.208643  0.005676  3.954373  0.007
C  C47  1  0.35752194  0.89713108  0.58341342  1  -0.035209  0.008242  -0.092907  -0.208603  0.005676  3.954327  0.007
C  C48  1  0.14247854  0.41658605  0.10286962  1  -0.035234  0.008242  -0.09291  -0.208587  0.005676  3.954353  0.007
C  C49  1  0.64247378  0.10287181  0.41658436  1  -0.035287  0.008242  -0.092941  -0.208534  0.005676  3.954309  0.007
C  C50  1  0.77872956  0.59350306  0.77823828  1  0.053423  -0.004652  0.01777  0.229421  -0.005325  3.940227  -0.003
C  C51  1  0.27872958  0.77823389  0.59350121  1  0.053062  -0.004652  0.017771  0.229425  -0.005325  3.940234  -0.003
C  C52  1  0.22127038  0.40649553  0.22176314  1  0.053259  -0.004652  0.017784  0.229422  -0.005325  3.940217  -0.003
C  C53  1  0.72126851  0.22176578  0.40649466  1  0.053267  -0.004652  0.017836  0.229409  -0.005325  3.940177  -0.003
C  C54  1  0.84189803  0.70385882  0.74726330  1  -0.014345  0.008668  -0.081099  -0.177974  0.005843  3.894452  0.007
C  C55  1  0.34189729  0.74726055  0.70385823  1  -0.01417  0.008668  -0.081133  -0.178043  0.005843  3.894576  0.007
C  C56  1  0.15810218  0.29614085  0.25273859  1  -0.014368  0.008669  -0.081114  -0.177999  0.005843  3.894559  0.007
C  C57  1  0.65810347  0.25274127  0.29613890  1  -0.014179  0.008668  -0.081123  -0.178064  0.005843  3.894577  0.007
C  C58  1  0.97616696  0.79721341  0.83293378  1  0.461941  -0.000168  0.047388  0.10217  -0.000882  3.930223  0.0
C  C59  1  0.47616687  0.83293414  0.79721016  1  0.461947  -0.000168  0.047351  0.102096  -0.000883  3.930167  0.0
C  C60  1  0.02383192  0.20278519  0.16706463  1  0.461943  -0.000168  0.047318  0.101986  -0.000882  3.930211  0.0
C  C61  1  0.52383389  0.16706768  0.20278507  1  0.462286  -0.000171  0.047308  0.102068  -0.000882  3.930331  0.0
C  C62  1  0.63265862  0.49375618  0.68946641  1  -0.08795  0.000434  -0.238625  -0.429048  0.000208  3.928579  0.0
C  C63  1  0.13265811  0.68946263  0.49376015  1  -0.088078  0.000434  -0.238648  -0.429062  0.000208  3.928702  0.0
C  C64  1  0.36734047  0.50623489  0.31053660  1  -0.087833  0.000434  -0.238685  -0.429088  0.000208  3.928715  0.0
C  C65  1  0.86733889  0.31053274  0.50623859  1  -0.087793  0.000434  -0.238606  -0.428947  0.000208  3.928509  0.0
N  N66  1  0.16567196  0.95856717  0.24944858  1  -1.348476  0.033444  -0.385227  -0.365383  0.022617  3.48305  0.031
N  N67  1  0.66567158  0.24944801  0.95856921  1  -1.348208  0.033444  -0.385215  -0.365404  0.022617  3.483073  0.031
N  N68  1  0.83432591  0.04144002  0.75055600  1  -1.348396  0.033452  -0.385284  -0.36547  0.022621  3.482932  0.031
N  N69  1  0.33432496  0.75055810  0.04144046  1  -1.348441  0.033451  -0.385272  -0.365389  0.022621  3.48291  0.031
N  N70  1  0.25000011  0.03422802  0.96576643  1  -1.336579  0.049102  -0.396555  -0.374937  0.032848  3.546397  0.043
N  N71  1  0.75000011  0.96577165  0.03422784  1  -1.336283  0.049099  -0.396546  -0.374878  0.032847  3.546276  0.043
N  N72  1  0.25000002  0.39812558  0.60187150  1  -1.278546  0.000656  -0.354487  -0.337193  0.000406  3.056989  0.0
N  N73  1  0.74999971  0.60188053  0.39813007  1  -1.278425  0.000656  -0.354536  -0.337341  0.000406  3.056909  0.0
N  N74  1  0.04998092  0.78630107  0.94680705  1  -1.219922  0.133903  -0.333723  -0.212593  0.088138  3.57899  0.114
N  N75  1  0.54998009  0.94680796  0.78629731  1  -1.220134  0.133904  -0.333707  -0.212486  0.088137  3.578965  0.114
N  N76  1  0.95001745  0.21369967  0.05319215  1  -1.220006  0.133906  -0.333682  -0.21246  0.088139  3.578981  0.114
N  N77  1  0.45001748  0.05319386  0.21369841  1  -1.220381  0.133904  -0.333709  -0.212606  0.088137  3.579037  0.114
