# generated using pymatgen
data_CoH(CO)5
_symmetry_space_group_name_H-M   'P 1'
_cell_length_a   6.75631226
_cell_length_b   15.23500407
_cell_length_c   15.23266714
_cell_angle_alpha   117.84482552
_cell_angle_beta   98.49302613
_cell_angle_gamma   98.51911104
_symmetry_Int_Tables_number   1
_chemical_formula_structural   CoH(CO)5
_chemical_formula_sum   'Co6 H6 C30 O30'
_cell_volume   1328.25745703
_cell_formula_units_Z   6
loop_
 _symmetry_equiv_pos_site_id
 _symmetry_equiv_pos_as_xyz
  1  'x, y, z'
loop_
 _atom_site_type_symbol
 _atom_site_label
 _atom_site_symmetry_multiplicity
 _atom_site_fract_x
 _atom_site_fract_y
 _atom_site_fract_z
 _atom_site_occupancy
 _atom_site_pbe_bader_charge
 _atom_site_pbe_bader_spin_density
 _atom_site_pbe_cm5_charge
 _atom_site_pbe_ddec_charge
 _atom_site_pbe_ddec_spin_density
 _atom_site_pbe_ddec_sum_bond_order
 _atom_site_pbe_magmom
Co  Co0  1  0.52295531  0.40115104  0.72713050  1  1.283021  2.567056  0.640486  0.953756  2.776055  2.471294  2.542
Co  Co1  1  0.79591852  0.27291729  0.67400326  1  1.277746  2.567715  0.640751  0.953657  2.777503  2.471492  2.543
Co  Co2  1  0.12178688  0.32595531  0.59880818  1  1.276163  2.567221  0.6408  0.953388  2.775402  2.471219  2.542
Co  Co3  1  0.47705650  0.59885378  0.27286849  1  1.282996  2.5671  0.640459  0.953767  2.776102  2.471267  2.542
Co  Co4  1  0.20409623  0.72707834  0.32598311  1  1.277702  2.567734  0.640681  0.953478  2.777555  2.471573  2.543
Co  Co5  1  0.87822497  0.67404645  0.40117823  1  1.276426  2.567215  0.640811  0.953502  2.775442  2.470876  2.542
H  H6  1  0.18103775  0.53206540  0.55743140  1  0.123608  0.000878  0.110027  0.136971  0.000261  1.005774  0.0
H  H7  1  0.62355106  0.44266430  0.97470817  1  0.089646  0.000935  0.110196  0.137522  0.000265  1.005189  0.0
H  H8  1  0.64896482  0.02531939  0.46786908  1  0.107766  0.000893  0.109742  0.136894  0.000258  1.006875  0.0
H  H9  1  0.81896002  0.46791414  0.44254041  1  0.123938  0.000878  0.110099  0.137155  0.000261  1.005858  0.0
H  H10  1  0.37645491  0.55732290  0.02528418  1  0.08952  0.000935  0.110223  0.137525  0.000265  1.005256  0.0
H  H11  1  0.35104864  0.97468237  0.53210299  1  0.107685  0.000893  0.109762  0.136921  0.000258  1.00685  0.0
C  C12  1  0.74890123  0.39032849  0.56168325  1  1.508292  -0.003235  0.228342  0.63765  -0.005688  4.07971  -0.003
C  C13  1  0.18722793  0.43829124  0.82859202  1  1.496748  -0.003307  0.227673  0.636597  -0.005805  4.08116  -0.003
C  C14  1  0.35871335  0.17141411  0.60971071  1  1.509764  -0.003203  0.229004  0.639391  -0.005624  4.079381  -0.003
C  C15  1  0.25112063  0.60966943  0.43830926  1  1.50816  -0.00323  0.22837  0.637561  -0.005682  4.0799  -0.003
C  C16  1  0.81277806  0.56169596  0.17139705  1  1.497074  -0.003305  0.227752  0.636671  -0.005803  4.081084  -0.003
C  C17  1  0.64130499  0.82859148  0.39026676  1  1.510261  -0.003203  0.229084  0.6398  -0.005619  4.079081  -0.003
C  C18  1  0.61973385  0.44736816  0.53289417  1  -0.023823  0.0194  -0.030134  -0.143375  0.009871  3.971904  0.014
C  C19  1  0.08685668  0.46703671  0.91446128  1  0.023643  0.019456  -0.03012  -0.143803  0.009976  3.969714  0.014
C  C20  1  0.17245964  0.08553626  0.55258565  1  -0.007914  0.019508  -0.031194  -0.145434  0.009964  3.971836  0.014
C  C21  1  0.38026285  0.55261827  0.46708473  1  -0.022986  0.019382  -0.030184  -0.143485  0.009863  3.972058  0.014
C  C22  1  0.91314028  0.53294742  0.08552838  1  0.0227  0.01945  -0.030159  -0.143915  0.009972  3.969838  0.014
C  C23  1  0.82754747  0.91446474  0.44738105  1  -0.007687  0.019498  -0.031045  -0.145137  0.009959  3.971265  0.014
C  C24  1  0.43576307  0.46583254  0.56667894  1  0.598925  0.011575  0.074502  0.307169  0.007452  4.08606  0.006
C  C25  1  0.86905431  0.43329055  0.89916754  1  0.615477  0.011815  0.074757  0.306208  0.007613  4.086627  0.007
C  C26  1  0.96997269  0.10081950  0.53412673  1  0.562315  0.011991  0.075336  0.307756  0.007564  4.086056  0.007
C  C27  1  0.56425748  0.53414776  0.43330067  1  0.599216  0.011579  0.074682  0.307464  0.007455  4.085756  0.006
C  C28  1  0.13095583  0.56669588  0.10081554  1  0.615947  0.01182  0.074719  0.305978  0.007617  4.086892  0.007
C  C29  1  0.03005201  0.89918686  0.46585283  1  0.562447  0.011996  0.075242  0.307517  0.007568  4.085991  0.007
C  C30  1  0.32130521  0.51800903  0.53201610  1  -0.037341  0.021666  -0.100842  -0.203812  0.011405  3.951677  0.014
C  C31  1  0.78924303  0.46799946  0.98601261  1  -0.06003  0.021787  -0.10016  -0.202051  0.011401  3.948794  0.014
C  C32  1  0.80327844  0.01398019  0.48193223  1  -0.004146  0.021864  -0.099443  -0.202052  0.011558  3.951173  0.014
C  C33  1  0.67870461  0.48197664  0.46795807  1  -0.037639  0.021681  -0.100919  -0.204118  0.011414  3.951977  0.014
C  C34  1  0.21076370  0.53198621  0.01397514  1  -0.060611  0.021792  -0.100088  -0.201853  0.011402  3.948857  0.014
C  C35  1  0.19674851  0.98602464  0.51804283  1  -0.004057  0.021867  -0.099416  -0.201862  0.011559  3.951115  0.014
C  C36  1  0.73556119  0.64416741  0.90834706  1  2.158234  0.003496  0.379736  0.739017  0.001943  4.095081  0.003
C  C37  1  0.82757584  0.09177004  0.73592606  1  2.13328  0.003465  0.378832  0.73812  0.001941  4.092845  0.003
C  C38  1  0.09119741  0.26413374  0.35569911  1  2.119621  0.003492  0.378988  0.736911  0.001943  4.095846  0.003
C  C39  1  0.26428789  0.35589180  0.09185746  1  2.146292  0.003532  0.379635  0.738421  0.001951  4.094277  0.003
C  C40  1  0.17241581  0.90821180  0.26401687  1  2.133689  0.00346  0.379016  0.738405  0.001939  4.092674  0.003
C  C41  1  0.90883518  0.73585883  0.64429818  1  2.120757  0.003496  0.379059  0.737105  0.001944  4.095523  0.003
O  O42  1  0.68494135  0.35403673  0.61675401  1  -1.15645  0.125052  -0.317572  -0.593778  0.064244  2.680022  0.117
O  O43  1  0.06827486  0.38330284  0.73724516  1  -1.157225  0.124837  -0.317111  -0.592262  0.064175  2.680271  0.117
O  O44  1  0.33101837  0.26272665  0.64600452  1  -1.151507  0.124624  -0.317047  -0.593298  0.064047  2.677752  0.117
O  O45  1  0.31510578  0.64598495  0.38326177  1  -1.156781  0.125058  -0.31756  -0.593589  0.064249  2.679775  0.117
O  O46  1  0.93174313  0.61668436  0.26274143  1  -1.157172  0.124843  -0.317118  -0.592297  0.064175  2.680155  0.117
O  O47  1  0.66900074  0.73728048  0.35397306  1  -1.1517  0.124618  -0.317002  -0.593601  0.064042  2.677685  0.117
O  O48  1  0.91356973  0.37592396  0.53213970  1  -1.149531  0.066002  -0.301352  -0.548739  0.034242  2.327623  0.056
O  O49  1  0.38143405  0.46789739  0.84376127  1  -1.138454  0.065892  -0.300895  -0.54884  0.034098  2.329638  0.056
O  O50  1  0.53776512  0.15626879  0.62407627  1  -1.149456  0.066101  -0.302401  -0.550313  0.034318  2.328471  0.056
O  O51  1  0.08644872  0.62406707  0.46784280  1  -1.149089  0.065995  -0.301443  -0.548806  0.034237  2.3278  0.056
O  O52  1  0.61857718  0.53209134  0.15623150  1  -1.138573  0.065874  -0.300954  -0.548778  0.034094  2.329429  0.056
O  O53  1  0.46225398  0.84373527  0.37589725  1  -1.149679  0.066104  -0.302478  -0.550467  0.034316  2.328409  0.056
O  O54  1  0.36563996  0.43710801  0.62989112  1  -1.138726  0.170088  -0.34981  -0.583779  0.091551  2.576897  0.149
O  O55  1  0.73577415  0.37005012  0.80723856  1  -1.137362  0.170475  -0.350566  -0.584295  0.091948  2.576844  0.149
O  O56  1  0.92868561  0.19274005  0.56286259  1  -1.134883  0.170796  -0.350246  -0.584235  0.091835  2.577529  0.15
O  O57  1  0.63438152  0.56288609  0.37009367  1  -1.138968  0.170119  -0.349875  -0.58391  0.091564  2.576555  0.149
O  O58  1  0.26423839  0.62994704  0.19274706  1  -1.137329  0.17049  -0.350521  -0.584192  0.09195  2.576888  0.149
O  O59  1  0.07133002  0.80726324  0.43712150  1  -1.134762  0.170772  -0.350213  -0.584176  0.091826  2.577661  0.15
O  O60  1  0.73106337  0.70216986  0.99212757  1  -1.069779  0.003893  -0.169544  -0.339672  0.001791  2.127621  0.003
O  O61  1  0.73962438  0.00793853  0.71016030  1  -1.054777  0.003874  -0.168758  -0.339059  0.001788  2.126544  0.003
O  O62  1  0.02865147  0.28976161  0.29757139  1  -1.047439  0.003879  -0.169077  -0.338408  0.00179  2.128058  0.003
O  O63  1  0.26872344  0.29784029  0.00809520  1  -1.072102  0.003902  -0.169216  -0.338708  0.001794  2.126788  0.003
O  O64  1  0.26037640  0.99204024  0.28975490  1  -1.054877  0.003871  -0.169048  -0.339194  0.001787  2.125913  0.003
O  O65  1  0.97140075  0.71023709  0.70241629  1  -1.049239  0.003879  -0.169142  -0.338486  0.001789  2.128287  0.003
O  O66  1  0.74280794  0.58758673  0.82402915  1  -1.09758  0.013306  -0.164522  -0.36178  0.006281  2.248857  0.005
O  O67  1  0.91879574  0.17614956  0.76365762  1  -1.087585  0.013349  -0.164326  -0.361364  0.006271  2.247185  0.005
O  O68  1  0.15508917  0.23653584  0.41240041  1  -1.080612  0.013309  -0.164204  -0.360844  0.006283  2.248681  0.005
O  O69  1  0.25709056  0.41252612  0.17618664  1  -1.083268  0.013295  -0.164619  -0.362028  0.006288  2.248931  0.006
O  O70  1  0.08119705  0.82384377  0.23630716  1  -1.087887  0.013343  -0.164246  -0.36152  0.006269  2.247588  0.005
O  O71  1  0.84492629  0.76345826  0.58758726  1  -1.080037  0.013323  -0.164197  -0.36096  0.006284  2.248073  0.005
