# generated using pymatgen
data_AlH9C15N2O5F
_symmetry_space_group_name_H-M   'P 1'
_cell_length_a   6.64120843
_cell_length_b   16.95405366
_cell_length_c   17.69666062
_cell_angle_alpha   87.36513700
_cell_angle_beta   80.98582311
_cell_angle_gamma   82.54148183
_symmetry_Int_Tables_number   1
_chemical_formula_structural   AlH9C15N2O5F
_chemical_formula_sum   'Al2 H18 C30 N4 O10 F2'
_cell_volume   1950.63451507
_cell_formula_units_Z   2
loop_
 _symmetry_equiv_pos_site_id
 _symmetry_equiv_pos_as_xyz
  1  'x, y, z'
loop_
 _atom_site_type_symbol
 _atom_site_label
 _atom_site_symmetry_multiplicity
 _atom_site_fract_x
 _atom_site_fract_y
 _atom_site_fract_z
 _atom_site_occupancy
 _atom_site_pbe_bader_charge
 _atom_site_pbe_bader_spin_density
 _atom_site_pbe_cm5_charge
 _atom_site_pbe_ddec_charge
 _atom_site_pbe_ddec_spin_density
 _atom_site_pbe_ddec_sum_bond_order
 _atom_site_pbe_magmom
Al  Al0  1  0.49820348  0.49996601  0.49830789  1  2.502675  0  0.396257  1.635537  0  2.5916  0
Al  Al1  1  0.99897851  0.49948885  0.49564733  1  2.504046  0  0.394558  1.639562  0  2.588185  0
H  H2  1  0.76994757  0.54469941  0.40523059  1  0.623815  0  0.353001  0.43137  0  0.854298  0
H  H3  1  0.21379903  0.46611530  0.59146076  1  0.620457  0  0.346967  0.42393  0  0.871077  0
H  H4  1  0.14213008  0.26313666  0.45741100  1  0.117015  0  0.104817  0.107475  0  1.013163  0
H  H5  1  0.20837952  0.11365120  0.45600367  1  0.088998  0  0.099731  0.108689  0  1.030264  0
H  H6  1  0.56482864  0.10371869  0.53364573  1  0.067042  0  0.107496  0.120631  0  1.00486  0
H  H7  1  0.39764683  0.89392160  0.53380193  1  0.111495  0  0.107863  0.121325  0  1.002154  0
H  H8  1  0.81450540  0.88953077  0.45813437  1  0.116969  0  0.100182  0.107548  0  1.033069  0
H  H9  1  0.88186647  0.74000810  0.45589612  1  0.078061  0  0.105788  0.106966  0  1.013095  0
H  H10  1  0.68191284  0.44566227  0.27252538  1  0.097129  0  0.113108  0.119841  0  0.99465  0
H  H11  1  0.76754911  0.44911394  0.13037822  1  0.087086  0  0.107178  0.113136  0  0.995795  0
H  H12  1  0.12572767  0.52341453  0.11612206  1  0.109692  0  0.115592  0.141341  0  0.984314  0
H  H13  1  0.90046928  0.47511569  0.87435767  1  0.099599  0  0.115779  0.140974  0  0.984191  0
H  H14  1  0.32737359  0.55469261  0.72616719  1  0.128251  0  0.11276  0.119211  0  0.999515  0
H  H15  1  0.25502918  0.55098261  0.86863502  1  0.099979  0  0.107106  0.11336  0  0.994681  0
H  H16  1  0.42281318  0.31843167  0.53787435  1  0.493266  0  0.308738  0.322068  0  0.975469  0
H  H17  1  0.33929067  0.22408559  0.55215896  1  0.447317  0  0.308193  0.304874  0  0.954797  0
H  H18  1  0.54522433  0.67995984  0.52590684  1  0.515235  0  0.310091  0.320104  0  0.970606  0
H  H19  1  0.61090473  0.77122453  0.54872120  1  0.44637  0  0.305715  0.302163  0  0.958224  0
C  C20  1  0.31907652  0.48315426  0.36006631  1  1.567861  0  0.271513  0.661377  0  4.096401  0
C  C21  1  0.19662222  0.64482742  0.49265545  1  1.563436  0  0.259427  0.650633  0  4.098339  0
C  C22  1  0.68256229  0.51653004  0.63445482  1  1.617676  0  0.267199  0.656924  0  4.103487  0
C  C23  1  0.80018716  0.35541506  0.50136605  1  1.551732  0  0.256297  0.643227  0  4.103931  0
C  C24  1  0.82092403  0.26807208  0.49926120  1  -0.039062  0  -0.034719  -0.18246  0  3.931554  0
C  C25  1  0.01834791  0.22692087  0.47575241  1  -0.085746  0  -0.088278  -0.069354  0  4.047942  0
C  C26  1  0.05620403  0.14500117  0.47483776  1  0.023096  0  -0.113385  -0.209931  0  4.021  0
C  C27  1  0.88813878  0.10130332  0.49755906  1  0.309385  0  0.084605  0.196132  0  4.080864  0
C  C28  1  0.69036692  0.13989118  0.51808522  1  -2.6e-05  0  -0.092508  -0.264747  0  3.881916  0
C  C29  1  0.65023072  0.22391351  0.52034901  1  0.490018  0  0.116117  0.323516  0  4.064099  0
C  C30  1  0.28478075  0.85884027  0.51782222  1  -0.02932  0  -0.092985  -0.264743  0  3.883289  0
C  C31  1  0.10257719  0.89885795  0.49836212  1  0.391153  0  0.084381  0.19641  0  4.079608  0
C  C32  1  0.95242388  0.85682529  0.47575353  1  -0.114415  0  -0.113847  -0.20835  0  4.020037  0
C  C33  1  0.99090045  0.77484386  0.47460534  1  -0.056605  0  -0.08979  -0.071727  0  4.053454  0
C  C34  1  0.17216434  0.73242593  0.49522153  1  0.016949  0  -0.033943  -0.177148  0  3.93125  0
C  C35  1  0.32504495  0.77486968  0.51720595  1  0.44232  0  0.113176  0.317956  0  4.068631  0
C  C36  1  0.35929738  0.48089335  0.27487519  1  0.05283  0  -0.018396  -0.159287  0  3.949361  0
C  C37  1  0.56166689  0.46163553  0.23719429  1  0.044965  0  -0.071726  -0.052328  0  3.976378  0
C  C38  1  0.60954998  0.46401469  0.15809078  1  -0.009008  0  -0.085358  -0.146608  0  3.949279  0
C  C39  1  0.45361041  0.48733888  0.11278755  1  0.059453  0  0.009751  0.176302  0  4.120552  0
C  C40  1  0.24952836  0.50516596  0.14925373  1  -0.045103  0  -0.09375  -0.263329  0  3.940315  0
C  C41  1  0.20610035  0.50123661  0.22836838  1  0.464253  0  0.114079  0.293745  0  4.038408  0
C  C42  1  0.49833415  0.49494739  0.03219465  1  -0.082298  0  -0.038847  -0.098189  0  4.091178  0
C  C43  1  0.53196061  0.50395474  0.96271247  1  -0.217234  0  -0.035987  -0.09653  0  4.090356  0
C  C44  1  0.57146954  0.51179559  0.88203731  1  0.061112  0  0.009546  0.176112  0  4.122275  0
C  C45  1  0.77292373  0.49378782  0.84311516  1  0.017789  0  -0.092823  -0.261797  0  3.938548  0
C  C46  1  0.80882603  0.49789676  0.76387449  1  0.434805  0  0.112198  0.291131  0  4.032968  0
C  C47  1  0.65074764  0.51857194  0.71959551  1  0.007131  0  -0.018583  -0.157108  0  3.947434  0
C  C48  1  0.45127219  0.53819186  0.75970909  1  0.050815  0  -0.071269  -0.052221  0  3.980347  0
C  C49  1  0.41084451  0.53570442  0.83895193  1  -0.064041  0  -0.085784  -0.147691  0  3.951605  0
N  N50  1  0.90449925  0.01727622  0.49919565  1  -0.500705  0  -0.146504  -0.129406  0  3.266835  0
N  N51  1  0.08507121  0.98286962  0.50041515  1  -0.502675  0  -0.147629  -0.132611  0  3.262687  0
N  N52  1  0.45512697  0.25834840  0.54350237  1  -1.267238  0  -0.582961  -0.600578  0  3.343118  0
N  N53  1  0.50150981  0.73785052  0.53969496  1  -1.294993  0  -0.585458  -0.603363  0  3.334958  0
O  O54  1  0.47544646  0.47594992  0.39460532  1  -1.256592  0  -0.23546  -0.58781  0  2.323572  0
O  O55  1  0.03502864  0.61054420  0.49681311  1  -1.259703  0  -0.245026  -0.59909  0  2.341553  0
O  O56  1  0.86612424  0.50558907  0.59979933  1  -1.252002  0  -0.230906  -0.593809  0  2.382812  0
O  O57  1  0.61761529  0.39331982  0.51465809  1  -1.278144  0  -0.242622  -0.614541  0  2.387786  0
O  O58  1  0.52200892  0.52441956  0.60225502  1  -1.262062  0  -0.235229  -0.587234  0  2.330502  0
O  O59  1  0.96354688  0.38937233  0.49138117  1  -1.263626  0  -0.244609  -0.596981  0  2.345335  0
O  O60  1  0.13327928  0.49369708  0.39234921  1  -1.251713  0  -0.230717  -0.59142  0  2.382036  0
O  O61  1  0.38024499  0.60798645  0.48538370  1  -1.274426  0  -0.244841  -0.6163  0  2.377959  0
O  O62  1  0.75209763  0.53229820  0.45971698  1  -1.425666  0  -0.450484  -0.990192  0  2.200018  0
O  O63  1  0.24238760  0.46805859  0.53589377  1  -1.422566  0  -0.447463  -0.983469  0  2.178493  0
F  F64  1  0.00585259  0.52044247  0.25920310  1  -0.634221  0  -0.089261  -0.137173  0  1.37074  0
F  F65  1  0.00724763  0.47862885  0.73059323  1  -0.632084  0  -0.088063  -0.136051  0  1.366612  0
