# generated using pymatgen
data_Mg3H46(C28O)2
_symmetry_space_group_name_H-M   'P 1'
_cell_length_a   9.05207460
_cell_length_b   9.54123027
_cell_length_c   13.17550000
_cell_angle_alpha   97.00736633
_cell_angle_beta   98.12855718
_cell_angle_gamma   95.79633510
_symmetry_Int_Tables_number   1
_chemical_formula_structural   Mg3H46(C28O)2
_chemical_formula_sum   'Mg3 H46 C56 O2'
_cell_volume   1109.96796335
_cell_formula_units_Z   1
loop_
 _symmetry_equiv_pos_site_id
 _symmetry_equiv_pos_as_xyz
  1  'x, y, z'
loop_
 _atom_site_type_symbol
 _atom_site_label
 _atom_site_symmetry_multiplicity
 _atom_site_fract_x
 _atom_site_fract_y
 _atom_site_fract_z
 _atom_site_occupancy
 _atom_site_hle17_bader_spin_density
 _atom_site_hle17_ddec_charge
 _atom_site_hle17_ddec_spin_density
 _atom_site_hle17_ddec_sum_bond_order
 _atom_site_hle17_magmom
 _atom_site_hse06_10hf_bader_spin_density
 _atom_site_hse06_10hf_ddec_charge
 _atom_site_hse06_10hf_ddec_spin_density
 _atom_site_hse06_10hf_ddec_sum_bond_order
 _atom_site_hse06_10hf_magmom
 _atom_site_hse06_bader_spin_density
 _atom_site_hse06_ddec_charge
 _atom_site_hse06_ddec_spin_density
 _atom_site_hse06_ddec_sum_bond_order
 _atom_site_hse06_magmom
 _atom_site_pbe_bader_charge
 _atom_site_pbe_bader_spin_density
 _atom_site_pbe_cm5_charge
 _atom_site_pbe_ddec_charge
 _atom_site_pbe_ddec_spin_density
 _atom_site_pbe_ddec_sum_bond_order
 _atom_site_pbe_magmom
Mg  Mg0  1  0.50000242  0.50000321  0.00000113  1  0  1.282162  0  1.428022  0  0  1.19951  0  1.616816  0  0  1.220017  0  1.591946  0  1.6616  0  0.596487  1.184504  0  1.634779  0
Mg  Mg1  1  0.16810929  0.48135866  0.01224375  1  0  1.246807  0  1.479575  0  0  1.183363  0  1.659216  0  0  1.197982  0  1.642617  0  1.616328  0  0.55556  1.173465  0  1.670583  0
Mg  Mg2  1  0.83189947  0.51864350  0.98775547  1  0  1.246833  0  1.479523  0  0  1.183376  0  1.659141  0  0  1.197996  0  1.64254  0  1.616279  0  0.555605  1.173477  0  1.67051  0
H  H3  1  0.44940842  0.55943537  0.38860597  1  0  0.090241  0  0.957787  0  0  0.102758  0  1.017655  0  0  0.105637  0  1.016399  0  0.072471  0  0.100791  0.100762  0  1.018451  0
H  H4  1  0.55058892  0.44056467  0.61139347  1  0  0.090293  0  0.957687  0  0  0.102812  0  1.017552  0  0  0.105694  0  1.016294  0  0.072573  0  0.100812  0.100818  0  1.018347  0
H  H5  1  0.34868665  0.58096786  0.55522648  1  0  0.083934  0  0.95997  0  0  0.099569  0  1.014005  0  0  0.102222  0  1.013023  0  0.0797  0  0.099824  0.097768  0  1.014464  0
H  H6  1  0.65130652  0.41902579  0.44477275  1  0  0.083928  0  0.959971  0  0  0.099585  0  1.013978  0  0  0.102238  0  1.012996  0  0.079656  0  0.099838  0.097769  0  1.014461  0
H  H7  1  0.08680505  0.63620053  0.55961376  1  0  0.085131  0  0.957815  0  0  0.097292  0  1.017047  0  0  0.099942  0  1.016232  0  0.063971  0  0.099874  0.095325  0  1.017714  0
H  H8  1  0.91318951  0.36379526  0.44038276  1  0  0.08509  0  0.957771  0  0  0.097263  0  1.016992  0  0  0.099913  0  1.016177  0  0.063942  0  0.099842  0.095297  0  1.017659  0
H  H9  1  0.92747893  0.67568617  0.39728083  1  0  0.090813  0  0.952153  0  0  0.103358  0  1.007754  0  0  0.105563  0  1.00825  0  0.077041  0  0.101232  0.101967  0  1.007173  0
H  H10  1  0.07251465  0.32431068  0.60271645  1  0  0.090772  0  0.952253  0  0  0.103349  0  1.007816  0  0  0.105551  0  1.008315  0  0.076895  0  0.101251  0.101958  0  1.007234  0
H  H11  1  0.02808650  0.65730861  0.23167745  1  0  0.098999  0  0.961262  0  0  0.107498  0  1.0277  0  0  0.110414  0  1.026926  0  0.081558  0  0.104802  0.10484  0  1.029216  0
H  H12  1  0.97191195  0.34269143  0.76831907  1  0  0.099037  0  0.961296  0  0  0.107518  0  1.027743  0  0  0.110432  0  1.026965  0  0.081617  0  0.104831  0.104862  0  1.029257  0
H  H13  1  0.46862999  0.25398197  0.70954437  1  0  0.097146  0  0.993839  0  0  0.107525  0  1.057171  0  0  0.109616  0  1.057717  0  0.087617  0  0.094693  0.106017  0  1.05692  0
H  H14  1  0.53136694  0.74601487  0.29045475  1  0  0.097126  0  0.993793  0  0  0.107535  0  1.057099  0  0  0.109603  0  1.057674  0  0.087541  0  0.094662  0.106024  0  1.056844  0
H  H15  1  0.45416089  0.09751903  0.54186024  1  0  0.07965  0  0.963727  0  0  0.092966  0  1.02275  0  0  0.095281  0  1.022171  0  0.037997  0  0.096304  0.091029  0  1.023858  0
H  H16  1  0.54583603  0.90247782  0.45813964  1  0  0.079636  0  0.96376  0  0  0.092994  0  1.022714  0  0  0.095304  0  1.022153  0  0.038173  0  0.096327  0.091058  0  1.023821  0
H  H17  1  0.22852205  0.91732283  0.47798971  1  0  0.084719  0  0.972722  0  0  0.095053  0  1.035735  0  0  0.096981  0  1.036477  0  0.067866  0  0.095165  0.093703  0  1.035293  0
H  H18  1  0.77147697  0.08267296  0.52201103  1  0  0.084746  0  0.972743  0  0  0.095066  0  1.035763  0  0  0.096994  0  1.036505  0  0.067858  0  0.095195  0.093716  0  1.035321  0
H  H19  1  0.02169737  0.89727845  0.58251177  1  0  0.082264  0  0.967665  0  0  0.093729  0  1.029072  0  0  0.095695  0  1.029438  0  0.043702  0  0.097233  0.092352  0  1.028886  0
H  H20  1  0.97830179  0.10271840  0.41748909  1  0  0.082288  0  0.967652  0  0  0.093744  0  1.029079  0  0  0.095709  0  1.029446  0  0.043779  0  0.097238  0.092367  0  1.028892  0
H  H21  1  0.03662399  0.05357223  0.74915439  1  0  0.088846  0  0.978533  0  0  0.097978  0  1.04362  0  0  0.09978  0  1.045107  0  0.076108  0  0.097125  0.097184  0  1.041693  0
H  H22  1  0.96337209  0.94642675  0.25084407  1  0  0.088864  0  0.978515  0  0  0.098009  0  1.043587  0  0  0.099809  0  1.04507  0  0.07606  0  0.097124  0.097213  0  1.041665  0
H  H23  1  0.13710717  0.32953345  0.30356061  1  0  0.094568  0  0.968119  0  0  0.104956  0  1.029624  0  0  0.107003  0  1.030241  0  0.085469  0  0.100927  0.103187  0  1.029683  0
H  H24  1  0.86290954  0.67046978  0.69644479  1  0  0.094478  0  0.968245  0  0  0.104839  0  1.02978  0  0  0.106885  0  1.030398  0  0.085436  0  0.100923  0.10307  0  1.029838  0
H  H25  1  0.28654456  0.17243654  0.40281500  1  0  0.083277  0  0.973904  0  0  0.09486  0  1.033229  0  0  0.09716  0  1.033048  0  0.087831  0  0.097084  0.092777  0  1.034264  0
H  H26  1  0.71346173  0.82755499  0.59718532  1  0  0.083284  0  0.973811  0  0  0.094859  0  1.033144  0  0  0.097162  0  1.032959  0  0.087894  0  0.097079  0.092775  0  1.034181  0
H  H27  1  0.34877211  0.94508329  0.31281443  1  0  0.084967  0  0.970701  0  0  0.09552  0  1.03372  0  0  0.097423  0  1.034006  0  0.074286  0  0.097704  0.094008  0  1.033926  0
H  H28  1  0.65122289  0.05490717  0.68718166  1  0  0.08503  0  0.970647  0  0  0.095574  0  1.033679  0  0  0.097479  0  1.033963  0  0.074362  0  0.097718  0.094062  0  1.033884  0
H  H29  1  0.26148329  0.87624802  0.12456301  1  0  0.092398  0  0.965415  0  0  0.102982  0  1.027414  0  0  0.105243  0  1.027561  0  0.085788  0  0.102126  0.101348  0  1.027524  0
H  H30  1  0.73850582  0.12374883  0.87543383  1  0  0.09235  0  0.965487  0  0  0.102952  0  1.027459  0  0  0.105208  0  1.027612  0  0.085625  0  0.102149  0.101319  0  1.027568  0
H  H31  1  0.12186054  0.03957286  0.02363053  1  0  0.097146  0  0.960873  0  0  0.107607  0  1.02334  0  0  0.110419  0  1.022192  0  0.065442  0  0.10439  0.105365  0  1.024547  0
H  H32  1  0.87813774  0.96043462  0.97637118  1  0  0.097115  0  0.960749  0  0  0.107585  0  1.023218  0  0  0.110377  0  1.02209  0  0.065373  0  0.104371  0.105342  0  1.024428  0
H  H33  1  0.57519577  0.84302545  0.95608699  1  0  0.050743  0  0.943958  0  0  0.061841  0  1.013278  0  0  0.061897  0  1.014305  0  0.050836  0  0.094377  0.061747  0  1.012453  0
H  H34  1  0.42480197  0.15697778  0.04391505  1  0  0.05074  0  0.943972  0  0  0.06183  0  1.013288  0  0  0.061885  0  1.014313  0  0.050853  0  0.094352  0.061738  0  1.012465  0
H  H35  1  0.42442980  0.81718922  0.02849859  1  0  0.061277  0  0.947876  0  0  0.072959  0  1.017612  0  0  0.07315  0  1.017328  0  0.075673  0  0.103407  0.07265  0  1.01796  0
H  H36  1  0.57556432  0.18281188  0.97150139  1  0  0.061315  0  0.947871  0  0  0.072997  0  1.017581  0  0  0.073188  0  1.017296  0  0.07572  0  0.103425  0.072686  0  1.017936  0
H  H37  1  0.25421514  0.90530939  0.90005046  1  0  0.074336  0  0.944366  0  0  0.090811  0  1.005402  0  0  0.091014  0  1.006926  0  0.043707  0  0.089521  0.091183  0  1.003794  0
H  H38  1  0.74578344  0.09469171  0.09994768  1  0  0.074213  0  0.944304  0  0  0.090697  0  1.005363  0  0  0.090901  0  1.006885  0  0.043739  0  0.08948  0.091069  0  1.003751  0
H  H39  1  0.41889678  0.97714323  0.85720527  1  0  0.072535  0  0.958803  0  0  0.088134  0  1.022671  0  0  0.088119  0  1.024984  0  0.035527  0  0.089172  0.087889  0  1.021884  0
H  H40  1  0.58110068  0.02285787  0.14279428  1  0  0.072556  0  0.958743  0  0  0.08816  0  1.022612  0  0  0.088145  0  1.024928  0  0.035534  0  0.089184  0.087914  0  1.021824  0
H  H41  1  0.19937747  0.72975408  0.75847298  1  0  0.074496  0  0.941774  0  0  0.090608  0  1.003257  0  0  0.090976  0  1.004595  0  0.060244  0  0.087843  0.090905  0  1.00146  0
H  H42  1  0.80062321  0.27024596  0.24152527  1  0  0.074527  0  0.94172  0  0  0.090603  0  1.00325  0  0  0.090971  0  1.004587  0  0.060252  0  0.087841  0.090898  0  1.001452  0
H  H43  1  0.35090207  0.81005392  0.70499400  1  0  0.072799  0  0.957133  0  0  0.087547  0  1.021729  0  0  0.087386  0  1.024326  0  0.032977  0  0.087636  0.087661  0  1.02016  0
H  H44  1  0.64909972  0.18994612  0.29500512  1  0  0.072789  0  0.957198  0  0  0.087557  0  1.021773  0  0  0.087399  0  1.024365  0  0.032996  0  0.087632  0.087671  0  1.020204  0
H  H45  1  0.35376544  0.53861342  0.76909994  1  0  0.067528  0  0.925015  0  0  0.08176  0  0.986778  0  0  0.081506  0  0.987434  0  0.052956  0  0.105155  0.081537  0  0.986759  0
H  H46  1  0.64623649  0.46138768  0.23090004  1  0  0.067509  0  0.925019  0  0  0.081745  0  0.986765  0  0  0.081491  0  0.98742  0  0.052927  0  0.105146  0.081527  0  0.986741  0
H  H47  1  0.52258127  0.65804788  0.77587325  1  0  0.048191  0  0.9358  0  0  0.057794  0  1.006673  0  0  0.057722  0  1.007777  0  0.070647  0  0.092211  0.058139  0  1.005225  0
H  H48  1  0.47741968  0.34195429  0.22412673  1  0  0.048196  0  0.935843  0  0  0.057773  0  1.00673  0  0  0.0577  0  1.007836  0  0.070666  0  0.092206  0.058118  0  1.005283  0
C  C49  1  0.36533587  0.57559405  0.12473385  1  0  -0.742152  0  3.305419  0  0  -0.720098  0  3.574109  0  0  -0.727843  0  3.590558  0  -0.101026  0  -0.275512  -0.714451  0  3.562426  0
C  C50  1  0.63466714  0.42441557  0.87526471  1  0  -0.742219  0  3.305808  0  0  -0.720162  0  3.574518  0  0  -0.727911  0  3.590979  0  -0.100914  0  -0.275629  -0.714516  0  3.562836  0
C  C51  1  0.30483759  0.59151765  0.20357052  1  0  0.008831  0  3.956525  0  0  0.013551  0  4.207656  0  0  0.01177  0  4.238359  0  -0.835463  0  -0.06067  0.015315  0  4.185606  0
C  C52  1  0.69515985  0.40849196  0.79643509  1  0  0.008869  0  3.956696  0  0  0.013588  0  4.207829  0  0  0.011811  0  4.238522  0  -0.835677  0  -0.060626  0.015347  0  4.185792  0
C  C53  1  0.24607671  0.60718596  0.29869548  1  0  0.091305  0  3.885289  0  0  0.106691  0  4.112256  0  0  0.108179  0  4.134773  0  0.008724  0  -0.003123  0.105278  0  4.097376  0
C  C54  1  0.75392438  0.39281727  0.70130157  1  0  0.091337  0  3.885168  0  0  0.106724  0  4.11214  0  0  0.108212  0  4.134659  0  0.00888  0  -0.003079  0.105309  0  4.09726  0
C  C55  1  0.33542596  0.58567048  0.39117588  1  0  -0.120986  0  3.733687  0  0  -0.137976  0  3.975309  0  0  -0.140506  0  3.995936  0  -0.110203  0  -0.090314  -0.13584  0  3.961653  0
C  C56  1  0.66457026  0.41432955  0.60882270  1  0  -0.120953  0  3.7336  0  0  -0.137946  0  3.97522  0  0  -0.140476  0  3.995851  0  -0.110391  0  -0.090316  -0.135808  0  3.961557  0
C  C57  1  0.27825219  0.59676914  0.48420774  1  0  -0.082149  0  3.80844  0  0  -0.093645  0  4.052139  0  0  -0.096113  0  4.074125  0  -0.040954  0  -0.095099  -0.091843  0  4.036895  0
C  C58  1  0.72174251  0.40322771  0.51579117  1  0  -0.082229  0  3.808259  0  0  -0.093745  0  4.051965  0  0  -0.096214  0  4.073952  0  -0.040968  0  -0.095133  -0.091935  0  4.036728  0
C  C59  1  0.13127527  0.62828872  0.48680505  1  0  -0.071666  0  3.790215  0  0  -0.085083  0  4.038648  0  0  -0.085953  0  4.059462  0  -0.021734  0  -0.088997  -0.084308  0  4.024212  0
C  C60  1  0.86871929  0.37170706  0.51319299  1  0  -0.071646  0  3.789911  0  0  -0.085061  0  4.038345  0  0  -0.085933  0  4.059158  0  -0.021711  0  -0.089016  -0.084285  0  4.023902  0
C  C61  1  0.04195750  0.65002545  0.39579616  1  0  -0.07317  0  3.782704  0  0  -0.084726  0  4.028155  0  0  -0.08688  0  4.049324  0  -0.018231  0  -0.090225  -0.083247  0  4.013649  0
C  C62  1  0.95803858  0.34997353  0.60420155  1  0  -0.073063  0  3.782659  0  0  -0.084647  0  4.028109  0  0  -0.086797  0  4.049273  0  -0.017903  0  -0.090186  -0.083167  0  4.013603  0
C  C63  1  0.09841750  0.64047448  0.30242488  1  0  -0.107902  0  3.708093  0  0  -0.12606  0  3.951327  0  0  -0.128039  0  3.971116  0  -0.064646  0  -0.07987  -0.124606  0  3.938395  0
C  C64  1  0.90158220  0.35952662  0.69757261  1  0  -0.107987  0  3.708191  0  0  -0.126133  0  3.951451  0  0  -0.128106  0  3.971234  0  -0.064814  0  -0.07992  -0.124678  0  3.938518  0
C  C65  1  0.27603795  0.34925659  0.91109560  1  0  -0.788958  0  3.322807  0  0  -0.765186  0  3.596255  0  0  -0.77574  0  3.614283  0  -0.120992  0  -0.287561  -0.757297  0  3.584476  0
C  C66  1  0.72397179  0.65074451  0.08890514  1  0  -0.789022  0  3.322769  0  0  -0.765245  0  3.596226  0  0  -0.775799  0  3.614254  0  -0.120717  0  -0.287574  -0.757355  0  3.584449  0
C  C67  1  0.26310892  0.26066733  0.83273455  1  0  0.079507  0  3.93389  0  0  0.081166  0  4.183399  0  0  0.080515  0  4.21457  0  -0.811912  0  -0.051986  0.081497  0  4.163296  0
C  C68  1  0.73689148  0.73933058  0.16726500  1  0  0.079608  0  3.933924  0  0  0.081282  0  4.183436  0  0  0.08063  0  4.21461  0  -0.812172  0  -0.051967  0.081612  0  4.163334  0
C  C69  1  0.25352555  0.16554163  0.73962444  1  0  0.087204  0  3.885165  0  0  0.108861  0  4.098431  0  0  0.111039  0  4.119179  0  0.06138  0  -0.0041  0.107037  0  4.084764  0
C  C70  1  0.74647249  0.83445521  0.26037631  1  0  0.087217  0  3.885211  0  0  0.108852  0  4.098528  0  0  0.111033  0  4.119272  0  0.061373  0  -0.004067  0.107028  0  4.08486  0
C  C71  1  0.37110099  0.17588612  0.68019349  1  0  -0.125537  0  3.731989  0  0  -0.141829  0  3.967454  0  0  -0.144294  0  3.98769  0  -0.046039  0  -0.091759  -0.140087  0  3.953217  0
C  C72  1  0.62889692  0.82410966  0.31980715  1  0  -0.125549  0  3.731978  0  0  -0.14186  0  3.967437  0  0  -0.144308  0  3.987684  0  -0.04604  0  -0.091776  -0.140113  0  3.953195  0
C  C73  1  0.36228541  0.08705221  0.58695787  1  0  -0.093079  0  3.836364  0  0  -0.104961  0  4.085104  0  0  -0.107215  0  4.106362  0  -0.075769  0  -0.102078  -0.103091  0  4.070556  0
C  C74  1  0.63771250  0.91294357  0.41304277  1  0  -0.093045  0  3.836385  0  0  -0.104947  0  4.085105  0  0  -0.107202  0  4.106353  0  -0.075956  0  -0.102043  -0.103077  0  4.070555  0
C  C75  1  0.23657852  0.98658677  0.55116909  1  0  -0.087298  0  3.793401  0  0  -0.099697  0  4.040341  0  0  -0.100997  0  4.061744  0  -0.0464  0  -0.095248  -0.098659  0  4.025501  0
C  C76  1  0.76341912  0.01340689  0.44883209  1  0  -0.087357  0  3.793409  0  0  -0.099754  0  4.040355  0  0  -0.101052  0  4.061758  0  -0.046857  0  -0.095324  -0.098715  0  4.025514  0
C  C77  1  0.12007522  0.97515199  0.61003256  1  0  -0.072312  0  3.797326  0  0  -0.085383  0  4.045941  0  0  -0.087492  0  4.068068  0  -0.05119  0  -0.093791  -0.083753  0  4.030324  0
C  C78  1  0.87992269  0.02484380  0.38996808  1  0  -0.072337  0  3.797107  0  0  -0.085389  0  4.045704  0  0  -0.087499  0  4.06783  0  -0.050855  0  -0.093779  -0.083759  0  4.030087  0
C  C79  1  0.12777286  0.06287961  0.70360444  1  0  -0.10519  0  3.705869  0  0  -0.119836  0  3.940546  0  0  -0.121945  0  3.960573  0  -0.025382  0  -0.081644  -0.117769  0  3.925801  0
C  C80  1  0.87222309  0.93711830  0.29639544  1  0  -0.105213  0  3.705812  0  0  -0.119878  0  3.940516  0  0  -0.121982  0  3.960536  0  -0.02512  0  -0.081662  -0.117813  0  3.92577  0
C  C81  1  0.95769928  0.36702252  0.05638634  1  0  -0.752805  0  3.26545  0  0  -0.726954  0  3.521098  0  0  -0.735341  0  3.536387  0  -0.135001  0  -0.288629  -0.72201  0  3.512324  0
C  C82  1  0.04231378  0.63298709  0.94361927  1  0  -0.752941  0  3.265254  0  0  -0.727105  0  3.520894  0  0  -0.735492  0  3.536181  0  -0.134554  0  -0.288707  -0.722161  0  3.512121  0
C  C83  1  0.03433407  0.28622700  0.10158121  1  0  0.036115  0  3.967151  0  0  0.042546  0  4.208771  0  0  0.042778  0  4.238511  0  -0.830229  0  -0.055048  0.042605  0  4.188538  0
C  C84  1  0.96567814  0.71378474  0.89842451  1  0  0.036236  0  3.96685  0  0  0.042676  0  4.208454  0  0  0.04291  0  4.23819  0  -0.830897  0  -0.054993  0.042736  0  4.188221  0
C  C85  1  0.11902495  0.19429878  0.15729314  1  0  0.083975  0  3.891314  0  0  0.101788  0  4.115803  0  0  0.102405  0  4.13836  0  0.032528  0  -0.001164  0.100459  0  4.099339  0
C  C86  1  0.88098757  0.80570657  0.84270976  1  0  0.083875  0  3.891372  0  0  0.101679  0  4.115862  0  0  0.102295  0  4.138415  0  0.032417  0  -0.00116  0.10035  0  4.099397  0
C  C87  1  0.16640714  0.23102837  0.26473183  1  0  -0.109517  0  3.722989  0  0  -0.128579  0  3.964857  0  0  -0.130204  0  3.984824  0  -0.067662  0  -0.084649  -0.126686  0  3.950273  0
C  C88  1  0.83360706  0.76897273  0.73527314  1  0  -0.10938  0  3.723116  0  0  -0.128418  0  3.964988  0  0  -0.130042  0  3.984957  0  -0.067281  0  -0.084686  -0.126525  0  3.950401  0
C  C89  1  0.25021394  0.14265185  0.31986562  1  0  -0.077701  0  3.795636  0  0  -0.087481  0  4.039125  0  0  -0.090144  0  4.060396  0  -0.065037  0  -0.092756  -0.085888  0  4.025136  0
C  C90  1  0.74979513  0.85734393  0.68013686  1  0  -0.077769  0  3.795641  0  0  -0.087541  0  4.039146  0  0  -0.090206  0  4.060419  0  -0.065453  0  -0.092759  -0.085948  0  4.025157  0
C  C91  1  0.28477241  0.01515667  0.26957891  1  0  -0.063211  0  3.750762  0  0  -0.075943  0  3.993629  0  0  -0.076644  0  4.014891  0  -0.051329  0  -0.08616  -0.075387  0  3.97961  0
C  C92  1  0.71522759  0.98483805  0.73041957  1  0  -0.063239  0  3.750711  0  0  -0.075964  0  3.993579  0  0  -0.076667  0  4.014845  0  -0.051148  0  -0.086139  -0.075408  0  3.979559  0
C  C93  1  0.23705337  0.97704431  0.16326733  1  0  -0.068511  0  3.768335  0  0  -0.078727  0  4.012034  0  0  -0.081077  0  4.033004  0  -0.047838  0  -0.087221  -0.078351  0  3.999259  0
C  C94  1  0.76294383  0.02295466  0.83673124  1  0  -0.068371  0  3.768295  0  0  -0.07861  0  4.012004  0  0  -0.080957  0  4.032974  0  -0.047706  0  -0.08715  -0.078234  0  3.999227  0
C  C95  1  0.15662985  0.06678552  0.10689395  1  0  -0.109227  0  3.71812  0  0  -0.127463  0  3.958378  0  0  -0.128719  0  3.976768  0  -0.042402  0  -0.079237  -0.12638  0  3.946357  0
C  C96  1  0.84337249  0.93321877  0.89310635  1  0  -0.109201  0  3.717888  0  0  -0.127436  0  3.958152  0  0  -0.128675  0  3.976549  0  -0.042153  0  -0.079269  -0.126353  0  3.946131  0
C  C97  1  0.45452745  0.80683410  0.95048706  1  0  0.099135  0  3.56203  0  0  0.041794  0  3.828037  0  0  0.049275  0  3.833225  0  0.359426  0  -0.068409  0.036753  0  3.824032  0
C  C98  1  0.54547002  0.19316701  0.04951325  1  0  0.099073  0  3.562096  0  0  0.041762  0  3.828038  0  0  0.049247  0  3.833225  0  0.359327  0  -0.068388  0.036709  0  3.824046  0
C  C99  1  0.35765743  0.87859880  0.87201328  1  0  -0.136858  0  3.631117  0  0  -0.175709  0  3.886536  0  0  -0.177693  0  3.900165  0  -0.034548  0  -0.168164  -0.174376  0  3.877343  0
C  C100  1  0.64233794  0.12140337  0.12798464  1  0  -0.136754  0  3.631022  0  0  -0.17562  0  3.886414  0  0  -0.177611  0  3.900052  0  -0.034523  0  -0.168143  -0.174275  0  3.877212  0
C  C101  1  0.32019841  0.76689107  0.77356903  1  0  -0.141816  0  3.647174  0  0  -0.181105  0  3.904814  0  0  -0.183092  0  3.918267  0  -0.056489  0  -0.168871  -0.179693  0  3.895243  0
C  C102  1  0.67980156  0.23311216  0.22643171  1  0  -0.14178  0  3.647166  0  0  -0.181081  0  3.904803  0  0  -0.183068  0  3.918253  0  -0.05649  0  -0.168848  -0.179668  0  3.895228  0
C  C103  1  0.41039643  0.64567278  0.79944111  1  0  0.104801  0  3.565527  0  0  0.048242  0  3.832837  0  0  0.055819  0  3.83813  0  0.390642  0  -0.069109  0.043117  0  3.829299  0
C  C104  1  0.58960452  0.35432938  0.20055887  1  0  0.104772  0  3.565567  0  0  0.048243  0  3.832833  0  0  0.055823  0  3.838122  0  0.390325  0  -0.069089  0.043115  0  3.829293  0
O  O105  1  0.42868881  0.65611513  0.91138355  1  0  -0.404729  0  2.351033  0  0  -0.31644  0  2.586554  0  0  -0.334004  0  2.587502  0  -1.108781  0  -0.251017  -0.303416  0  2.585243  0
O  O106  1  0.57130991  0.34388703  0.08861546  1  0  -0.404718  0  2.351  0  0  -0.316424  0  2.58649  0  0  -0.333994  0  2.587439  0  -1.108558  0  -0.251043  -0.303399  0  2.585184  0
