# generated using pymatgen
data_AgH9C9N3O2
_symmetry_space_group_name_H-M   'P 1'
_cell_length_a   10.82627001
_cell_length_b   11.59666916
_cell_length_c   17.41500595
_cell_angle_alpha   104.25896557
_cell_angle_beta   89.99990726
_cell_angle_gamma   90.00025401
_symmetry_Int_Tables_number   1
_chemical_formula_structural   AgH9C9N3O2
_chemical_formula_sum   'Ag8 H72 C72 N24 O16'
_cell_volume   2119.07213049
_cell_formula_units_Z   8
loop_
 _symmetry_equiv_pos_site_id
 _symmetry_equiv_pos_as_xyz
  1  'x, y, z'
loop_
 _atom_site_type_symbol
 _atom_site_label
 _atom_site_symmetry_multiplicity
 _atom_site_fract_x
 _atom_site_fract_y
 _atom_site_fract_z
 _atom_site_occupancy
 _atom_site_pbe_bader_charge
 _atom_site_pbe_bader_spin_density
 _atom_site_pbe_cm5_charge
 _atom_site_pbe_ddec_charge
 _atom_site_pbe_ddec_spin_density
 _atom_site_pbe_ddec_sum_bond_order
 _atom_site_pbe_magmom
Ag  Ag0  1  0.80592199  0.75841644  0.00951410  1  0.569347  0  0.494268  0.39494  0  1.870025  0
Ag  Ag1  1  0.30592183  0.74158702  0.49049110  1  0.569324  0  0.49426  0.394887  0  1.870126  0
Ag  Ag2  1  0.19407452  0.24158350  0.99048665  1  0.569308  0  0.494234  0.394814  0  1.870147  0
Ag  Ag3  1  0.69407653  0.25841026  0.50950805  1  0.569313  0  0.494269  0.394858  0  1.870212  0
Ag  Ag4  1  0.55180841  0.27364615  0.00529003  1  0.604464  0  0.43857  0.403653  0  1.875622  0
Ag  Ag5  1  0.05181279  0.22635937  0.49471095  1  0.604484  0  0.438552  0.403597  0  1.875606  0
Ag  Ag6  1  0.44820103  0.72635375  0.99471244  1  0.604307  0  0.43853  0.403597  0  1.875814  0
Ag  Ag7  1  0.94819480  0.77364327  0.50528797  1  0.604368  0  0.438523  0.403595  0  1.875617  0
H  H8  1  0.76364567  0.23254845  0.89224754  1  0.069404  0  0.125036  0.095731  0  0.967854  0
H  H9  1  0.26365579  0.26745263  0.60775350  1  0.069259  0  0.125026  0.095767  0  0.96787  0
H  H10  1  0.23634714  0.76744989  0.10774146  1  0.06957  0  0.125043  0.095719  0  0.968023  0
H  H11  1  0.73634810  0.73254732  0.39224668  1  0.06937  0  0.125034  0.095773  0  0.967853  0
H  H12  1  0.94530503  0.33691957  0.84743265  1  0.098771  0  0.116778  0.147561  0  0.97342  0
H  H13  1  0.44532194  0.16308413  0.65256175  1  0.09846  0  0.116758  0.147515  0  0.973461  0
H  H14  1  0.05467947  0.66308509  0.15255111  1  0.098283  0  0.116808  0.147598  0  0.973441  0
H  H15  1  0.55467641  0.83691309  0.34744141  1  0.098499  0  0.1168  0.147562  0  0.973398  0
H  H16  1  0.99861028  0.66526094  0.93769654  1  0.039162  0  0.080065  0.101843  0  1.103656  0
H  H17  1  0.49861529  0.83474254  0.56230376  1  0.038341  0  0.080012  0.101745  0  1.103629  0
H  H18  1  0.00138345  0.33474259  0.06230253  1  0.038286  0  0.080007  0.101779  0  1.103624  0
H  H19  1  0.50138307  0.16525646  0.43769970  1  0.038304  0  0.080005  0.101771  0  1.103608  0
H  H20  1  0.97741362  0.58194184  0.83786332  1  0.092183  0  0.100769  0.153845  0  1.013799  0
H  H21  1  0.47741508  0.91806068  0.66213570  1  0.092241  0  0.100808  0.153918  0  1.013748  0
H  H22  1  0.02259028  0.41806174  0.16213289  1  0.09228  0  0.100816  0.15392  0  1.013694  0
H  H23  1  0.52258328  0.08194100  0.33786708  1  0.092288  0  0.100761  0.153896  0  1.013822  0
H  H24  1  0.08224177  0.52944943  0.89960939  1  0.058125  0  0.099761  0.154304  0  0.984574  0
H  H25  1  0.58224547  0.97055323  0.60039239  1  0.058097  0  0.099763  0.154333  0  0.984562  0
H  H26  1  0.91775566  0.47055320  0.10039067  1  0.058193  0  0.099769  0.154322  0  0.984532  0
H  H27  1  0.41775196  0.02944578  0.39960994  1  0.058625  0  0.099758  0.154339  0  0.984537  0
H  H28  1  0.80356816  0.28766068  0.10315554  1  0.059376  0  0.116464  0.081386  0  0.988071  0
H  H29  1  0.30357456  0.21234492  0.39684862  1  0.059393  0  0.116443  0.08132  0  0.988318  0
H  H30  1  0.19643850  0.71234370  0.89684597  1  0.059432  0  0.116441  0.081344  0  0.988204  0
H  H31  1  0.69642749  0.78765154  0.60314637  1  0.059462  0  0.116434  0.081329  0  0.988371  0
H  H32  1  0.97528904  0.17772023  0.15304686  1  0.08463  0  0.102687  0.124286  0  1.043101  0
H  H33  1  0.47529792  0.32228780  0.34695982  1  0.084708  0  0.102651  0.124305  0  1.04305  0
H  H34  1  0.02471209  0.82227962  0.84695905  1  0.08428  0  0.102694  0.124319  0  1.043137  0
H  H35  1  0.52471152  0.67771033  0.65304178  1  0.084752  0  0.102661  0.12428  0  1.043206  0
H  H36  1  0.00299182  0.84277924  0.08020023  1  0.056665  0  0.080598  0.105379  0  1.085668  0
H  H37  1  0.50299513  0.65722924  0.41980445  1  0.056811  0  0.080606  0.105438  0  1.085615  0
H  H38  1  0.99699545  0.15721701  0.91980736  1  0.056728  0  0.080587  0.105418  0  1.085685  0
H  H39  1  0.49700138  0.34277155  0.58019818  1  0.056827  0  0.080658  0.105425  0  1.085623  0
H  H40  1  0.98013917  0.93565093  0.17750944  1  0.095122  0  0.107364  0.167238  0  0.978578  0
H  H41  1  0.48013767  0.56435595  0.32249329  1  0.096662  0  0.107409  0.167306  0  0.978493  0
H  H42  1  0.01985272  0.06434981  0.82249662  1  0.094996  0  0.107354  0.167301  0  0.978528  0
H  H43  1  0.51985792  0.43564845  0.67750708  1  0.096716  0  0.107379  0.167278  0  0.978553  0
H  H44  1  0.09461090  0.97390866  0.11542591  1  0.036668  0  0.099718  0.153129  0  0.987199  0
H  H45  1  0.59461183  0.52609577  0.38457626  1  0.036754  0  0.099718  0.153097  0  0.987185  0
H  H46  1  0.90538561  0.02608228  0.88457905  1  0.036856  0  0.099745  0.153168  0  0.987106  0
H  H47  1  0.40538744  0.47390688  0.61542209  1  0.036715  0  0.099707  0.153074  0  0.987198  0
H  H48  1  0.74150282  0.81074052  0.82545243  1  0.085346  0  0.098468  0.096201  0  1.045153  0
H  H49  1  0.24150041  0.68926550  0.67454631  1  0.085434  0  0.09844  0.096158  0  1.04515  0
H  H50  1  0.25850293  0.18926576  0.17454195  1  0.085311  0  0.09841  0.096122  0  1.045152  0
H  H51  1  0.75850072  0.31072811  0.32545911  1  0.085302  0  0.098394  0.096117  0  1.045106  0
H  H52  1  0.91341069  0.80278974  0.72913802  1  0.081902  0  0.10128  0.105517  0  1.00619  0
H  H53  1  0.41341270  0.69721613  0.77085820  1  0.081937  0  0.101241  0.105427  0  1.006307  0
H  H54  1  0.08659413  0.19721210  0.27085503  1  0.082015  0  0.10122  0.10536  0  1.006338  0
H  H55  1  0.58658473  0.30278368  0.22915057  1  0.082076  0  0.101236  0.105442  0  1.006205  0
H  H56  1  0.98834011  0.60882379  0.65012887  1  0.082266  0  0.104275  0.107333  0  1.039722  0
H  H57  1  0.48834376  0.89117971  0.84986744  1  0.082419  0  0.104232  0.107289  0  1.03974  0
H  H58  1  0.01166563  0.39117437  0.34987158  1  0.081988  0  0.104244  0.107255  0  1.039732  0
H  H59  1  0.51165090  0.10882016  0.15013733  1  0.082338  0  0.104239  0.107327  0  1.039708  0
H  H60  1  0.70967849  0.42917140  0.75315996  1  0.141378  0  0.104586  0.111407  0  1.017294  0
H  H61  1  0.20967813  0.07083655  0.74684404  1  0.141298  0  0.104653  0.111542  0  1.01725  0
H  H62  1  0.29032356  0.57083744  0.24684174  1  0.141291  0  0.104649  0.111503  0  1.017204  0
H  H63  1  0.79032115  0.92915713  0.25315737  1  0.14121  0  0.104636  0.11148  0  1.017291  0
H  H64  1  0.64861673  0.87206275  0.93301925  1  0.496582  0  0.287575  0.304299  0  1.033765  0
H  H65  1  0.14861429  0.62794108  0.56698151  1  0.496727  0  0.287565  0.304285  0  1.03376  0
H  H66  1  0.35138809  0.12794168  0.06697940  1  0.496512  0  0.287595  0.304317  0  1.033685  0
H  H67  1  0.85138683  0.37205262  0.43301819  1  0.49666  0  0.287558  0.304332  0  1.033715  0
H  H68  1  0.59384056  0.01523889  0.92853317  1  0.539434  0  0.2939  0.321719  0  0.999928  0
H  H69  1  0.09383886  0.48476509  0.57146683  1  0.539487  0  0.293911  0.321738  0  0.999965  0
H  H70  1  0.40616518  0.98476738  0.07146235  1  0.539462  0  0.293917  0.321758  0  0.999863  0
H  H71  1  0.90615950  0.51522775  0.42853156  1  0.53952  0  0.293944  0.321766  0  0.999921  0
H  H72  1  0.65219001  0.64699629  0.08955602  1  0.554851  0  0.286016  0.31602  0  1.006154  0
H  H73  1  0.15219426  0.85300388  0.41044822  1  0.554903  0  0.286025  0.316058  0  1.006082  0
H  H74  1  0.34781296  0.35299918  0.91044455  1  0.554842  0  0.286048  0.316112  0  1.006073  0
H  H75  1  0.84780686  0.14699784  0.58955226  1  0.554859  0  0.286024  0.316068  0  1.006045  0
H  H76  1  0.57663644  0.50930473  0.08374870  1  0.527024  0  0.290034  0.312586  0  0.998299  0
H  H77  1  0.07663577  0.99069785  0.41625317  1  0.527026  0  0.290035  0.312642  0  0.998267  0
H  H78  1  0.42336746  0.49069435  0.91624961  1  0.527096  0  0.29004  0.312665  0  0.998202  0
H  H79  1  0.92336720  0.00930387  0.58374732  1  0.527074  0  0.290029  0.312652  0  0.998252  0
C  C80  1  0.71791417  0.50191633  0.00409564  1  1.531817  0  0.343243  0.564507  0  4.071324  0
C  C81  1  0.21791335  0.99808511  0.49590185  1  1.531799  0  0.343244  0.564525  0  4.071382  0
C  C82  1  0.28209250  0.49807396  0.99589485  1  1.531742  0  0.343293  0.564615  0  4.071414  0
C  C83  1  0.78209055  0.00191658  0.50410035  1  1.531673  0  0.34327  0.564567  0  4.071264  0
C  C84  1  0.78128444  0.32714199  0.91675686  1  0.504954  0  0.065193  0.164586  0  3.982004  0
C  C85  1  0.28129695  0.17286365  0.58324264  1  0.505148  0  0.065128  0.16447  0  3.98191  0
C  C86  1  0.21870283  0.67286347  0.08323335  1  0.504835  0  0.065141  0.164578  0  3.981851  0
C  C87  1  0.71870233  0.82713538  0.41675911  1  0.504907  0  0.065123  0.164427  0  3.981962  0
C  C88  1  0.88080641  0.38410734  0.89211836  1  0.02876  0  -0.109182  -0.28942  0  3.958578  0
C  C89  1  0.38081583  0.11589784  0.60787923  1  0.028598  0  -0.109128  -0.289344  0  3.958485  0
C  C90  1  0.11918640  0.61589638  0.10786926  1  0.028767  0  -0.109188  -0.289359  0  3.958407  0
C  C91  1  0.61918437  0.88410294  0.39212454  1  0.028743  0  -0.109158  -0.289331  0  3.958537  0
C  C92  1  0.89187603  0.50646892  0.92462082  1  0.521997  0  0.134806  0.368663  0  3.966551  0
C  C93  1  0.39188452  0.99353238  0.57537694  1  0.522142  0  0.134802  0.368622  0  3.966598  0
C  C94  1  0.10811494  0.49352855  0.07536689  1  0.52187  0  0.134834  0.36855  0  3.966604  0
C  C95  1  0.60811569  0.00646572  0.42462694  1  0.522127  0  0.134794  0.368623  0  3.966689  0
C  C96  1  0.99350772  0.57511965  0.89896278  1  -0.08054  0  -0.241308  -0.463331  0  3.930019  0
C  C97  1  0.49351212  0.92488647  0.60103799  1  -0.079777  0  -0.241274  -0.46328  0  3.929942  0
C  C98  1  0.00649064  0.42488569  0.10103488  1  -0.079506  0  -0.241323  -0.463349  0  3.929906  0
C  C99  1  0.50648715  0.07511343  0.39896449  1  -0.080295  0  -0.241271  -0.463361  0  3.929945  0
C  C100  1  0.73830880  0.01708585  0.00381312  1  1.533715  0  0.342133  0.570699  0  4.080185  0
C  C101  1  0.23830790  0.48292041  0.49618893  1  1.533113  0  0.342172  0.57072  0  4.080133  0
C  C102  1  0.26169602  0.98292032  0.99618812  1  1.533629  0  0.34211  0.570748  0  4.080041  0
C  C103  1  0.76168860  0.51707514  0.50380706  1  1.533413  0  0.342141  0.570807  0  4.079596  0
C  C104  1  0.81389100  0.19136971  0.08223607  1  0.514679  0  0.058931  0.160157  0  4.030504  0
C  C105  1  0.31389595  0.30863415  0.41776778  1  0.514764  0  0.058953  0.160193  0  4.030591  0
C  C106  1  0.18611197  0.80863112  0.91776484  1  0.514598  0  0.058925  0.160162  0  4.030693  0
C  C107  1  0.68610794  0.69136050  0.58222862  1  0.514799  0  0.058971  0.160201  0  4.030912  0
C  C108  1  0.90770430  0.13112844  0.11044928  1  0.061976  0  -0.114952  -0.293125  0  3.96564  0
C  C109  1  0.40770960  0.36887934  0.38955629  1  0.062046  0  -0.114855  -0.292987  0  3.965401  0
C  C110  1  0.09229775  0.86886966  0.88955461  1  0.062451  0  -0.114944  -0.293119  0  3.965704  0
C  C111  1  0.59229707  0.63112236  0.61044534  1  0.062075  0  -0.114878  -0.293005  0  3.96559  0
C  C112  1  0.90876905  0.00724782  0.08447398  1  0.460595  0  0.132725  0.367961  0  3.95712  0
C  C113  1  0.40877394  0.49276262  0.41553261  1  0.460263  0  0.132586  0.367704  0  3.957418  0
C  C114  1  0.09122469  0.99275467  0.91553410  1  0.46085  0  0.13271  0.367787  0  3.957146  0
C  C115  1  0.59122904  0.50723640  0.58446971  1  0.460431  0  0.132636  0.367795  0  3.957082  0
C  C116  1  0.00198241  0.93535379  0.11569082  1  -0.07744  0  -0.234795  -0.450135  0  3.901047  0
C  C117  1  0.50198445  0.56465382  0.38431256  1  -0.07914  0  -0.234794  -0.45015  0  3.901124  0
C  C118  1  0.99801040  0.06464607  0.88431509  1  -0.077957  0  -0.234832  -0.450235  0  3.900994  0
C  C119  1  0.49801298  0.43534700  0.61568835  1  -0.079343  0  -0.234797  -0.450081  0  3.901065  0
C  C120  1  0.61096801  0.62347298  0.85377450  1  1.561297  0  0.192897  0.556276  0  4.239712  0
C  C121  1  0.11096931  0.87653696  0.64622562  1  1.561314  0  0.192924  0.556269  0  4.239466  0
C  C122  1  0.38903312  0.37653321  0.14622560  1  1.561323  0  0.192932  0.556286  0  4.23933  0
C  C123  1  0.88903366  0.12346209  0.35377441  1  1.561311  0  0.192915  0.556239  0  4.239424  0
C  C124  1  0.71560983  0.62008649  0.79646638  1  -0.062529  0  -0.026765  -0.047598  0  3.99117  0
C  C125  1  0.21561009  0.87992295  0.70353526  1  -0.062999  0  -0.026779  -0.047509  0  3.991261  0
C  C126  1  0.28438945  0.37992594  0.20353363  1  -0.06307  0  -0.026768  -0.047512  0  3.991111  0
C  C127  1  0.78439011  0.12007161  0.29646688  1  -0.06295  0  -0.026772  -0.04746  0  3.991039  0
C  C128  1  0.77367810  0.72533599  0.78974323  1  -0.042359  0  -0.09056  -0.102266  0  3.983626  0
C  C129  1  0.27367415  0.77467102  0.71025793  1  -0.042602  0  -0.090535  -0.102254  0  3.98351  0
C  C130  1  0.22633042  0.27467203  0.21025374  1  -0.042608  0  -0.090604  -0.10241  0  3.983444  0
C  C131  1  0.72632235  0.22532438  0.28974722  1  -0.042612  0  -0.090542  -0.102342  0  3.983355  0
C  C132  1  0.87086398  0.72089819  0.73656080  1  -0.102469  0  -0.096823  -0.096808  0  4.027641  0
C  C133  1  0.37086547  0.77910749  0.76343658  1  -0.102067  0  -0.096815  -0.096758  0  4.027674  0
C  C134  1  0.12913992  0.27910453  0.26343297  1  -0.102188  0  -0.09665  -0.096451  0  4.02766  0
C  C135  1  0.62913381  0.22088970  0.23656830  1  -0.102148  0  -0.096785  -0.096708  0  4.027554  0
C  C136  1  0.91266857  0.61135191  0.69137343  1  -0.020845  0  -0.085767  -0.088268  0  3.953146  0
C  C137  1  0.41267047  0.88864943  0.80862718  1  -0.021002  0  -0.085709  -0.088159  0  3.953027  0
C  C138  1  0.08733994  0.38864541  0.30862343  1  -0.020319  0  -0.085779  -0.088221  0  3.953192  0
C  C139  1  0.58732881  0.11134691  0.19137468  1  -0.021032  0  -0.085674  -0.088165  0  3.953079  0
C  C140  1  0.85503721  0.50532308  0.69674213  1  -0.043484  0  -0.022048  -0.039099  0  3.958638  0
C  C141  1  0.35503961  0.99468156  0.80326083  1  -0.043702  0  -0.022054  -0.039109  0  3.958371  0
C  C142  1  0.14496577  0.49468039  0.30326038  1  -0.043528  0  -0.022039  -0.039094  0  3.958696  0
C  C143  1  0.64495875  0.00531743  0.19674321  1  -0.043267  0  -0.02215  -0.039289  0  3.958642  0
C  C144  1  0.75566683  0.51092865  0.74898344  1  -0.068371  0  -0.07913  -0.109968  0  3.945456  0
C  C145  1  0.25566379  0.98907561  0.75101842  1  -0.067952  0  -0.079211  -0.110212  0  3.945533  0
C  C146  1  0.24433153  0.48907484  0.25101849  1  -0.067955  0  -0.079175  -0.110064  0  3.945569  0
C  C147  1  0.74433549  0.01092075  0.24898288  1  -0.067908  0  -0.079103  -0.109992  0  3.945387  0
C  C148  1  0.89538792  0.38693747  0.64446937  1  1.582448  0  0.191594  0.566908  0  4.237435  0
C  C149  1  0.39539488  0.11306860  0.85553181  1  1.582726  0  0.191691  0.567022  0  4.237133  0
C  C150  1  0.10461506  0.61306606  0.35552970  1  1.582427  0  0.191638  0.566862  0  4.237514  0
C  C151  1  0.60460717  0.88692859  0.14447308  1  1.582339  0  0.191808  0.567186  0  4.236987  0
N  N152  1  0.82388612  0.94986833  0.03182806  1  -1.173992  0  -0.357626  -0.404127  0  3.429683  0
N  N153  1  0.32388605  0.55013614  0.46817443  1  -1.173977  0  -0.357582  -0.403994  0  3.429713  0
N  N154  1  0.17611316  0.05013338  0.96817357  1  -1.173842  0  -0.357565  -0.403986  0  3.429712  0
N  N155  1  0.67611139  0.44985849  0.53182369  1  -1.173966  0  -0.357624  -0.404021  0  3.429378  0
N  N156  1  0.81049073  0.56547862  0.97903498  1  -1.211497  0  -0.357257  -0.397959  0  3.42147  0
N  N157  1  0.31049261  0.93452585  0.52096686  1  -1.211487  0  -0.357271  -0.397995  0  3.421634  0
N  N158  1  0.18950670  0.43452313  0.02096322  1  -1.211549  0  -0.357238  -0.397875  0  3.421595  0
N  N159  1  0.68950760  0.06547497  0.47903405  1  -1.211512  0  -0.357279  -0.398036  0  3.421566  0
N  N160  1  0.65852154  0.96321879  0.94805760  1  -1.338428  0  -0.57654  -0.655098  0  3.344127  0
N  N161  1  0.15852056  0.53678598  0.55194330  1  -1.338129  0  -0.576582  -0.65515  0  3.344151  0
N  N162  1  0.34148236  0.03678478  0.05193918  1  -1.338437  0  -0.576563  -0.655157  0  3.344095  0
N  N163  1  0.84148057  0.46320864  0.44805482  1  -1.338102  0  -0.576593  -0.655255  0  3.34399  0
N  N164  1  0.64274245  0.55708665  0.06198327  1  -1.334901  0  -0.559359  -0.638192  0  3.360313  0
N  N165  1  0.14274705  0.94291261  0.43801968  1  -1.334904  0  -0.559294  -0.638219  0  3.360362  0
N  N166  1  0.35725129  0.44290881  0.93801787  1  -1.335131  0  -0.559391  -0.638361  0  3.360693  0
N  N167  1  0.85725315  0.05708824  0.56197950  1  -1.335012  0  -0.559296  -0.638257  0  3.360485  0
N  N168  1  0.70138718  0.38324942  0.97190392  1  -1.199331  0  -0.353556  -0.356905  0  3.518069  0
N  N169  1  0.20139125  0.11675319  0.52809687  1  -1.199063  0  -0.353547  -0.356858  0  3.517931  0
N  N170  1  0.29861118  0.61674883  0.02809023  1  -1.198741  0  -0.353545  -0.356976  0  3.517752  0
N  N171  1  0.79861080  0.88324767  0.47190174  1  -1.198926  0  -0.353497  -0.356784  0  3.517808  0
N  N172  1  0.73093347  0.13721015  0.02909611  1  -1.201762  0  -0.338716  -0.397178  0  3.392513  0
N  N173  1  0.23093485  0.36279340  0.47090606  1  -1.201614  0  -0.338734  -0.397193  0  3.392513  0
N  N174  1  0.26907228  0.86279246  0.97090453  1  -1.201735  0  -0.338693  -0.397132  0  3.392227  0
N  N175  1  0.76906351  0.63720037  0.52908962  1  -1.202139  0  -0.338718  -0.397231  0  3.392387  0
O  O176  1  0.59950993  0.72231037  0.90793660  1  -1.162479  0  -0.345063  -0.573989  0  2.480045  0
O  O177  1  0.09950721  0.77769589  0.59206750  1  -1.162328  0  -0.345053  -0.573971  0  2.479867  0
O  O178  1  0.40049581  0.27769664  0.09206766  1  -1.162409  0  -0.345047  -0.573964  0  2.479936  0
O  O179  1  0.90049299  0.22229424  0.40793273  1  -1.162245  0  -0.345045  -0.573964  0  2.479938  0
O  O180  1  0.54287695  0.53417267  0.84720383  1  -1.18031  0  -0.323658  -0.541568  0  2.136247  0
O  O181  1  0.04287311  0.96583610  0.65279616  1  -1.180526  0  -0.323646  -0.54153  0  2.136059  0
O  O182  1  0.45712602  0.46583804  0.15279245  1  -1.180531  0  -0.323674  -0.541568  0  2.135937  0
O  O183  1  0.95712894  0.03415759  0.34720410  1  -1.180655  0  -0.32368  -0.541546  0  2.135912  0
O  O184  1  0.82575154  0.29765100  0.64141776  1  -1.194091  0  -0.340324  -0.573509  0  2.220871  0
O  O185  1  0.32575429  0.20235479  0.85858287  1  -1.194148  0  -0.340377  -0.573583  0  2.220846  0
O  O186  1  0.17425236  0.70235248  0.35858417  1  -1.194211  0  -0.340362  -0.573503  0  2.220882  0
O  O187  1  0.67424129  0.79763978  0.14141869  1  -1.194071  0  -0.340469  -0.573669  0  2.220795  0
O  O188  1  0.99544551  0.38592478  0.60551861  1  -1.180035  0  -0.336333  -0.559611  0  2.324547  0
O  O189  1  0.49545145  0.11407817  0.89447962  1  -1.1801  0  -0.336348  -0.559644  0  2.324451  0
O  O190  1  0.00455562  0.61407516  0.39448157  1  -1.179936  0  -0.336363  -0.559644  0  2.324593  0
O  O191  1  0.50454875  0.88592180  0.10551884  1  -1.180015  0  -0.336361  -0.559683  0  2.324302  0
