# generated using pymatgen
data_NiH20C24(N5O3)2
_symmetry_space_group_name_H-M   'P 1'
_cell_length_a   15.57785241
_cell_length_b   15.57790672
_cell_length_c   16.98452383
_cell_angle_alpha   107.25282319
_cell_angle_beta   107.25238285
_cell_angle_gamma   97.67516688
_symmetry_Int_Tables_number   1
_chemical_formula_structural   NiH20C24(N5O3)2
_chemical_formula_sum   'Ni4 H80 C96 N40 O24'
_cell_volume   3646.52500998
_cell_formula_units_Z   4
loop_
 _symmetry_equiv_pos_site_id
 _symmetry_equiv_pos_as_xyz
  1  'x, y, z'
loop_
 _atom_site_type_symbol
 _atom_site_label
 _atom_site_symmetry_multiplicity
 _atom_site_fract_x
 _atom_site_fract_y
 _atom_site_fract_z
 _atom_site_occupancy
 _atom_site_pbe_bader_charge
 _atom_site_pbe_bader_spin_density
 _atom_site_pbe_cm5_charge
 _atom_site_pbe_ddec_charge
 _atom_site_pbe_ddec_spin_density
 _atom_site_pbe_ddec_sum_bond_order
 _atom_site_pbe_magmom
Ni  Ni0  1  0.39976540  0.60023022  0.24999387  1  1.125454  -1.525529  0.642362  0.598311  -1.805489  2.599338  -1.513
Ni  Ni1  1  0.59993199  0.40007157  0.75000615  1  1.126134  1.525455  0.641452  0.594174  1.872311  2.601958  1.513
Ni  Ni2  1  0.00088728  0.99910995  0.24999938  1  1.118035  -1.523055  0.632004  0.586855  -1.791967  2.461383  -1.51
Ni  Ni3  1  0.00108821  0.99891424  0.74999875  1  0.936274  0.000973  0.689967  0.423556  0.001208  2.922376  0.001
H  H4  1  0.26397112  0.66904244  0.13584971  1  0.109662  -0.00189  0.119647  0.087425  -0.000733  1.007755  -0.001
H  H5  1  0.67082133  0.26405922  0.63736212  1  0.125663  0.001835  0.119652  0.088255  0.00074  1.006853  0.001
H  H6  1  0.73594343  0.32918592  0.86265071  1  0.125426  0.001836  0.119642  0.088295  0.000741  1.006846  0.001
H  H7  1  0.33095018  0.73603183  0.36413528  1  0.113192  -0.001887  0.119649  0.087471  -0.000732  1.00782  -0.001
H  H8  1  0.24278191  0.81651816  0.11109616  1  0.088729  -0.001096  0.114443  0.12556  -0.00051  0.985781  0.0
H  H9  1  0.81851751  0.24435002  0.61286514  1  0.088487  0.001053  0.113682  0.124286  0.000503  0.988578  0.0
H  H10  1  0.75565232  0.18148566  0.88714468  1  0.088431  0.001052  0.113719  0.124362  0.000503  0.988598  0.0
H  H11  1  0.18347768  0.75722938  0.38889375  1  0.088498  -0.001096  0.114471  0.125696  -0.00051  0.985627  0.0
H  H12  1  0.51442901  0.95116048  0.30929840  1  0.12881  -0.000897  0.113742  0.122619  -0.00043  0.996438  0.0
H  H13  1  0.95143847  0.51625759  0.81092569  1  0.117746  0.000895  0.113185  0.122281  0.000441  0.995887  0.0
H  H14  1  0.48374663  0.04856609  0.68908083  1  0.117887  0.000895  0.113166  0.122302  0.000441  0.995942  0.0
H  H15  1  0.04882620  0.48558043  0.19068862  1  0.128406  -0.000897  0.113757  0.122629  -0.00043  0.996388  0.0
H  H16  1  0.52408663  0.79818741  0.32589399  1  0.094199  -0.001677  0.120212  0.090992  -0.000647  1.008804  -0.001
H  H17  1  0.79803777  0.52507124  0.82673342  1  0.074604  0.00166  0.119713  0.089703  0.000665  1.008055  0.001
H  H18  1  0.47493727  0.20196235  0.67327251  1  0.074809  0.00166  0.119778  0.089777  0.000665  1.008094  0.001
H  H19  1  0.20179981  0.47592127  0.17409154  1  0.094053  -0.001676  0.120256  0.091174  -0.000647  1.008768  -0.001
H  H20  1  0.29500380  0.98386310  0.15467204  1  0.143265  -1e-06  0.117508  0.094779  -2e-05  1.028867  0.0
H  H21  1  0.98602012  0.29759942  0.65643630  1  0.161739  2e-06  0.118622  0.100268  2.1e-05  1.03107  0.0
H  H22  1  0.70240357  0.01398193  0.84357943  1  0.161758  2e-06  0.11859  0.100285  2.1e-05  1.031051  0.0
H  H23  1  0.01613089  0.70500633  0.34532576  1  0.143075  -1e-06  0.117485  0.094768  -2e-05  1.029003  0.0
H  H24  1  0.29562059  0.39508689  0.14368480  1  0.093805  -0.001659  0.117299  0.092892  -0.000664  1.020184  -0.001
H  H25  1  0.39416539  0.29581124  0.64355199  1  0.097041  0.001709  0.117352  0.092511  0.000714  1.014412  0.002
H  H26  1  0.70418902  0.60584306  0.85645818  1  0.096869  0.001709  0.117336  0.092532  0.000714  1.014293  0.002
H  H27  1  0.60490631  0.70437283  0.35631191  1  0.093635  -0.00166  0.117309  0.092838  -0.000664  1.020213  -0.001
H  H28  1  0.31214842  0.23940832  0.14913129  1  0.144905  -0.000893  0.112052  0.124471  -0.000466  1.010391  0.0
H  H29  1  0.23907126  0.31256550  0.65017964  1  0.146182  0.000798  0.110785  0.129762  0.000387  1.026811  0.0
H  H30  1  0.68743852  0.76093650  0.84983202  1  0.146102  0.000798  0.110746  0.129714  0.000387  1.026894  0.0
H  H31  1  0.76058284  0.68785115  0.35086703  1  0.144955  -0.000893  0.112028  0.124422  -0.000466  1.010501  0.0
H  H32  1  0.54221977  0.38128587  0.39538170  1  0.146881  -0.000819  0.109722  0.123626  -0.000383  1.023755  0.0
H  H33  1  0.38235786  0.54313051  0.89584757  1  0.120826  0.00085  0.108502  0.122822  0.000409  1.024287  0.0
H  H34  1  0.45687574  0.61764539  0.60415969  1  0.121039  0.00085  0.108535  0.122888  0.000409  1.024277  0.0
H  H35  1  0.61871692  0.45777847  0.10461610  1  0.146814  -0.000819  0.109711  0.123632  -0.000384  1.023716  0.0
H  H36  1  0.51392470  0.53015009  0.38035863  1  0.094557  -0.001742  0.120494  0.08978  -0.000665  1.002206  -0.001
H  H37  1  0.53080075  0.51460540  0.87967087  1  0.11958  0.001767  0.119236  0.087912  0.000706  1.004656  0.001
H  H38  1  0.48539663  0.46919976  0.62033855  1  0.119895  0.001767  0.119202  0.087913  0.000705  1.004623  0.001
H  H39  1  0.46984634  0.48606995  0.11963482  1  0.094441  -0.001742  0.120495  0.089759  -0.000665  1.002256  -0.001
H  H40  1  0.50221743  0.21301620  0.33921785  1  0.141942  0.000155  0.120233  0.095764  0.000128  1.009229  0.0
H  H41  1  0.21408268  0.50117633  0.84194687  1  0.150067  -0.000147  0.117563  0.091045  -0.000106  1.012659  0.0
H  H42  1  0.49883723  0.78591403  0.65805343  1  0.15016  -0.000147  0.117585  0.091103  -0.000106  1.012805  0.0
H  H43  1  0.78698293  0.49778082  0.16078495  1  0.141961  0.000155  0.120275  0.095735  0.000127  1.009264  0.0
H  H44  1  0.85257730  0.82604023  0.17984317  1  0.121681  -0.001892  0.122575  0.093505  -0.000749  0.989373  -0.001
H  H45  1  0.83725431  0.86355681  0.70515835  1  0.115671  0.0  0.129047  0.103508  -2e-06  0.994781  0.0
H  H46  1  0.13645136  0.16274976  0.79484736  1  0.115701  0.0  0.129044  0.103478  -2e-06  0.994792  0.0
H  H47  1  0.17395989  0.14742432  0.32016653  1  0.121701  -0.001892  0.122592  0.093608  -0.000749  0.989304  -0.001
H  H48  1  0.82388868  0.65595163  0.09696922  1  0.131929  -0.000895  0.111948  0.130609  -0.000434  1.013934  0.0
H  H49  1  0.66834094  0.83656118  0.62167830  1  0.132929  1.7e-05  0.116489  0.135929  1.4e-05  1.00106  0.0
H  H50  1  0.16343983  0.33166117  0.87833022  1  0.132844  1.7e-05  0.116508  0.135959  1.4e-05  1.000958  0.0
H  H51  1  0.34404751  0.17611140  0.40303926  1  0.131995  -0.000895  0.111955  0.130594  -0.000434  1.0139  0.0
H  H52  1  0.09707341  0.71132200  0.08400050  1  0.119037  -0.000872  0.107216  0.109231  -0.000421  1.025517  0.0
H  H53  1  0.73283980  0.09026408  0.57389952  1  0.097958  3.2e-05  0.112154  0.116404  1.7e-05  1.012515  0.0
H  H54  1  0.90973271  0.26715838  0.92610014  1  0.097889  3.2e-05  0.112156  0.116377  1.7e-05  1.012596  0.0
H  H55  1  0.28867990  0.90292257  0.41598945  1  0.119108  -0.000872  0.107177  0.109168  -0.000421  1.025575  0.0
H  H56  1  0.11169086  0.88108582  0.16225059  1  0.161314  -0.001701  0.113473  0.087267  -0.000649  1.056375  -0.001
H  H57  1  0.90203263  0.10233762  0.65175734  1  0.18758  1.1e-05  0.118932  0.099186  9e-06  1.052652  0.0
H  H58  1  0.89766501  0.09796562  0.84824094  1  0.187617  1.1e-05  0.118944  0.099204  9e-06  1.052592  0.0
H  H59  1  0.11891403  0.88830246  0.33774164  1  0.16133  -0.001701  0.113499  0.087318  -0.000649  1.056247  -0.001
H  H60  1  0.87784348  0.52536520  0.02511439  1  0.15821  -4.9e-05  0.1156  0.088261  -6.1e-05  1.029099  0.0
H  H61  1  0.54096703  0.88551042  0.53797250  1  0.151049  3e-05  0.115986  0.089523  3.7e-05  1.027738  0.0
H  H62  1  0.11448774  0.45903378  0.96202499  1  0.15103  3e-05  0.11597  0.089544  3.7e-05  1.027706  0.0
H  H63  1  0.47463305  0.12215615  0.47489301  1  0.158174  -4.9e-05  0.1156  0.088185  -6.1e-05  1.029083  0.0
H  H64  1  0.96446182  0.17846723  0.22318991  1  0.102759  -0.002051  0.120568  0.101642  -0.000848  0.994114  -0.001
H  H65  1  0.17131770  0.97358364  0.71854597  1  0.17935  0.0  0.126423  0.113027  -1e-06  0.995913  0.0
H  H66  1  0.02641271  0.82868290  0.78145275  1  0.179371  0.0  0.126435  0.113077  -1e-06  0.995903  0.0
H  H67  1  0.82152426  0.03553415  0.27681418  1  0.102614  -0.002052  0.120573  0.101654  -0.000848  0.994032  -0.001
H  H68  1  0.96862581  0.33975355  0.31659854  1  0.108729  -0.000959  0.112971  0.121746  -0.000454  0.99836  0.0
H  H69  1  0.33142087  0.97834532  0.81464761  1  0.13099  -2e-06  0.117653  0.128001  -3e-06  0.990813  0.0
H  H70  1  0.02164727  0.66857957  0.68534887  1  0.131011  -2e-06  0.117688  0.12803  -3e-06  0.99086  0.0
H  H71  1  0.66023708  0.03135873  0.18339638  1  0.108974  -0.000959  0.112987  0.121754  -0.000454  0.998362  0.0
H  H72  1  0.06633711  0.25983659  0.54491201  1  0.154416  -0.000889  0.107004  0.112071  -0.000422  1.069018  -0.001
H  H73  1  0.24045247  0.05686736  0.03793630  1  0.138935  -9.5e-05  0.109515  0.116307  -9.8e-05  1.051425  0.0
H  H74  1  0.94312275  0.75954372  0.46206039  1  0.13891  -9.5e-05  0.109491  0.116266  -9.8e-05  1.051475  0.0
H  H75  1  0.74016078  0.93365311  0.95509008  1  0.153963  -0.000889  0.107017  0.112077  -0.000422  1.068989  -0.001
H  H76  1  0.05480225  0.10378836  0.44303135  1  0.136177  -0.00207  0.1198  0.098365  -0.000825  1.002493  -0.001
H  H77  1  0.08514572  0.04272453  0.93378142  1  0.175603  1.3e-05  0.125127  0.11008  1e-05  1.011673  0.0
H  H78  1  0.95727576  0.91485180  0.56621721  1  0.175614  1.3e-05  0.125138  0.110056  1e-05  1.011693  0.0
H  H79  1  0.89620948  0.94519648  0.05697078  1  0.136244  -0.002069  0.119845  0.098434  -0.000825  1.00247  -0.001
H  H80  1  0.05434587  0.41955482  0.56933094  1  0.128851  -7e-06  0.115152  0.080601  -2.6e-05  1.033988  0.0
H  H81  1  0.40365265  0.05219735  0.06593736  1  0.116873  -1e-05  0.114113  0.080421  2e-06  1.040785  0.0
H  H82  1  0.94779054  0.59634326  0.43405507  1  0.116732  -1e-05  0.114126  0.080493  2e-06  1.040672  0.0
H  H83  1  0.58044199  0.94563976  0.93066631  1  0.128843  -7e-06  0.115137  0.080567  -2.6e-05  1.033874  0.0
C  C84  1  0.31818105  0.73295226  0.17216903  1  0.464431  0.003827  0.045187  0.092358  0.001854  3.961201  0.003
C  C85  1  0.73429963  0.31884642  0.67373233  1  0.437006  -0.003738  0.043465  0.088479  -0.001667  3.962703  -0.003
C  C86  1  0.68115543  0.26570619  0.82627456  1  0.437372  -0.003737  0.043487  0.088432  -0.001667  3.963119  -0.003
C  C87  1  0.26704282  0.68182448  0.32781970  1  0.462362  0.003826  0.045211  0.092107  0.001853  3.961412  0.003
C  C88  1  0.30656041  0.81508926  0.15912934  1  -0.049343  -0.005082  -0.077023  -0.16559  -0.003034  3.92288  -0.004
C  C89  1  0.81665342  0.30790156  0.66087908  1  -0.006106  0.005008  -0.077527  -0.166129  0.003087  3.926776  0.004
C  C90  1  0.69210088  0.18335119  0.83913436  1  -0.006088  0.00501  -0.077557  -0.166213  0.003088  3.92681  0.004
C  C91  1  0.18490757  0.69345114  0.34085830  1  -0.042872  -0.005084  -0.07703  -0.165581  -0.003034  3.923135  -0.004
C  C92  1  0.37748504  0.89621754  0.20825550  1  0.029119  0.005461  0.010572  0.114733  0.003313  4.013115  0.004
C  C93  1  0.89741700  0.37928083  0.70984565  1  -0.043874  -0.005411  0.009606  0.116154  -0.00316  4.014182  -0.004
C  C94  1  0.62071886  0.10258585  0.79016476  1  -0.044504  -0.00541  0.009674  0.116328  -0.003159  4.014524  -0.004
C  C95  1  0.10377811  0.62252574  0.29173755  1  0.021217  0.005462  0.010568  0.114572  0.003312  4.01342  0.004
C  C96  1  0.45801555  0.88986639  0.26886589  1  -0.03046  -0.006441  -0.071219  -0.146922  -0.0038  3.904698  -0.005
C  C97  1  0.89041617  0.45955321  0.77032732  1  -0.001925  0.006344  -0.072677  -0.15056  0.003891  3.907911  0.005
C  C98  1  0.54045387  0.10958643  0.72968300  1  -0.002122  0.006345  -0.072717  -0.150688  0.003891  3.908207  0.005
C  C99  1  0.11012366  0.54199252  0.23112577  1  -0.029229  -0.006439  -0.071299  -0.146976  -0.003799  3.904923  -0.005
C  C100  1  0.46371555  0.80494089  0.27790325  1  0.501222  0.003139  0.051242  0.098548  0.001324  3.922024  0.002
C  C101  1  0.80527537  0.46471800  0.77907804  1  0.528163  -0.003137  0.051102  0.098484  -0.001175  3.923675  -0.002
C  C102  1  0.53529090  0.19472729  0.72092489  1  0.528349  -0.003137  0.050967  0.098357  -0.001176  3.923432  -0.002
C  C103  1  0.19504387  0.53629133  0.22207866  1  0.500422  0.003137  0.051123  0.098264  0.001323  3.922214  0.002
C  C104  1  0.36390303  0.98263947  0.19572403  1  0.618236  -0.001248  0.073756  0.035598  -0.000674  3.907925  -0.001
C  C105  1  0.98396230  0.36640833  0.69709890  1  0.593955  0.001391  0.071672  0.028789  0.000799  3.906718  0.001
C  C106  1  0.63359510  0.01604405  0.80291896  1  0.594484  0.001393  0.071727  0.028746  0.000801  3.906544  0.001
C  C107  1  0.01735755  0.63610961  0.30426968  1  0.618541  -0.001248  0.073785  0.035621  -0.000674  3.907942  -0.001
C  C108  1  0.34833828  0.38864143  0.19889085  1  0.452585  0.001864  0.043168  0.082114  0.000523  3.942212  0.001
C  C109  1  0.38833978  0.34911090  0.69874022  1  0.477335  -0.001924  0.043553  0.084545  -0.000378  3.937931  -0.001
C  C110  1  0.65089025  0.61167356  0.80127409  1  0.477986  -0.001924  0.043534  0.08456  -0.000376  3.937803  -0.001
C  C111  1  0.61135487  0.65166156  0.30110347  1  0.452359  0.001862  0.04314  0.082248  0.000524  3.942109  0.001
C  C112  1  0.35927540  0.30229204  0.20101225  1  -0.014175  -0.00581  -0.073159  -0.150686  -0.003448  3.907499  -0.005
C  C113  1  0.30211322  0.36043037  0.70113607  1  -0.030445  0.005903  -0.073616  -0.151177  0.003645  3.896145  0.005
C  C114  1  0.63957082  0.69789774  0.79887386  1  -0.030587  0.005903  -0.073597  -0.151114  0.003644  3.896243  0.005
C  C115  1  0.69770385  0.64072411  0.29898327  1  -0.01446  -0.005811  -0.073213  -0.150804  -0.003449  3.907817  -0.005
C  C116  1  0.43138027  0.29745720  0.27132200  1  -0.00792  0.004566  0.010169  0.11127  0.002773  4.003123  0.003
C  C117  1  0.29793381  0.43270926  0.77167660  1  -0.005367  -0.004586  0.009478  0.111814  -0.002685  4.004757  -0.003
C  C118  1  0.56729633  0.70207261  0.72833006  1  -0.006012  -0.004584  0.009479  0.111757  -0.002684  4.004745  -0.003
C  C119  1  0.70254247  0.56862013  0.22867388  1  -0.007978  0.004567  0.0102  0.111293  0.002775  4.003191  0.003
C  C120  1  0.48718033  0.38107518  0.33786922  1  -0.063011  -0.005  -0.073905  -0.153374  -0.002954  3.897432  -0.004
C  C121  1  0.38176080  0.48821966  0.83806133  1  0.014988  0.004992  -0.075512  -0.155956  0.003126  3.906205  0.004
C  C122  1  0.51178992  0.61824328  0.66194625  1  0.015101  0.004991  -0.075541  -0.156098  0.003126  3.906313  0.004
C  C123  1  0.61892438  0.51281757  0.16212665  1  -0.062541  -0.005001  -0.073902  -0.153364  -0.002955  3.897251  -0.004
C  C124  1  0.47074231  0.46435447  0.33055087  1  0.52233  0.003324  0.048131  0.100712  0.001633  3.936749  0.002
C  C125  1  0.46474699  0.47157138  0.83024114  1  0.415092  -0.00322  0.044969  0.098019  -0.001465  3.943913  -0.002
C  C126  1  0.52843161  0.53525705  0.66977016  1  0.414965  -0.003219  0.045065  0.098139  -0.001465  3.943584  -0.002
C  C127  1  0.53564349  0.52925247  0.16944413  1  0.522153  0.003326  0.048167  0.100758  0.001634  3.936652  0.002
C  C128  1  0.45029671  0.21025257  0.27806500  1  0.590142  -0.000438  0.081206  0.055433  -0.00018  3.888953  0.0
C  C129  1  0.21107476  0.45179004  0.77926942  1  0.609553  0.000639  0.079225  0.051329  0.000315  3.895521  0.0
C  C130  1  0.54821514  0.78892987  0.72073706  1  0.609962  0.000639  0.079158  0.051276  0.000315  3.896123  0.0
C  C131  1  0.78974609  0.54970406  0.22193442  1  0.590059  -0.000438  0.081249  0.055544  -0.000181  3.88893  0.0
C  C132  1  0.90464548  0.79771178  0.15685429  1  0.445685  0.004441  0.04949  0.099384  0.002222  3.936828  0.003
C  C133  1  0.81101446  0.91160520  0.67462562  1  0.567602  -0.000104  0.052243  0.087219  -6.2e-05  3.904846  0.0
C  C134  1  0.08839438  0.18898564  0.82537466  1  0.567533  -0.000104  0.052229  0.087221  -6.2e-05  3.904956  0.0
C  C135  1  0.20228933  0.09535169  0.34314711  1  0.445718  0.004438  0.049419  0.099208  0.00222  3.936984  0.003
C  C136  1  0.88929520  0.70352554  0.11162018  1  -0.046369  -0.005183  -0.073132  -0.151484  -0.003089  3.885136  -0.004
C  C137  1  0.71737835  0.89785186  0.62913960  1  -0.116183  0.000627  -0.068952  -0.146878  0.000374  3.888884  0.0
C  C138  1  0.10214832  0.28261934  0.87086168  1  -0.116057  0.000627  -0.069004  -0.146921  0.000374  3.888729  0.0
C  C139  1  0.29647496  0.11070333  0.38837934  1  -0.046668  -0.005183  -0.073101  -0.151534  -0.003089  3.885121  -0.004
C  C140  1  0.95937579  0.67008631  0.08500935  1  0.014632  0.005982  0.010471  0.110965  0.003608  3.990396  0.004
C  C141  1  0.68668300  0.96335768  0.59311372  1  -0.01054  -0.000177  0.014011  0.114474  -0.000109  3.987724  0.0
C  C142  1  0.03663921  0.31331633  0.90688513  1  -0.010408  -0.000177  0.014038  0.114529  -0.000109  3.987443  0.0
C  C143  1  0.32991619  0.04062042  0.41498909  1  0.014863  0.005981  0.010455  0.111014  0.003608  3.990439  0.004
C  C144  1  0.04160584  0.73477363  0.10426443  1  -0.003406  -0.005389  -0.075578  -0.1506  -0.003234  3.917527  -0.004
C  C145  1  0.75402517  0.03911573  0.60251251  1  -0.042962  0.000623  -0.070313  -0.143935  0.000369  3.906296  0.0
C  C146  1  0.96088031  0.24597341  0.89748737  1  -0.042992  0.000623  -0.070329  -0.143936  0.000369  3.90621  0.0
C  C147  1  0.26522944  0.95839186  0.39573131  1  -0.003531  -0.005388  -0.075623  -0.150697  -0.003234  3.917765  -0.004
C  C148  1  0.05070194  0.82786351  0.14836999  1  0.392264  0.003536  0.043822  0.082629  0.001696  3.944904  0.002
C  C149  1  0.84684760  0.04749903  0.64678893  1  0.449171  -0.000106  0.046826  0.072743  -6e-05  3.89705  0.0
C  C150  1  0.95250064  0.15315247  0.85321081  1  0.449121  -0.000106  0.046847  0.072785  -6e-05  3.897004  0.0
C  C151  1  0.17213848  0.94929532  0.35162743  1  0.392133  0.003537  0.043896  0.082697  0.001696  3.944668  0.002
C  C152  1  0.94525949  0.57096911  0.04005798  1  0.599698  -0.000867  0.079959  0.059997  -0.000532  3.882228  -0.001
C  C153  1  0.58784363  0.95028603  0.54806693  1  0.6149  0.002442  0.077148  0.052962  0.001573  3.889928  0.002
C  C154  1  0.04971149  0.41215835  0.95193018  1  0.614913  0.002444  0.077113  0.052845  0.001574  3.889917  0.002
C  C155  1  0.42903311  0.05473471  0.45994071  1  0.599919  -0.000866  0.080021  0.060214  -0.000532  3.882102  -0.001
C  C156  1  0.98472395  0.20001523  0.29462537  1  0.506655  0.002541  0.043192  0.079358  0.000875  3.948071  0.002
C  C157  1  0.19011789  0.98886972  0.78919828  1  0.446261  -0.000128  0.046344  0.066466  -7.4e-05  3.913411  0.0
C  C158  1  0.01112559  0.80988444  0.71080120  1  0.446362  -0.000128  0.046314  0.066336  -7.4e-05  3.913159  0.0
C  C159  1  0.79998287  0.01526888  0.20537732  1  0.506469  0.002545  0.043216  0.079385  0.000876  3.948175  0.002
C  C160  1  0.98790676  0.28877136  0.34629601  1  -0.029943  -0.006027  -0.075358  -0.152768  -0.003553  3.919267  -0.005
C  C161  1  0.27823509  0.99313008  0.84269508  1  -0.118574  0.000483  -0.069469  -0.145085  0.000287  3.908663  0.0
C  C162  1  0.00686024  0.72176418  0.65729838  1  -0.118476  0.000483  -0.06955  -0.145078  0.000287  3.908752  0.0
C  C163  1  0.71122503  0.01208315  0.15370693  1  -0.029944  -0.006028  -0.075261  -0.152671  -0.003553  3.919244  -0.005
C  C164  1  0.01754878  0.31279309  0.43848780  1  -0.100878  0.005211  0.006318  0.104733  0.00315  4.008335  0.003
C  C165  1  0.29914552  0.01775398  0.93423409  1  0.081262  -0.000206  0.013005  0.115827  -0.000113  3.999438  0.0
C  C166  1  0.98223726  0.70085608  0.56575933  1  0.081072  -0.000206  0.01293  0.115627  -0.000113  3.999816  0.0
C  C167  1  0.68720400  0.98244830  0.06151581  1  -0.101502  0.005211  0.00625  0.104662  0.00315  4.008244  0.003
C  C168  1  0.04269657  0.24551090  0.47412001  1  0.021399  -0.005525  -0.074861  -0.151611  -0.00326  3.898772  -0.004
C  C169  1  0.22892377  0.03703208  0.96773331  1  0.001247  0.000436  -0.072738  -0.153859  0.000242  3.900071  0.0
C  C170  1  0.96296073  0.77107553  0.53226261  1  0.000826  0.000436  -0.072653  -0.153714  0.000242  3.900201  0.0
C  C171  1  0.75448497  0.95729757  0.02588212  1  0.022176  -0.005525  -0.074898  -0.151628  -0.00326  3.898708  -0.004
C  C172  1  0.03645217  0.15777454  0.41749265  1  0.47072  0.003926  0.049626  0.101584  0.001922  3.914846  0.003
C  C173  1  0.14170968  0.03019477  0.91031304  1  0.377208  -9.7e-05  0.05297  0.094435  -6.8e-05  3.878974  0.0
C  C174  1  0.96980799  0.85829012  0.58968483  1  0.377594  -9.7e-05  0.053019  0.094558  -6.8e-05  3.878691  0.0
C  C175  1  0.84222315  0.96354684  0.08250685  1  0.470583  0.003926  0.04955  0.101495  0.001921  3.914905  0.003
C  C176  1  0.02311593  0.40411433  0.49805475  1  0.623306  -0.000939  0.08043  0.06688  -0.000577  3.885065  -0.001
C  C177  1  0.39016443  0.02410318  0.99479981  1  0.61464  0.001992  0.074233  0.051922  0.001288  3.897771  0.001
C  C178  1  0.97588666  0.60983335  0.50519424  1  0.614679  0.001992  0.074264  0.051917  0.001288  3.897515  0.001
C  C179  1  0.59588470  0.97687603  0.00194186  1  0.623062  -0.000939  0.080324  0.066816  -0.000577  3.885038  -0.001
N  N180  1  0.39516954  0.72736941  0.23096154  1  -1.208814  -0.07408  -0.318983  -0.212271  -0.046074  3.576161  -0.067
N  N181  1  0.72800860  0.39576480  0.73212473  1  -1.194357  0.07274  -0.316831  -0.208982  0.047051  3.570942  0.065
N  N182  1  0.60424271  0.27199585  0.76788069  1  -1.194466  0.072734  -0.316859  -0.208995  0.04705  3.571148  0.065
N  N183  1  0.27261938  0.60483513  0.26902024  1  -1.208613  -0.074075  -0.318863  -0.211863  -0.046072  3.575842  -0.067
N  N184  1  0.40299584  0.46914422  0.26221824  1  -1.194225  -0.072341  -0.318622  -0.217639  -0.044997  3.561943  -0.065
N  N185  1  0.46903246  0.40357288  0.76177159  1  -1.21829  0.073962  -0.317978  -0.215538  0.04771  3.568273  0.066
N  N186  1  0.59643408  0.53097627  0.73824176  1  -1.218611  0.073965  -0.318013  -0.215602  0.047711  3.567852  0.066
N  N187  1  0.53085322  0.59699803  0.23777724  1  -1.193631  -0.072348  -0.318587  -0.21762  -0.045003  3.561812  -0.065
N  N188  1  0.46310619  0.67314087  0.45466964  1  0.821026  0.00039  0.099132  0.711042  -0.000105  4.420691  0.001
N  N189  1  0.66923051  0.45648370  0.95310373  1  0.82959  -0.000453  0.099464  0.710058  0.000156  4.417972  -0.001
N  N190  1  0.54353450  0.33077795  0.54691199  1  0.8299  -0.000452  0.099538  0.710135  0.000157  4.418266  -0.001
N  N191  1  0.32685698  0.53688217  0.04531737  1  0.820805  0.00039  0.099321  0.711247  -0.000104  4.420613  0.001
N  N192  1  0.43056154  0.05694408  0.23437704  1  -0.767567  0.003427  -0.20531  -0.161341  0.002032  3.327473  0.003
N  N193  1  0.05765281  0.43384758  0.73485788  1  -0.761681  -0.003521  -0.205845  -0.162401  -0.002019  3.333655  -0.003
N  N194  1  0.56615098  0.94235067  0.76514880  1  -0.761959  -0.003521  -0.205834  -0.162341  -0.002019  3.333387  -0.003
N  N195  1  0.94305286  0.56944890  0.26561516  1  -0.767503  0.003426  -0.205307  -0.161319  0.002032  3.327582  0.003
N  N196  1  0.40517786  0.13203303  0.21523800  1  -0.76613  0.002838  -0.200543  -0.15607  0.001655  3.344806  0.002
N  N197  1  0.13285885  0.40960041  0.71545996  1  -0.757167  -0.003077  -0.197354  -0.147477  -0.001735  3.348291  -0.002
N  N198  1  0.59040196  0.86714536  0.78454520  1  -0.757401  -0.003076  -0.197241  -0.147404  -0.001734  3.348706  -0.002
N  N199  1  0.86796625  0.59482900  0.28475720  1  -0.766173  0.00284  -0.200639  -0.156142  0.001656  3.344966  0.002
N  N200  1  0.98370519  0.85932991  0.17520118  1  -1.211746  -0.066871  -0.316835  -0.215099  -0.041641  3.573684  -0.06
N  N201  1  0.87491468  0.98526041  0.68379129  1  -1.197665  0.000576  -0.333862  -0.158641  0.00035  3.660466  0.0
N  N202  1  0.01473924  0.12508607  0.81620921  1  -1.19769  0.000576  -0.333848  -0.15863  0.00035  3.660535  0.0
N  N203  1  0.14067049  0.01629399  0.32479991  1  -1.211674  -0.066869  -0.316815  -0.214993  -0.04164  3.573623  -0.06
N  N204  1  0.00828675  0.13519963  0.32948680  1  -1.228565  -0.074924  -0.32003  -0.215821  -0.046283  3.571219  -0.066
N  N205  1  0.12261972  0.00657373  0.82261067  1  -1.189599  0.000465  -0.338073  -0.16073  0.000288  3.670559  0.0
N  N206  1  0.99342570  0.87738456  0.67738926  1  -1.189491  0.000465  -0.338099  -0.16079  0.000288  3.670307  0.0
N  N207  1  0.86479759  0.99170913  0.17051352  1  -1.228189  -0.07493  -0.320051  -0.215867  -0.046286  3.571416  -0.066
N  N208  1  0.10837602  0.06630314  0.13224540  1  0.830361  0.000497  0.101402  0.725637  -3.5e-05  4.408357  0.001
N  N209  1  0.08162860  0.12268979  0.62329062  1  0.804827  -2.3e-05  0.089219  0.725509  -1.9e-05  4.438029  0.0
N  N210  1  0.87731087  0.91837336  0.87670844  1  0.804988  -2.3e-05  0.089224  0.725602  -1.9e-05  4.43789  0.0
N  N211  1  0.93369845  0.89162425  0.36775485  1  0.830722  0.000496  0.101551  0.725814  -3.6e-05  4.408005  0.001
N  N212  1  0.01121666  0.53868851  0.01928018  1  -0.764113  0.003233  -0.212653  -0.179882  0.001964  3.326531  0.003
N  N213  1  0.55689261  0.01378860  0.52136643  1  -0.75321  -0.000743  -0.212137  -0.176722  -0.000506  3.317167  -0.001
N  N214  1  0.98620512  0.44310973  0.97862861  1  -0.75314  -0.000743  -0.212086  -0.176731  -0.000506  3.31723  -0.001
N  N215  1  0.46131507  0.98878007  0.48071361  1  -0.764311  0.003232  -0.212741  -0.18006  0.001964  3.326657  0.003
N  N216  1  0.99184501  0.46528965  0.46772883  1  -0.748962  0.002729  -0.213563  -0.172434  0.001664  3.297376  0.002
N  N217  1  0.45308537  0.99707284  0.96488441  1  -0.756047  -0.000721  -0.209871  -0.165398  -0.000478  3.308671  -0.001
N  N218  1  0.00291304  0.54691089  0.53510875  1  -0.756408  -0.000721  -0.20978  -0.165229  -0.000478  3.30844  -0.001
N  N219  1  0.53470912  0.00814540  0.03226320  1  -0.749039  0.002729  -0.213318  -0.172179  0.001664  3.297458  0.002
O  O220  1  0.47419162  0.67955311  0.38305214  1  -0.60221  -0.073077  -0.207292  -0.483668  -0.044667  2.214103  -0.069
O  O221  1  0.67756482  0.47234270  0.88395146  1  -0.601571  0.072793  -0.207647  -0.482624  0.046282  2.201009  0.069
O  O222  1  0.52766595  0.32244458  0.61606080  1  -0.601575  0.072793  -0.207576  -0.482387  0.046283  2.20094  0.069
O  O223  1  0.32044218  0.52579842  0.11693521  1  -0.601875  -0.073077  -0.207368  -0.483844  -0.044669  2.213969  -0.069
O  O224  1  0.40119854  0.61006916  0.44988392  1  -0.502198  0.004027  -0.176875  -0.419817  0.002519  1.915914  0.003
O  O225  1  0.60267708  0.39646300  0.94528777  1  -0.491734  -0.00399  -0.176112  -0.417985  -0.002416  1.916942  -0.003
O  O226  1  0.60354385  0.39734133  0.55473172  1  -0.492006  -0.003989  -0.17611  -0.417948  -0.002415  1.916894  -0.003
O  O227  1  0.38992910  0.59879434  0.05010559  1  -0.501865  0.004027  -0.176908  -0.419847  0.002519  1.915847  0.003
O  O228  1  0.51745595  0.73314210  0.52651639  1  -0.533307  -0.01419  -0.189427  -0.45049  -0.008168  1.988577  -0.012
O  O229  1  0.73130842  0.50462450  0.02624312  1  -0.553145  0.013761  -0.187287  -0.450472  0.008239  2.003183  0.012
O  O230  1  0.49541348  0.26869004  0.47377277  1  -0.553069  0.013763  -0.187426  -0.450745  0.008241  2.003463  0.012
O  O231  1  0.26685791  0.48253248  0.97347306  1  -0.533709  -0.014188  -0.189468  -0.450482  -0.008167  1.988762  -0.012
O  O232  1  0.04131904  0.06804607  0.16291333  1  -0.58919  -0.077609  -0.19766  -0.474017  -0.046541  2.098323  -0.072
O  O233  1  0.07834083  0.04826852  0.64056857  1  -0.58053  7e-06  -0.219389  -0.518712  4e-06  2.024553  0.0
O  O234  1  0.95173583  0.92166399  0.85943434  1  -0.580626  7e-06  -0.219423  -0.518768  4e-06  2.024478  0.0
O  O235  1  0.93195678  0.95868438  0.33709190  1  -0.589212  -0.07761  -0.197725  -0.474099  -0.046542  2.098195  -0.072
O  O236  1  0.15265502  0.00443641  0.13414603  1  -0.54747  0.000401  -0.194781  -0.460336  0.000352  1.972077  0.0
O  O237  1  0.01415692  0.16142958  0.62080544  1  -0.57388  -1.1e-05  -0.218647  -0.489636  -3e-06  1.953939  0.0
O  O238  1  0.83856106  0.98583618  0.87917954  1  -0.573944  -1.1e-05  -0.218559  -0.489596  -3e-06  1.954009  0.0
O  O239  1  0.99556898  0.84735090  0.36585458  1  -0.547509  0.0004  -0.194849  -0.460383  0.000352  1.97201  0.0
O  O240  1  0.12672490  0.12729172  0.10148603  1  -0.502804  -0.021616  -0.198558  -0.436976  -0.012356  1.874365  -0.018
O  O241  1  0.15099103  0.15762386  0.60952386  1  -0.540324  4.4e-05  -0.217017  -0.468504  2.6e-05  1.90374  0.0
O  O242  1  0.84238175  0.84901309  0.89048228  1  -0.540363  4.4e-05  -0.217076  -0.468588  2.6e-05  1.903575  0.0
O  O243  1  0.87270447  0.87326745  0.39850669  1  -0.503077  -0.021616  -0.198578  -0.437021  -0.012356  1.874248  -0.018
