# generated using pymatgen
data_CuH11C13(NO)2
_symmetry_space_group_name_H-M   'P 1'
_cell_length_a   9.75289043
_cell_length_b   9.75246552
_cell_length_c   10.39260381
_cell_angle_alpha   90.00751058
_cell_angle_beta   90.00333965
_cell_angle_gamma   120.00202838
_symmetry_Int_Tables_number   1
_chemical_formula_structural   CuH11C13(NO)2
_chemical_formula_sum   'Cu3 H33 C39 N6 O6'
_cell_volume   856.03966040
_cell_formula_units_Z   3
loop_
 _symmetry_equiv_pos_site_id
 _symmetry_equiv_pos_as_xyz
  1  'x, y, z'
loop_
 _atom_site_type_symbol
 _atom_site_label
 _atom_site_symmetry_multiplicity
 _atom_site_fract_x
 _atom_site_fract_y
 _atom_site_fract_z
 _atom_site_occupancy
 _atom_site_pbe_bader_spin_density
 _atom_site_pbe_cm5_charge
 _atom_site_pbe_ddec_charge
 _atom_site_pbe_ddec_spin_density
 _atom_site_pbe_ddec_sum_bond_order
 _atom_site_pbe_magmom
Cu  Cu0  1  0.44916524  0.34260589  0.61993873  1  0  0.602311  0.551063  0  2.362264  0
Cu  Cu1  1  0.65742311  0.10669586  0.95318620  1  0  0.602553  0.551075  0  2.364128  0
Cu  Cu2  1  0.89325380  0.55074641  0.28659015  1  0  0.60266  0.551518  0  2.363195  0
H  H3  1  0.41397125  0.17271874  0.42041620  1  0  0.103881  0.136525  0  1.001641  0
H  H4  1  0.82722081  0.24131345  0.75367072  1  0  0.103899  0.13675  0  1.001489  0
H  H5  1  0.75878825  0.58607106  0.08708327  1  0  0.103957  0.13659  0  1.001861  0
H  H6  1  0.36407831  0.46143500  0.44673879  1  0  0.097156  0.100629  0  1.025483  0
H  H7  1  0.53852145  0.90266809  0.78009432  1  0  0.097275  0.101256  0  1.02491  0
H  H8  1  0.09728095  0.63559167  0.11344453  1  0  0.097163  0.100773  0  1.025246  0
H  H9  1  0.16212483  0.00743329  0.45873116  1  0  0.095849  0.095043  0  1.035862  0
H  H10  1  0.99253161  0.15487036  0.79170277  1  0  0.095844  0.095148  0  1.035365  0
H  H11  1  0.84544097  0.83766868  0.12549286  1  0  0.096079  0.09545  0  1.034175  0
H  H12  1  0.87120059  0.83657875  0.45116261  1  0  0.100436  0.108335  0  1.028159  0
H  H13  1  0.16342609  0.03486658  0.78421917  1  0  0.100612  0.108838  0  1.02751  0
H  H14  1  0.96547555  0.12854426  0.11782886  1  0  0.100628  0.108834  0  1.028125  0
H  H15  1  0.10917395  0.42065172  0.47276989  1  0  0.090822  0.085917  0  1.060807  0
H  H16  1  0.57941092  0.68863967  0.80640004  1  0  0.090576  0.08582  0  1.060414  0
H  H17  1  0.31165503  0.89070185  0.13946347  1  0  0.090854  0.08627  0  1.060695  0
H  H18  1  0.81784988  0.24899969  0.47001055  1  0  0.099042  0.109735  0  1.042099  0
H  H19  1  0.75109276  0.56907956  0.80362333  1  0  0.099237  0.109695  0  1.041816  0
H  H20  1  0.43122340  0.18199341  0.13675686  1  0  0.098995  0.109803  0  1.042446  0
H  H21  1  0.60576593  0.81010155  0.48348242  1  0  0.121173  0.116264  0  0.964559  0
H  H22  1  0.18983608  0.79569183  0.81698322  1  0  0.121053  0.115983  0  0.964587  0
H  H23  1  0.20441103  0.39397383  0.15039930  1  0  0.121056  0.115999  0  0.964435  0
H  H24  1  0.58708499  0.98327372  0.49136162  1  0  0.115019  0.108255  0  0.968665  0
H  H25  1  0.01656241  0.60390049  0.82490499  1  0  0.114917  0.108163  0  0.967958  0
H  H26  1  0.39627201  0.41271193  0.15838064  1  0  0.114926  0.108025  0  0.968813  0
H  H27  1  0.67785596  0.14920902  0.25240830  1  0  0.137857  0.118931  0  1.030072  0
H  H28  1  0.85057967  0.52870982  0.58590240  1  0  0.137755  0.119024  0  1.02976  0
H  H29  1  0.47137455  0.32192537  0.91919609  1  0  0.137628  0.118744  0  1.030137  0
H  H30  1  0.53149966  0.66213649  0.28342516  1  0  0.11931  0.133899  0  1.067941  0
H  H31  1  0.33768329  0.86934707  0.61699479  1  0  0.118995  0.133505  0  1.068568  0
H  H32  1  0.13095617  0.46861550  0.95061615  1  0  0.119086  0.133919  0  1.067744  0
H  H33  1  0.51400896  0.73630175  0.02517154  1  0  0.112196  0.104421  0  1.039799  0
H  H34  1  0.26343893  0.77778629  0.35875635  1  0  0.112142  0.104141  0  1.039389  0
H  H35  1  0.22246422  0.48619483  0.69235820  1  0  0.112297  0.104749  0  1.039065  0
C  C36  1  0.60479428  0.41712664  0.38689436  1  0  0.174241  0.59467  0  4.249055  0
C  C37  1  0.58288195  0.18789064  0.72018401  1  0  0.173861  0.594302  0  4.250783  0
C  C38  1  0.81210926  0.39505548  0.05356935  1  0  0.173791  0.594256  0  4.250216  0
C  C39  1  0.44511134  0.29596607  0.43345217  1  0  -0.180928  -0.326166  0  4.050358  0
C  C40  1  0.70397141  0.14924706  0.76670363  1  0  -0.180715  -0.32538  0  4.050655  0
C  C41  1  0.85079742  0.55479100  0.10011238  1  0  -0.181015  -0.326224  0  4.050549  0
C  C42  1  0.32849567  0.33644635  0.45994240  1  0  -0.155813  -0.184132  0  4.093407  0
C  C43  1  0.66350192  0.99215537  0.79323761  1  0  -0.15629  -0.185924  0  4.094702  0
C  C44  1  0.00795735  0.67128313  0.12665559  1  0  -0.156079  -0.18497  0  4.093434  0
C  C45  1  0.15727306  0.22727765  0.46573991  1  0  -0.018188  0.10688  0  4.036532  0
C  C46  1  0.77272147  0.93015699  0.79908616  1  0  -0.017478  0.108365  0  4.035273  0
C  C47  1  0.07012559  0.84252232  0.13249120  1  0  -0.017718  0.108283  0  4.035085  0
C  C48  1  0.08771650  0.06145480  0.46148535  1  0  -0.086008  -0.105169  0  3.937618  0
C  C49  1  0.93853278  0.02644336  0.79463779  1  0  -0.086323  -0.105977  0  3.93582  0
C  C50  1  0.97387262  0.91206574  0.12822887  1  0  -0.086266  -0.105543  0  3.935982  0
C  C51  1  0.92403173  0.96488138  0.45785940  1  0  -0.086192  -0.118176  0  3.956342  0
C  C52  1  0.03514601  0.95936272  0.79105327  1  0  -0.086592  -0.119205  0  3.955279  0
C  C53  1  0.04095365  0.07574601  0.12452607  1  0  -0.086258  -0.119177  0  3.957057  0
C  C54  1  0.05710546  0.29228664  0.47067831  1  0  -0.097136  -0.131243  0  3.97728  0
C  C55  1  0.70775611  0.76500080  0.80421056  1  0  -0.097413  -0.131946  0  3.977422  0
C  C56  1  0.23529611  0.94269445  0.13740540  1  0  -0.097671  -0.133028  0  3.978805  0
C  C57  1  0.89339341  0.19594533  0.46877002  1  0  -0.095889  -0.137373  0  3.988835  0
C  C58  1  0.80412688  0.69765954  0.80229328  1  0  -0.096372  -0.137261  0  3.987622  0
C  C59  1  0.30265683  0.10642312  0.13548912  1  0  -0.095974  -0.137162  0  3.989379  0
C  C60  1  0.82561829  0.03138764  0.46037226  1  0  -0.01502  0.085384  0  3.968395  0
C  C61  1  0.96865174  0.79444471  0.79377270  1  0  -0.014579  0.085693  0  3.968601  0
C  C62  1  0.20587975  0.17418301  0.12707021  1  0  -0.0151  0.085931  0  3.969168  0
C  C63  1  0.64901800  0.92903911  0.44401478  1  0  -0.042427  -0.106406  0  3.855543  0
C  C64  1  0.07088342  0.72005207  0.77752512  1  0  -0.041784  -0.10495  0  3.855521  0
C  C65  1  0.28015750  0.35080526  0.11093028  1  0  -0.041966  -0.10573  0  3.856125  0
C  C66  1  0.63559193  0.02748319  0.22315289  1  0  0.144921  0.099648  0  3.857758  0
C  C67  1  0.97230305  0.60812143  0.55666580  1  0  0.145355  0.10027  0  3.855916  0
C  C68  1  0.39200729  0.36432468  0.89002769  1  0  0.145339  0.099944  0  3.856401  0
C  C69  1  0.55130196  0.77020921  0.23663369  1  0  -0.002292  -0.116464  0  3.918894  0
C  C70  1  0.22959007  0.78109194  0.57019830  1  0  -0.001434  -0.114942  0  3.918313  0
C  C71  1  0.21919413  0.44881234  0.90377059  1  0  -0.00154  -0.115301  0  3.917274  0
C  C72  1  0.54818623  0.81022161  0.11032412  1  0  -0.012388  -0.052427  0  4.031505  0
C  C73  1  0.18954866  0.73801626  0.44387298  1  0  -0.01255  -0.052234  0  4.030122  0
C  C74  1  0.26223606  0.45197196  0.77740903  1  0  -0.012538  -0.053294  0  4.030527  0
N  N75  1  0.60166195  0.97104143  0.10305915  1  0  -0.395896  -0.296521  0  3.717229  0
N  N76  1  0.02872253  0.63067074  0.43658850  1  0  -0.395856  -0.29686  0  3.7153  0
N  N77  1  0.36946608  0.39836958  0.77000631  1  0  -0.395621  -0.296063  0  3.714917  0
N  N78  1  0.60660892  0.90872080  0.30619704  1  0  -0.237494  0.051949  0  3.740497  0
N  N79  1  0.09110714  0.69785051  0.63973690  1  0  -0.238064  0.05025  0  3.740673  0
N  N80  1  0.30235885  0.39338008  0.97318615  1  0  -0.238143  0.050931  0  3.740244  0
O  O81  1  0.64509200  0.56187446  0.38175360  1  0  -0.340982  -0.592839  0  2.172838  0
O  O82  1  0.43812985  0.08349398  0.71493045  1  0  -0.341115  -0.592942  0  2.173818  0
O  O83  1  0.91650645  0.35470709  0.04829003  1  0  -0.341064  -0.592534  0  2.172666  0
O  O84  1  0.69768357  0.36402373  0.35327359  1  0  -0.34785  -0.541023  0  2.327285  0
O  O85  1  0.63602294  0.33395169  0.68672738  1  0  -0.34733  -0.540429  0  2.326596  0
O  O86  1  0.66604506  0.30212947  0.02009832  1  0  -0.347397  -0.540832  0  2.327818  0
