# generated using pymatgen
data_Zn2H12C15O8
_symmetry_space_group_name_H-M   'P 1'
_cell_length_a   15.95509236
_cell_length_b   16.63776128
_cell_length_c   17.20685687
_cell_angle_alpha   89.83348745
_cell_angle_beta   115.68224203
_cell_angle_gamma   119.93688568
_symmetry_Int_Tables_number   1
_chemical_formula_structural   Zn2H12C15O8
_chemical_formula_sum   'Zn8 H48 C60 O32'
_cell_volume   3431.49276640
_cell_formula_units_Z   4
loop_
 _symmetry_equiv_pos_site_id
 _symmetry_equiv_pos_as_xyz
  1  'x, y, z'
loop_
 _atom_site_type_symbol
 _atom_site_label
 _atom_site_symmetry_multiplicity
 _atom_site_fract_x
 _atom_site_fract_y
 _atom_site_fract_z
 _atom_site_occupancy
 _atom_site_pbe_bader_charge
 _atom_site_pbe_bader_spin_density
 _atom_site_pbe_cm5_charge
 _atom_site_pbe_ddec_charge
 _atom_site_pbe_ddec_spin_density
 _atom_site_pbe_ddec_sum_bond_order
 _atom_site_pbe_magmom
Zn  Zn0  1  0.09957478  0.03891766  0.97665084  1  1.296812  0  0.666804  0.942561  0  2.430537  0
Zn  Zn1  1  0.08922747  0.04435512  0.14888255  1  1.321778  0  0.6835  0.982481  0  2.373928  0
Zn  Zn2  1  0.92444088  0.84163965  0.99013485  1  1.316363  0  0.680633  0.987552  0  2.309604  0
Zn  Zn3  1  0.88499264  0.01600027  0.96645922  1  1.31203  0  0.674509  0.968209  0  2.329407  0
Zn  Zn4  1  0.87349124  0.42848079  0.56083450  1  1.306252  0  0.670811  0.958094  0  2.344235  0
Zn  Zn5  1  0.91615900  0.44536073  0.39277001  1  1.319889  0  0.680242  0.982772  0  2.322593  0
Zn  Zn6  1  0.06105804  0.40651370  0.56704130  1  1.317417  0  0.67156  0.963663  0  2.42476  0
Zn  Zn7  1  0.09567089  0.61280559  0.58282080  1  1.322172  0  0.677719  0.978895  0  2.351187  0
H  H8  1  0.35653467  0.28184584  0.22831558  1  0.055975  0  0.099816  0.109059  0  1.000674  0
H  H9  1  0.47700511  0.38754832  0.23495483  1  0.041474  0  0.107398  0.109528  0  0.973577  0
H  H10  1  0.40409637  0.27704531  0.15202564  1  0.043232  0  0.104097  0.105394  0  0.987937  0
H  H11  1  0.68671453  0.13976064  0.35024603  1  0.061322  0  0.103601  0.108874  0  0.9986  0
H  H12  1  0.56620246  0.96851949  0.19351306  1  0.055314  0  0.094359  0.131947  0  0.989278  0
H  H13  1  0.44059998  0.89258299  0.19600193  1  0.026168  0  0.091199  0.124242  0  1.000561  0
H  H14  1  0.57156164  0.95197693  0.29684342  1  0.042565  0  0.090772  0.123186  0  1.007225  0
H  H15  1  0.34321524  0.97314823  0.14106383  1  0.07818  0  0.101567  0.106348  0  1.002279  0
H  H16  1  0.09846673  0.77886122  0.93378701  1  0.074021  0  0.098913  0.107024  0  1.001565  0
H  H17  1  0.18470738  0.76515951  0.90145148  1  0.05329  0  0.108661  0.112137  0  0.972466  0
H  H18  1  0.15929460  0.85788018  0.87548124  1  0.071806  0  0.104234  0.105786  0  0.985284  0
H  H19  1  0.80142172  0.66438674  0.50853633  1  0.07407  0  0.107377  0.114091  0  0.982147  0
H  H20  1  0.79194497  0.84138038  0.48456727  1  0.028696  0  0.091706  0.12668  0  1.013525  0
H  H21  1  0.71897439  0.83326168  0.54129516  1  0.02148  0  0.091973  0.125566  0  0.998569  0
H  H22  1  0.67338695  0.72877003  0.46599490  1  0.059196  0  0.091358  0.123184  0  1.005129  0
H  H23  1  0.86060858  0.88100911  0.69791404  1  0.067308  0  0.101999  0.10659  0  1.006985  0
H  H24  1  0.86074480  0.05455190  0.75542031  1  0.051368  0  0.096797  0.10331  0  1.007919  0
H  H25  1  0.87127317  0.07354264  0.65626480  1  0.060971  0  0.105996  0.10913  0  0.974625  0
H  H26  1  0.99465255  0.11490761  0.76181785  1  0.050887  0  0.102392  0.104361  0  0.990792  0
H  H27  1  0.14899873  0.51510885  0.84696669  1  0.070009  0  0.107461  0.113704  0  0.98291  0
H  H28  1  0.35587384  0.57344365  0.00685548  1  0.021509  0  0.091707  0.124917  0  0.993754  0
H  H29  1  0.32054935  0.52097390  0.08697028  1  0.027877  0  0.089856  0.120242  0  1.004459  0
H  H30  1  0.26369345  0.58572573  0.02910596  1  0.027699  0  0.092249  0.125469  0  0.995135  0
H  H31  1  0.20764175  0.34886062  0.03105576  1  0.059442  0  0.101674  0.105841  0  1.001824  0
H  H32  1  0.83190072  0.70110986  0.13547187  1  0.093504  0  0.10144  0.110508  0  0.995587  0
H  H33  1  0.77915235  0.67372598  0.21178116  1  0.058924  0  0.110448  0.113639  0  0.970602  0
H  H34  1  0.89309570  0.79343122  0.23357503  1  0.067596  0  0.098587  0.09875  0  1.000307  0
H  H35  1  0.26811926  0.75698824  0.45014444  1  0.053286  0  0.106575  0.113754  0  0.989282  0
H  H36  1  0.44171785  0.92826872  0.47125865  1  0.069243  0  0.097634  0.133666  0  0.985196  0
H  H37  1  0.42662346  0.96615691  0.37192524  1  0.058169  0  0.091986  0.130753  0  1.007639  0
H  H38  1  0.42210205  0.85781296  0.38040940  1  0.019713  0  0.088535  0.118666  0  0.999471  0
H  H39  1  0.24599319  0.92850069  0.26493433  1  0.061928  0  0.100298  0.103772  0  1.014583  0
H  H40  1  0.12700109  0.36943582  0.34565375  1  0.057016  0  0.101209  0.100058  0  0.990033  0
H  H41  1  0.12832096  0.39899751  0.24565083  1  0.054973  0  0.10878  0.11174  0  0.972242  0
H  H42  1  0.03442000  0.40279348  0.27448618  1  0.07867  0  0.102459  0.115052  0  1.001782  0
H  H43  1  0.87737651  0.12983470  0.41828652  1  0.064501  0  0.103997  0.109879  0  1.000755  0
H  H44  1  0.83200365  0.90517979  0.35653071  1  0.034922  0  0.093073  0.127304  0  0.992729  0
H  H45  1  0.70008741  0.88788608  0.28925641  1  0.047929  0  0.090665  0.12254  0  1.001454  0
H  H46  1  0.78629819  0.96034857  0.40206755  1  0.032417  0  0.091702  0.123737  0  1.008026  0
H  H47  1  0.82477959  0.95196986  0.19948132  1  0.060926  0  0.102873  0.106315  0  0.992955  0
H  H48  1  0.59486277  0.87889982  0.89435058  1  0.092501  0  0.104333  0.115951  0  0.990992  0
H  H49  1  0.49988157  0.80780218  0.93293367  1  0.070584  0  0.110714  0.114555  0  0.971037  0
H  H50  1  0.60358088  0.78636692  0.94467261  1  0.034721  0  0.098405  0.09865  0  0.997108  0
H  H51  1  0.34799424  0.54257358  0.56305016  1  0.076244  0  0.103193  0.108752  0  0.999036  0
H  H52  1  0.63005233  0.61217619  0.60205575  1  0.073198  0  0.09315  0.133028  0  1.005109  0
H  H53  1  0.53144646  0.62816484  0.51559201  1  0.020162  0  0.087336  0.116885  0  1.006711  0
H  H54  1  0.48607023  0.51730556  0.54403751  1  0.076622  0  0.094792  0.129739  0  0.988646  0
H  H55  1  0.70175050  0.72772315  0.73729208  1  0.079079  0  0.09908  0.103486  0  1.019233  0
C  C56  1  0.43027288  0.30875619  0.22090011  1  0.440933  0  -0.132976  -0.167248  0  3.903835  0
C  C57  1  0.49988069  0.20546311  0.26708418  1  0.521759  0  0.098581  0.213917  0  4.018606  0
C  C58  1  0.60065761  0.21160424  0.31846228  1  0.075312  0  -0.019828  -0.119558  0  3.984126  0
C  C59  1  0.60731556  0.13236704  0.30854274  1  -0.06347  0  -0.083586  -0.142174  0  3.945471  0
C  C60  1  0.51534362  0.04475188  0.24434868  1  0.094424  0  -0.019741  0.149604  0  4.026706  0
C  C61  1  0.52364419  0.95993197  0.23200275  1  -0.071323  0  -0.236006  -0.409047  0  3.986281  0
C  C62  1  0.41682911  0.03991694  0.19179607  1  -0.103683  0  -0.089098  -0.154334  0  3.970531  0
C  C63  1  0.40629985  0.11753869  0.20348201  1  -0.025272  0  -0.034805  -0.154564  0  4.010618  0
C  C64  1  0.29152885  0.09598777  0.14962360  1  1.528662  0  0.227705  0.619168  0  4.174267  0
C  C65  1  0.70441531  0.30609467  0.38219269  1  1.568805  0  0.234618  0.640695  0  4.14544  0
C  C66  1  0.12296004  0.78394655  0.88245570  1  0.374589  0  -0.134804  -0.170738  0  3.900738  0
C  C67  1  0.96436012  0.73998452  0.73660013  1  0.56515  0  0.095789  0.211245  0  4.023362  0
C  C68  1  0.91371142  0.69055245  0.64661787  1  -0.025066  0  -0.019676  -0.119487  0  3.983253  0
C  C69  1  0.84095177  0.70607210  0.57706552  1  -0.029127  0  -0.083469  -0.147289  0  3.952257  0
C  C70  1  0.82122697  0.77570538  0.59340063  1  0.010484  0  -0.019309  0.148381  0  4.03223  0
C  C71  1  0.74737110  0.79580030  0.51750914  1  -0.074426  0  -0.236331  -0.408611  0  3.988464  0
C  C72  1  0.87419543  0.82649789  0.68224645  1  0.007441  0  -0.088384  -0.153645  0  3.970783  0
C  C73  1  0.94229741  0.80780597  0.75417631  1  -0.014987  0  -0.030647  -0.150568  0  4.004332  0
C  C74  1  0.98142460  0.86016783  0.84544761  1  1.533436  0  0.228003  0.621762  0  4.169324  0
C  C75  1  0.94071642  0.62320959  0.62301784  1  1.588146  0  0.234143  0.63942  0  4.141846  0
C  C76  1  0.91186417  0.10399786  0.72867062  1  0.405391  0  -0.135788  -0.168814  0  3.906632  0
C  C77  1  0.00910606  0.27063920  0.81098798  1  0.530168  0  0.09548  0.211972  0  4.021169  0
C  C78  1  0.04116948  0.36141860  0.79426771  1  0.015355  0  -0.019883  -0.118872  0  3.991769  0
C  C79  1  0.12757617  0.44617366  0.86271928  1  0.011094  0  -0.082933  -0.143925  0  3.943547  0
C  C80  1  0.19029056  0.44398159  0.94935163  1  0.032395  0  -0.020111  0.150281  0  4.026944  0
C  C81  1  0.28753330  0.53571623  0.02196825  1  -0.03313  0  -0.233092  -0.400934  0  3.993582  0
C  C82  1  0.16080599  0.35392761  0.96474521  1  -0.08117  0  -0.089526  -0.150998  0  3.968125  0
C  C83  1  0.06933535  0.26752317  0.89806634  1  0.032324  0  -0.030588  -0.145578  0  4.006092  0
C  C84  1  0.04073336  0.17694460  0.92633091  1  1.545888  0  0.230397  0.627131  0  4.160293  0
C  C85  1  0.99155445  0.36780359  0.70000337  1  1.5408  0  0.234637  0.637157  0  4.151192  0
C  C86  1  0.85434052  0.71617763  0.20620043  1  0.357228  0  -0.134835  -0.17371  0  3.911101  0
C  C87  1  0.03665441  0.73987487  0.28462796  1  0.507417  0  0.095555  0.211117  0  4.01188  0
C  C88  1  0.10399901  0.71986703  0.35673621  1  -0.014239  0  -0.02207  -0.126313  0  3.98029  0
C  C89  1  0.21935651  0.77320059  0.39293563  1  0.012431  0  -0.086444  -0.147181  0  3.960069  0
C  C90  1  0.27300486  0.84740618  0.35943491  1  0.033194  0  -0.019756  0.151889  0  4.028071  0
C  C91  1  0.39735243  0.90309484  0.39772779  1  -0.093292  0  -0.234696  -0.401071  0  3.971382  0
C  C92  1  0.20653036  0.86853418  0.29036189  1  -0.052279  0  -0.08942  -0.147496  0  3.958145  0
C  C93  1  0.08980744  0.81607144  0.25186671  1  0.02032  0  -0.032637  -0.148932  0  3.988402  0
C  C94  1  0.03595374  0.85195362  0.17857951  1  1.563304  0  0.229304  0.629506  0  4.16715  0
C  C95  1  0.05638790  0.64497963  0.40058992  1  1.609669  0  0.231469  0.634775  0  4.146045  0
C  C96  1  0.07547051  0.36558969  0.27590803  1  0.385082  0  -0.134019  -0.169721  0  3.899984  0
C  C97  1  0.94615622  0.19577210  0.25672511  1  0.517079  0  0.098101  0.215175  0  4.018106  0
C  C98  1  0.93226115  0.20390240  0.33102004  1  0.004007  0  -0.02914  -0.143778  0  3.986218  0
C  C99  1  0.88275279  0.12059806  0.35821351  1  -0.047881  0  -0.086957  -0.14997  0  3.95974  0
C  C100  1  0.84052155  0.02901241  0.31150543  1  0.048231  0  -0.022236  0.148821  0  4.03124  0
C  C101  1  0.78686954  0.94117678  0.34140786  1  -0.072473  0  -0.235033  -0.408689  0  3.995805  0
C  C102  1  0.85305942  0.02185860  0.23655511  1  -0.047243  0  -0.087703  -0.14979  0  3.966108  0
C  C103  1  0.90763844  0.10355179  0.21145667  1  0.025768  0  -0.023704  -0.128627  0  3.998327  0
C  C104  1  0.93827560  0.09264199  0.14316092  1  1.579898  0  0.235901  0.644594  0  4.135144  0
C  C105  1  0.96341294  0.29416236  0.38541877  1  1.556914  0  0.225322  0.614528  0  4.186849  0
C  C106  1  0.54671972  0.80701940  0.90185167  1  0.381835  0  -0.134971  -0.174185  0  3.910175  0
C  C107  1  0.49307176  0.71004267  0.76289012  1  0.486412  0  0.097028  0.216345  0  4.004768  0
C  C108  1  0.40220935  0.63675208  0.68259091  1  -0.009246  0  -0.026761  -0.133593  0  3.981945  0
C  C109  1  0.42068553  0.60013164  0.62320578  1  0.020612  0  -0.084698  -0.143636  0  3.970718  0
C  C110  1  0.52786064  0.63371866  0.63928607  1  0.044095  0  -0.022977  0.148211  0  4.030361  0
C  C111  1  0.54513457  0.59581047  0.57213518  1  -0.098525  0  -0.233802  -0.39894  0  3.970003  0
C  C112  1  0.61671729  0.70270435  0.72021532  1  -0.098422  0  -0.086076  -0.142748  0  3.950483  0
C  C113  1  0.60172821  0.74172884  0.78177722  1  0.010801  0  -0.032252  -0.150108  0  3.983111  0
C  C114  1  0.70968513  0.81532327  0.86379354  1  1.541234  0  0.229479  0.628913  0  4.169251  0
C  C115  1  0.28261172  0.59235886  0.65625810  1  1.570115  0  0.231212  0.632839  0  4.144217  0
O  O116  1  0.99374031  0.98058348  0.02062926  1  -1.227031  0  -0.582503  -1.041866  0  2.566965  0
O  O117  1  0.50604717  0.28843159  0.28550907  1  -1.073472  0  -0.18443  -0.152294  0  2.574953  0
O  O118  1  0.24967180  0.11202128  0.19170425  1  -1.16211  0  -0.309527  -0.547174  0  2.330109  0
O  O119  1  0.24142664  0.05800955  0.06546363  1  -1.155844  0  -0.316855  -0.546993  0  2.31822  0
O  O120  1  0.75321948  0.36861444  0.34793138  1  -1.173069  0  -0.318215  -0.555089  0  2.289067  0
O  O121  1  0.73672433  0.31391428  0.46538212  1  -1.138751  0  -0.308538  -0.532006  0  2.279558  0
O  O122  1  0.02987166  0.71538917  0.79840084  1  -1.069012  0  -0.183894  -0.151341  0  2.574333  0
O  O123  1  0.95615183  0.81055432  0.89769897  1  -1.174015  0  -0.312422  -0.554328  0  2.305993  0
O  O124  1  0.03358300  0.95200991  0.86169334  1  -1.155964  0  -0.316589  -0.544567  0  2.319118  0
O  O125  1  0.04152504  0.66011014  0.64229330  1  -1.165577  0  -0.311782  -0.547062  0  2.303829  0
O  O126  1  0.85915662  0.53593637  0.58222013  1  -1.161223  0  -0.311391  -0.538145  0  2.289759  0
O  O127  1  0.92052288  0.19380141  0.73874336  1  -1.07818  0  -0.186358  -0.15648  0  2.567282  0
O  O128  1  0.94200899  0.12255080  0.91377370  1  -1.166756  0  -0.307569  -0.541491  0  2.315778  0
O  O129  1  0.11967287  0.16319616  0.96362427  1  -1.164715  0  -0.321757  -0.555617  0  2.3191  0
O  O130  1  0.01550593  0.33862398  0.64900716  1  -1.167929  0  -0.321497  -0.558462  0  2.312186  0
O  O131  1  0.93489823  0.40544128  0.67937348  1  -1.130698  0  -0.308185  -0.531704  0  2.278205  0
O  O132  1  0.92594404  0.68593573  0.25828513  1  -1.074688  0  -0.18502  -0.150146  0  2.588019  0
O  O133  1  0.97855600  0.79968628  0.09763210  1  -1.156774  0  -0.311651  -0.545505  0  2.291426  0
O  O134  1  0.05846142  0.93560497  0.20372826  1  -1.179415  0  -0.320123  -0.564322  0  2.329204  0
O  O135  1  0.10273259  0.67457090  0.48529877  1  -1.197132  0  -0.314975  -0.552055  0  2.321136  0
O  O136  1  0.97800420  0.55890711  0.35113962  1  -1.16121  0  -0.313609  -0.544646  0  2.313912  0
O  O137  1  0.99526777  0.26745135  0.22230755  1  -1.073654  0  -0.183684  -0.151776  0  2.576227  0
O  O138  1  0.86078102  0.04950361  0.06185568  1  -1.160822  0  -0.307302  -0.534418  0  2.271968  0
O  O139  1  0.04099095  0.12341373  0.17411582  1  -1.167039  0  -0.323701  -0.562082  0  2.294432  0
O  O140  1  0.01911095  0.30969932  0.47010042  1  -1.159039  0  -0.316721  -0.543669  0  2.33969  0
O  O141  1  0.92827903  0.34438473  0.34478717  1  -1.167596  0  -0.309246  -0.550872  0  2.328833  0
O  O142  1  0.46412033  0.73682345  0.81679651  1  -1.070275  0  -0.18319  -0.148594  0  2.596402  0
O  O143  1  0.74405558  0.90394714  0.86967828  1  -1.152625  0  -0.312982  -0.547761  0  2.313349  0
O  O144  1  0.76183171  0.78261394  0.91788985  1  -1.171748  0  -0.321463  -0.563946  0  2.307376  0
O  O145  1  0.22231524  0.50035896  0.62784908  1  -1.168561  0  -0.319095  -0.554887  0  2.339761  0
O  O146  1  0.24889649  0.64683960  0.65949623  1  -1.155748  0  -0.31467  -0.544675  0  2.310412  0
O  O147  1  0.98702092  0.47464133  0.52342223  1  -1.235679  0  -0.577216  -1.040625  0  2.550609  0
