# generated using pymatgen
data_Zn2H16C23N6(ClO2)2
_symmetry_space_group_name_H-M   'P 1'
_cell_length_a   7.13828606
_cell_length_b   9.04667699
_cell_length_c   19.51500000
_cell_angle_alpha   100.80054013
_cell_angle_beta   91.30932383
_cell_angle_gamma   94.89643733
_symmetry_Int_Tables_number   1
_chemical_formula_structural   Zn2H16C23N6(ClO2)2
_chemical_formula_sum   'Zn4 H32 C46 N12 Cl4 O8'
_cell_volume   1232.42119854
_cell_formula_units_Z   2
loop_
 _symmetry_equiv_pos_site_id
 _symmetry_equiv_pos_as_xyz
  1  'x, y, z'
loop_
 _atom_site_type_symbol
 _atom_site_label
 _atom_site_symmetry_multiplicity
 _atom_site_fract_x
 _atom_site_fract_y
 _atom_site_fract_z
 _atom_site_occupancy
 _atom_site_hle17_bader_spin_density
 _atom_site_hle17_ddec_charge
 _atom_site_hle17_ddec_spin_density
 _atom_site_hle17_ddec_sum_bond_order
 _atom_site_hle17_magmom
 _atom_site_hse06_10hf_bader_spin_density
 _atom_site_hse06_10hf_ddec_charge
 _atom_site_hse06_10hf_ddec_spin_density
 _atom_site_hse06_10hf_ddec_sum_bond_order
 _atom_site_hse06_10hf_magmom
 _atom_site_hse06_bader_spin_density
 _atom_site_hse06_ddec_charge
 _atom_site_hse06_ddec_spin_density
 _atom_site_hse06_ddec_sum_bond_order
 _atom_site_hse06_magmom
 _atom_site_pbe_bader_charge
 _atom_site_pbe_bader_spin_density
 _atom_site_pbe_cm5_charge
 _atom_site_pbe_ddec_charge
 _atom_site_pbe_ddec_spin_density
 _atom_site_pbe_ddec_sum_bond_order
 _atom_site_pbe_magmom
Zn  Zn0  1  0.39493479  0.19494033  0.12092866  1  0  0.943654  0  1.975153  0  0  0.761818  0  2.458578  0  0  0.805733  0  2.407407  0  1.197592  0  0.626969  0.731294  0  2.493652  0
Zn  Zn1  1  0.60507110  0.80505590  0.87907065  1  0  0.943606  0  1.975125  0  0  0.761743  0  2.458565  0  0  0.805653  0  2.407407  0  1.197636  0  0.626951  0.731219  0  2.493636  0
Zn  Zn2  1  0.51375734  0.31681744  0.44396452  1  0  1.010779  0  1.973231  0  0  0.841525  0  2.466054  0  0  0.885811  0  2.40793  0  1.235618  0  0.62289  0.810678  0  2.505966  0
Zn  Zn3  1  0.48623047  0.68317992  0.55603474  1  0  1.010802  0  1.973152  0  0  0.841543  0  2.465972  0  0  0.885828  0  2.407855  0  1.235684  0  0.622951  0.810697  0  2.50588  0
H  H4  1  0.95894525  0.71226576  0.32118579  1  0  0.126543  0  0.943287  0  0  0.138906  0  0.999267  0  0  0.142011  0  0.997705  0  0.09616  0  0.119893  0.136686  0  1.000501  0
H  H5  1  0.04105415  0.28773499  0.67881540  1  0  0.126533  0  0.943341  0  0  0.138874  0  0.999331  0  0  0.141979  0  0.997769  0  0.096175  0  0.119883  0.136654  0  1.000564  0
H  H6  1  0.79023009  0.04997444  0.20815548  1  0  0.122922  0  0.968445  0  0  0.130242  0  1.035869  0  0  0.133486  0  1.034284  0  0.103726  0  0.115042  0.127904  0  1.03717  0
H  H7  1  0.20976931  0.95002631  0.79184417  1  0  0.122901  0  0.968477  0  0  0.130252  0  1.03588  0  0  0.133496  0  1.034293  0  0.10389  0  0.115063  0.127913  0  1.037182  0
H  H8  1  0.95000530  0.62657107  0.09649795  1  0  0.121916  0  0.942325  0  0  0.133602  0  1.001548  0  0  0.136628  0  0.999688  0  0.092495  0  0.115671  0.131404  0  1.002974  0
H  H9  1  0.05000404  0.37343081  0.90350342  1  0  0.121916  0  0.942419  0  0  0.133582  0  1.001648  0  0  0.136609  0  0.999788  0  0.092448  0  0.115677  0.131384  0  1.003075  0
H  H10  1  0.93660087  0.45707902  0.30636063  1  0  0.132025  0  0.931989  0  0  0.14457  0  0.984967  0  0  0.147717  0  0.983016  0  0.118761  0  0.134014  0.142298  0  0.986469  0
H  H11  1  0.06341000  0.54292400  0.69364034  1  0  0.132035  0  0.931957  0  0  0.144575  0  0.984943  0  0  0.147721  0  0.982992  0  0.118748  0  0.134  0.142302  0  0.986446  0
H  H12  1  0.14643430  0.21425367  0.26482660  1  0  0.115471  0  0.952319  0  0  0.12097  0  1.017836  0  0  0.123958  0  1.016341  0  0.124797  0  0.117533  0.118818  0  1.019001  0
H  H13  1  0.85357058  0.78574595  0.73517249  1  0  0.115478  0  0.952263  0  0  0.120955  0  1.01781  0  0  0.123943  0  1.016316  0  0.124754  0  0.117518  0.118803  0  1.018976  0
H  H14  1  0.18539329  0.49253031  0.11396092  1  0  0.101458  0  0.92364  0  0  0.113128  0  0.98251  0  0  0.115767  0  0.978863  0  0.155062  0  0.143473  0.111168  0  0.985161  0
H  H15  1  0.81460891  0.50747044  0.88603875  1  0  0.101536  0  0.923622  0  0  0.113189  0  0.982497  0  0  0.115828  0  0.978853  0  0.155067  0  0.143494  0.111229  0  0.98515  0
H  H16  1  0.91418952  0.85753788  0.41365231  1  0  0.124668  0  0.939729  0  0  0.137666  0  0.993306  0  0  0.140183  0  0.992129  0  0.137682  0  0.131057  0.135857  0  0.994276  0
H  H17  1  0.08581154  0.14246513  0.58634960  1  0  0.124637  0  0.939825  0  0  0.137641  0  0.993394  0  0  0.140158  0  0.992219  0  0.137629  0  0.131055  0.135831  0  0.994366  0
H  H18  1  0.74972002  0.07670643  0.50178347  1  0  0.105165  0  0.972715  0  0  0.113812  0  1.035376  0  0  0.11644  0  1.033628  0  0.095329  0  0.118129  0.111906  0  1.036754  0
H  H19  1  0.25027709  0.92329884  0.49821605  1  0  0.105122  0  0.972713  0  0  0.113807  0  1.035351  0  0  0.116435  0  1.033603  0  0.09534  0  0.118126  0.111898  0  1.036735  0
H  H20  1  0.68279646  0.15740300  0.29733181  1  0  0.104803  0  0.935589  0  0  0.116063  0  0.994268  0  0  0.118829  0  0.990791  0  0.161108  0  0.142939  0.114004  0  0.996827  0
H  H21  1  0.31720027  0.84259889  0.70266792  1  0  0.104823  0  0.935615  0  0  0.116088  0  0.994283  0  0  0.118852  0  0.990807  0  0.161125  0  0.142942  0.114028  0  0.996844  0
H  H22  1  0.89206881  0.13365316  0.11325096  1  0  0.11651  0  0.974891  0  0  0.122952  0  1.040653  0  0  0.125419  0  1.040006  0  0.157955  0  0.116849  0.121101  0  1.041341  0
H  H23  1  0.10793110  0.86635212  0.88674653  1  0  0.116486  0  0.974999  0  0  0.12293  0  1.040775  0  0  0.125407  0  1.040116  0  0.157943  0  0.116877  0.121084  0  1.041462  0
H  H24  1  0.74498515  0.12431911  0.97907548  1  0  0.128564  0  0.98516  0  0  0.134261  0  1.047402  0  0  0.138078  0  1.044455  0  0.195386  0  0.116422  0.131504  0  1.049587  0
H  H25  1  0.25501527  0.87567825  0.02092337  1  0  0.128454  0  0.985141  0  0  0.13417  0  1.047366  0  0  0.137987  0  1.044419  0  0.195388  0  0.116378  0.131413  0  1.049551  0
H  H26  1  0.71385057  0.68037292  0.01820069  1  0  0.100829  0  0.925809  0  0  0.110851  0  0.987227  0  0  0.113643  0  0.983422  0  0.175286  0  0.139582  0.108805  0  0.989906  0
H  H27  1  0.28615991  0.31962670  0.98179844  1  0  0.100766  0  0.925855  0  0  0.11079  0  0.987262  0  0  0.113582  0  0.983457  0  0.175257  0  0.139567  0.108745  0  0.989943  0
H  H28  1  0.50091082  0.63429143  0.16577575  1  0  0.094182  0  0.985058  0  0  0.099136  0  1.057888  0  0  0.102676  0  1.055504  0  0.102747  0  0.08947  0.096531  0  1.059724  0
H  H29  1  0.49909393  0.36570706  0.83422478  1  0  0.094194  0  0.985019  0  0  0.099112  0  1.05789  0  0  0.102641  0  1.055531  0  0.102701  0  0.08946  0.096506  0  1.059727  0
H  H30  1  0.53584523  0.49667639  0.26329482  1  0  0.098655  0  0.951223  0  0  0.10675  0  1.016987  0  0  0.110212  0  1.014589  0  0.122712  0  0.097617  0.104195  0  1.018847  0
H  H31  1  0.46414411  0.50332210  0.73670558  1  0  0.098688  0  0.95118  0  0  0.106797  0  1.016944  0  0  0.110245  0  1.01456  0  0.122695  0  0.097612  0.10424  0  1.018802  0
H  H32  1  0.35083122  0.87491774  0.40572067  1  0  0.088583  0  0.979779  0  0  0.097761  0  1.047238  0  0  0.100818  0  1.045293  0  0.051496  0  0.096925  0.095517  0  1.048765  0
H  H33  1  0.64915684  0.12508188  0.59427879  1  0  0.088556  0  0.979866  0  0  0.097758  0  1.047298  0  0  0.100812  0  1.045352  0  0.051517  0  0.096924  0.095511  0  1.048824  0
H  H34  1  0.32337363  0.01502940  0.30940273  1  0  0.095134  0  0.970782  0  0  0.100359  0  1.043356  0  0  0.103953  0  1.040835  0  0.092689  0  0.092762  0.097723  0  1.045328  0
H  H35  1  0.67662361  0.98497700  0.69059791  1  0  0.095185  0  0.970844  0  0  0.1004  0  1.043412  0  0  0.103994  0  1.040894  0  0.09249  0  0.092776  0.097765  0  1.045384  0
C  C36  1  0.96361325  0.65698809  0.20928168  1  0  0.23195  0  3.773191  0  0  0.226119  0  4.020276  0  0  0.233689  0  4.042047  0  0.344613  0  0.111885  0.221113  0  4.0055  0
C  C37  1  0.03638883  0.34301154  0.79071841  1  0  0.231962  0  3.773086  0  0  0.226069  0  4.020221  0  0  0.233639  0  4.041993  0  0.344629  0  0.111856  0.221063  0  4.005446  0
C  C38  1  0.93307683  0.75033873  0.27259210  1  0  -0.218776  0  3.67987  0  0  -0.251324  0  3.936237  0  0  -0.25794  0  3.955729  0  0.04041  0  -0.08256  -0.246962  0  3.923011  0
C  C39  1  0.06692384  0.24966090  0.72740797  1  0  -0.218728  0  3.679897  0  0  -0.251243  0  3.93621  0  0  -0.257859  0  3.955701  0  0.040385  0  -0.082511  -0.246881  0  3.922985  0
C  C40  1  0.87068397  0.89223771  0.27221081  1  0  0.229572  0  3.775937  0  0  0.223613  0  4.020572  0  0  0.231639  0  4.042092  0  0.351314  0  0.110694  0.21832  0  4.005928  0
C  C41  1  0.12931990  0.10776530  0.72778959  1  0  0.229525  0  3.776065  0  0  0.223649  0  4.020584  0  0  0.231678  0  4.042103  0  0.351235  0  0.110632  0.218355  0  4.005941  0
C  C42  1  0.84373762  0.94169912  0.20944242  1  0  -0.232808  0  3.686544  0  0  -0.264323  0  3.942224  0  0  -0.271543  0  3.962194  0  0.008715  0  -0.085357  -0.25968  0  3.928964  0
C  C43  1  0.15626930  0.05830615  0.79055666  1  0  -0.232852  0  3.686534  0  0  -0.264397  0  3.942124  0  0  -0.271622  0  3.962101  0  0.008647  0  -0.08542  -0.259754  0  3.928866  0
C  C44  1  0.87071429  0.84448491  0.14671152  1  0  0.234207  0  3.769226  0  0  0.229944  0  4.012413  0  0  0.237586  0  4.034151  0  0.334568  0  0.111009  0.224874  0  3.9978  0
C  C45  1  0.12929531  0.15551924  0.85329004  1  0  0.234089  0  3.769157  0  0  0.22982  0  4.012355  0  0  0.237463  0  4.034091  0  0.334494  0  0.110963  0.22475  0  3.997742  0
C  C46  1  0.93081716  0.70168303  0.14575158  1  0  -0.214444  0  3.677932  0  0  -0.250945  0  3.939035  0  0  -0.25729  0  3.958347  0  0.081319  0  -0.083628  -0.246915  0  3.926239  0
C  C47  1  0.06918797  0.29831885  0.85425026  1  0  -0.214399  0  3.677856  0  0  -0.250853  0  3.938942  0  0  -0.257197  0  3.958253  0  0.08143  0  -0.083617  -0.246824  0  3.926145  0
C  C48  1  0.01839570  0.42768807  0.26048188  1  0  -0.044482  0  3.629607  0  0  -0.087929  0  3.891302  0  0  -0.086486  0  3.909646  0  0.333364  0  0.011613  -0.088834  0  3.87892  0
C  C49  1  0.98161070  0.57231268  0.73951886  1  0  -0.044487  0  3.629625  0  0  -0.087932  0  3.891306  0  0  -0.08649  0  3.909653  0  0.333347  0  0.01161  -0.088836  0  3.878923  0
C  C50  1  0.11938615  0.30624036  0.23859958  1  0  0.012807  0  3.714151  0  0  -0.020962  0  3.983728  0  0  -0.01964  0  4.003554  0  0.414429  0  0.004559  -0.021798  0  3.970302  0
C  C51  1  0.88062026  0.69376039  0.76140065  1  0  0.012764  0  3.714159  0  0  -0.020977  0  3.983743  0  0  -0.019655  0  4.003569  0  0.414792  0  0.004538  -0.021814  0  3.970319  0
C  C52  1  0.14145374  0.44473118  0.15856102  1  0  0.181448  0  3.647513  0  0  0.118871  0  3.914791  0  0  0.132916  0  3.926823  0  0.979548  0  0.15222  0.109811  0  3.906347  0
C  C53  1  0.85854833  0.55526844  0.84143958  1  0  0.181317  0  3.647648  0  0  0.118772  0  3.914912  0  0  0.132818  0  3.926941  0  0.979531  0  0.152201  0.109711  0  3.906469  0
C  C54  1  0.84391088  0.95184114  0.40219987  1  0  -0.034942  0  3.634233  0  0  -0.079086  0  3.897614  0  0  -0.07773  0  3.916849  0  0.306896  0  0.009291  -0.08  0  3.88471  0
C  C55  1  0.15609031  0.04816300  0.59780009  1  0  -0.034949  0  3.634282  0  0  -0.07911  0  3.897697  0  0  -0.077752  0  3.916928  0  0.306566  0  0.009305  -0.080024  0  3.884793  0
C  C56  1  0.76173554  0.06173692  0.44587174  1  0  0.032881  0  3.705881  0  0  -0.001772  0  3.970589  0  0  -0.000306  0  3.990687  0  0.460006  0  0.009701  -0.002737  0  3.957067  0
C  C57  1  0.23826170  0.93826948  0.55412890  1  0  0.032954  0  3.705784  0  0  -0.001711  0  3.970473  0  0  -0.000244  0  3.99057  0  0.460499  0  0.009701  -0.002676  0  3.956952  0
C  C58  1  0.72935884  0.11041748  0.34123814  1  0  0.187313  0  3.618621  0  0  0.127025  0  3.880864  0  0  0.141294  0  3.89317  0  0.96546  0  0.156325  0.117826  0  3.872244  0
C  C59  1  0.27063343  0.88958214  0.65876187  1  0  0.187257  0  3.618459  0  0  0.126971  0  3.880723  0  0  0.141245  0  3.893025  0  0.965423  0  0.156335  0.11777  0  3.872105  0
C  C60  1  0.83607176  0.03944030  0.07351388  1  0  -0.049506  0  3.660514  0  0  -0.087916  0  3.922034  0  0  -0.086733  0  3.94021  0  0.258017  0  0.000644  -0.088728  0  3.910043  0
C  C61  1  0.16392943  0.96056384  0.92648506  1  0  -0.049598  0  3.660649  0  0  -0.08802  0  3.922156  0  0  -0.086846  0  3.940322  0  0.25803  0  0.000559  -0.088841  0  3.910173  0
C  C62  1  0.76661014  0.03435178  0.00722045  1  0  0.013323  0  3.71542  0  0  -0.02509  0  3.984367  0  0  -0.02319  0  4.002814  0  0.413994  0  -0.000836  -0.026369  0  3.972078  0
C  C63  1  0.23339334  0.96564784  0.99277863  1  0  0.013571  0  3.715197  0  0  -0.024828  0  3.984113  0  0  -0.022927  0  4.002562  0  0.413956  0  -0.000743  -0.026106  0  3.971825  0
C  C64  1  0.75145611  0.80078439  0.02339274  1  0  0.183441  0  3.617052  0  0  0.120429  0  3.882093  0  0  0.135064  0  3.893928  0  0.949587  0  0.151107  0.111006  0  3.873686  0
C  C65  1  0.24855042  0.19921749  0.97660707  1  0  0.183564  0  3.617048  0  0  0.120574  0  3.882092  0  0  0.135209  0  3.893927  0  0.949849  0  0.151132  0.111152  0  3.873684  0
C  C66  1  0.41132720  0.83349989  0.23103163  1  0  -0.061107  0  3.760536  0  0  -0.038285  0  3.991424  0  0  -0.044205  0  4.01343  0  -0.027704  0  -0.022981  -0.034288  0  3.97643  0
C  C67  1  0.58867386  0.16650313  0.76896977  1  0  -0.061032  0  3.760528  0  0  -0.038177  0  3.99138  0  0  -0.044098  0  4.013389  0  -0.027898  0  -0.022947  -0.034182  0  3.976387  0
C  C68  1  0.46726451  0.68646040  0.21844354  1  0  -0.089895  0  3.761581  0  0  -0.11312  0  4.014073  0  0  -0.115146  0  4.035526  0  -0.026208  0  -0.095621  -0.11171  0  3.999581  0
C  C69  1  0.53273770  0.31354036  0.78155972  1  0  -0.089777  0  3.761762  0  0  -0.112949  0  4.014208  0  0  -0.11497  0  4.035651  0  -0.026363  0  -0.095515  -0.11154  0  3.999719  0
C  C70  1  0.48730926  0.60936750  0.27306598  1  0  -0.066242  0  3.739205  0  0  -0.093033  0  3.993815  0  0  -0.093176  0  4.01476  0  -0.074463  0  -0.090763  -0.092812  0  3.979629  0
C  C71  1  0.51268848  0.39063100  0.72693551  1  0  -0.066473  0  3.739267  0  0  -0.093319  0  3.993964  0  0  -0.093446  0  4.014912  0  -0.074547  0  -0.090832  -0.093089  0  3.979765  0
C  C72  1  0.44510959  0.67681107  0.34090002  1  0  -0.07653  0  3.763087  0  0  -0.052199  0  3.995407  0  0  -0.060566  0  4.018612  0  -0.070613  0  -0.023453  -0.04666  0  3.979691  0
C  C73  1  0.55488293  0.32319081  0.65910121  1  0  -0.076302  0  3.762841  0  0  -0.052002  0  3.995182  0  0  -0.060371  0  4.018385  0  -0.070557  0  -0.02341  -0.046466  0  3.979468  0
C  C74  1  0.38289078  0.82217699  0.35305195  1  0  -0.067932  0  3.740803  0  0  -0.095494  0  3.995279  0  0  -0.095676  0  4.015772  0  -0.010007  0  -0.089514  -0.095234  0  3.981359  0
C  C75  1  0.61710544  0.17782038  0.64694943  1  0  -0.068049  0  3.741004  0  0  -0.095635  0  3.995486  0  0  -0.095813  0  4.015981  0  -0.009872  0  -0.089591  -0.095371  0  3.981562  0
C  C76  1  0.36812187  0.90100900  0.29879993  1  0  -0.088637  0  3.760654  0  0  -0.112586  0  4.017001  0  0  -0.113879  0  4.037078  0  -0.036342  0  -0.095931  -0.111696  0  4.003386  0
C  C77  1  0.63187741  0.09899062  0.70120064  1  0  -0.088742  0  3.760856  0  0  -0.112677  0  4.017195  0  0  -0.113971  0  4.037275  0  -0.036145  0  -0.095962  -0.111786  0  4.003577  0
C  C78  1  0.40466964  0.91624746  0.17137203  1  0  0.633015  0  3.931208  0  0  0.583565  0  4.227916  0  0  0.617483  0  4.219858  0  1.528974  0  0.195016  0.560517  0  4.232625  0
C  C79  1  0.59533180  0.08374652  0.82862551  1  0  0.633067  0  3.931159  0  0  0.58354  0  4.227965  0  0  0.617459  0  4.219902  0  1.529134  0  0.194939  0.560493  0  4.232675  0
C  C80  1  0.46933234  0.59677896  0.40021673  1  0  0.671322  0  3.887172  0  0  0.620125  0  4.172561  0  0  0.656306  0  4.163352  0  1.55029  0  0.21903  0.595507  0  4.17811  0
C  C81  1  0.53065687  0.40321840  0.59978152  1  0  0.671245  0  3.88734  0  0  0.620148  0  4.172616  0  0  0.65633  0  4.163408  0  1.550594  0  0.219037  0.595529  0  4.178167  0
N  N82  1  0.19489615  0.31833620  0.17484052  1  0  -0.372496  0  3.294285  0  0  -0.291605  0  3.583307  0  0  -0.311002  0  3.597342  0  -1.239225  0  -0.34987  -0.278438  0  3.573502  0
N  N83  1  0.80511140  0.68166229  0.82515900  1  0  -0.372407  0  3.294366  0  0  -0.291541  0  3.583382  0  0  -0.310939  0  3.597418  0  -1.239417  0  -0.349844  -0.278374  0  3.573576  0
N  N84  1  0.03334330  0.51493994  0.20906927  1  0  -0.088206  0  3.603173  0  0  0.000834  0  3.811739  0  0  -0.014584  0  3.838092  0  -1.263994  0  -0.221624  0.011054  0  3.793779  0
N  N85  1  0.96666030  0.48506082  0.79093196  1  0  -0.088197  0  3.603183  0  0  0.000862  0  3.81174  0  0  -0.014555  0  3.838094  0  -1.263996  0  -0.221575  0.011083  0  3.793781  0
N  N86  1  0.69123871  0.15975459  0.40731969  1  0  -0.360705  0  3.286512  0  0  -0.280182  0  3.576402  0  0  -0.299898  0  3.589162  0  -1.224646  0  -0.348561  -0.2668  0  3.567472  0
N  N87  1  0.30875636  0.84024503  0.59267880  1  0  -0.360706  0  3.286319  0  0  -0.280209  0  3.576234  0  0  -0.299928  0  3.588995  0  -1.22467  0  -0.348579  -0.266824  0  3.567303  0
N  N88  1  0.82412153  0.98363001  0.33557945  1  0  -0.092232  0  3.574999  0  0  -0.002946  0  3.784188  0  0  -0.018659  0  3.810133  0  -1.242328  0  -0.21755  0.007485  0  3.766497  0
N  N89  1  0.17587520  0.01637187  0.66442078  1  0  -0.092135  0  3.574835  0  0  -0.002885  0  3.784024  0  0  -0.018603  0  3.809968  0  -1.242297  0  -0.217515  0.007546  0  3.766334  0
N  N90  1  0.71481660  0.88514225  0.97660373  1  0  -0.371537  0  3.323926  0  0  -0.288068  0  3.623346  0  0  -0.308479  0  3.637257  0  -1.239312  0  -0.351424  -0.274244  0  3.613667  0
N  N91  1  0.28519133  0.11485963  0.02339507  1  0  -0.37162  0  3.323904  0  0  -0.288202  0  3.623387  0  0  -0.308613  0  3.637294  0  -1.239081  0  -0.35142  -0.274379  0  3.613708  0
N  N92  1  0.82786051  0.89102180  0.08320357  1  0  -0.088079  0  3.588025  0  0  0.001162  0  3.795948  0  0  -0.014121  0  3.821696  0  -1.25393  0  -0.221174  0.01133  0  3.778341  0
N  N93  1  0.17214322  0.10898008  0.91679672  1  0  -0.088  0  3.588079  0  0  0.001239  0  3.795992  0  0  -0.014044  0  3.821742  0  -1.254287  0  -0.221108  0.011407  0  3.778387  0
Cl  Cl94  1  0.63429929  0.36815131  0.11117415  1  0  -0.601578  0  0.879942  0  0  -0.542316  0  1.145078  0  0  -0.558553  0  1.122956  0  -0.682769  0  -0.34286  -0.530639  0  1.160229  0
Cl  Cl95  1  0.36570024  0.63185057  0.88882714  1  0  -0.601554  0  0.879924  0  0  -0.54228  0  1.145056  0  0  -0.558517  0  1.122944  0  -0.682761  0  -0.34285  -0.530602  0  1.160204  0
Cl  Cl96  1  0.21479568  0.22400018  0.43038403  1  0  -0.605665  0  0.85003  0  0  -0.544216  0  1.101059  0  0  -0.56234  0  1.079049  0  -0.662629  0  -0.350803  -0.531197  0  1.116067  0
Cl  Cl97  1  0.78519301  0.77599266  0.56961331  1  0  -0.605667  0  0.84995  0  0  -0.544228  0  1.100981  0  0  -0.562344  0  1.078957  0  -0.662784  0  -0.350823  -0.531211  0  1.115988  0
O  O98  1  0.38656635  0.84290174  0.11047052  1  0  -0.591947  0  1.928183  0  0  -0.54841  0  2.150276  0  0  -0.570248  0  2.14206  0  -1.181645  0  -0.318854  -0.533087  0  2.155439  0
O  O99  1  0.61344145  0.15708659  0.88952812  1  0  -0.591961  0  1.928117  0  0  -0.548397  0  2.150244  0  0  -0.570234  0  2.142025  0  -1.18158  0  -0.318788  -0.533073  0  2.155408  0
O  O100  1  0.42372358  0.06355401  0.18928743  1  0  -0.657588  0  2.047895  0  0  -0.579168  0  2.324826  0  0  -0.607582  0  2.307959  0  -1.138293  0  -0.343384  -0.559182  0  2.335704  0
O  O101  1  0.57627442  0.93644674  0.81071221  1  0  -0.657603  0  2.047955  0  0  -0.579163  0  2.324937  0  0  -0.607575  0  2.308068  0  -1.138363  0  -0.343351  -0.559172  0  2.335802  0
O  O102  1  0.56299948  0.48061754  0.38995457  1  0  -0.62983  0  2.055414  0  0  -0.559247  0  2.320627  0  0  -0.586057  0  2.302723  0  -1.168741  0  -0.322995  -0.540707  0  2.332377  0
O  O103  1  0.43698972  0.51937982  0.61004367  1  0  -0.629742  0  2.055481  0  0  -0.559183  0  2.320658  0  0  -0.585993  0  2.302751  0  -1.168815  0  -0.322994  -0.540643  0  2.332407  0
O  O104  1  0.39382816  0.64937281  0.45708452  1  0  -0.637996  0  2.111396  0  0  -0.565844  0  2.383944  0  0  -0.592317  0  2.365251  0  -1.195381  0  -0.320647  -0.54753  0  2.39626  0
O  O105  1  0.60615594  0.35061664  0.54291351  1  0  -0.638036  0  2.111523  0  0  -0.565924  0  2.384045  0  0  -0.592398  0  2.365349  0  -1.195471  0  -0.320608  -0.547609  0  2.396363  0
