# generated using pymatgen
data_AgH14C14(N3O)3
_symmetry_space_group_name_H-M   'P 1'
_cell_length_a   7.76102628
_cell_length_b   8.68447561
_cell_length_c   13.17298032
_cell_angle_alpha   73.54695149
_cell_angle_beta   77.22999145
_cell_angle_gamma   83.02175620
_symmetry_Int_Tables_number   1
_chemical_formula_structural   AgH14C14(N3O)3
_chemical_formula_sum   'Ag2 H28 C28 N18 O6'
_cell_volume   828.79912408
_cell_formula_units_Z   2
loop_
 _symmetry_equiv_pos_site_id
 _symmetry_equiv_pos_as_xyz
  1  'x, y, z'
loop_
 _atom_site_type_symbol
 _atom_site_label
 _atom_site_symmetry_multiplicity
 _atom_site_fract_x
 _atom_site_fract_y
 _atom_site_fract_z
 _atom_site_occupancy
 _atom_site_hle17_bader_spin_density
 _atom_site_hle17_ddec_charge
 _atom_site_hle17_ddec_spin_density
 _atom_site_hle17_ddec_sum_bond_order
 _atom_site_hle17_magmom
 _atom_site_hse06_10hf_bader_spin_density
 _atom_site_hse06_10hf_ddec_charge
 _atom_site_hse06_10hf_ddec_spin_density
 _atom_site_hse06_10hf_ddec_sum_bond_order
 _atom_site_hse06_10hf_magmom
 _atom_site_hse06_bader_spin_density
 _atom_site_hse06_ddec_charge
 _atom_site_hse06_ddec_spin_density
 _atom_site_hse06_ddec_sum_bond_order
 _atom_site_hse06_magmom
 _atom_site_pbe_bader_spin_density
 _atom_site_pbe_cm5_charge
 _atom_site_pbe_ddec_charge
 _atom_site_pbe_ddec_spin_density
 _atom_site_pbe_ddec_sum_bond_order
 _atom_site_pbe_magmom
Ag  Ag0  1  0.11679687  0.74826563  0.23675615  1  0  0.490694  0  1.474225  0  0  0.341869  0  1.930055  0  0  0.370052  0  1.884073  0  0  0.463762  0.322608  0  1.961705  0
Ag  Ag1  1  0.88319922  0.25173756  0.76324549  1  0  0.490692  0  1.4742  0  0  0.341851  0  1.930019  0  0  0.370036  0  1.884035  0  0  0.463746  0.322593  0  1.96167  0
H  H2  1  0.10553439  0.08084664  0.88760199  1  0  0.090114  0  0.933689  0  0  0.091842  0  1.016123  0  0  0.09479  0  1.011055  0  0  0.141225  0.089485  0  1.019939  0
H  H3  1  0.89446698  0.91915653  0.11239820  1  0  0.090086  0  0.933709  0  0  0.091867  0  1.016066  0  0  0.094816  0  1.010996  0  0  0.141234  0.089508  0  1.019884  0
H  H4  1  0.12112238  0.42219707  0.58117620  1  0  0.092374  0  0.942728  0  0  0.094961  0  1.020247  0  0  0.096948  0  1.017438  0  0  0.143527  0.093337  0  1.022475  0
H  H5  1  0.87887539  0.57780014  0.41882176  1  0  0.092346  0  0.942695  0  0  0.094934  0  1.020223  0  0  0.096922  0  1.017412  0  0  0.14353  0.093319  0  1.022428  0
H  H6  1  0.32393230  0.24901134  0.89412991  1  0  0.120425  0  0.970845  0  0  0.130595  0  1.032093  0  0  0.132792  0  1.030268  0  0  0.128874  0.128884  0  1.03355  0
H  H7  1  0.67607024  0.75099424  0.10586968  1  0  0.1204  0  0.970814  0  0  0.13057  0  1.032076  0  0  0.132766  0  1.030252  0  0  0.128864  0.128858  0  1.033536  0
H  H8  1  0.51248506  0.26486743  0.04469662  1  0  0.1203  0  0.98506  0  0  0.129452  0  1.046012  0  0  0.131535  0  1.047415  0  0  0.107042  0.127959  0  1.045184  0
H  H9  1  0.48751941  0.73512852  0.95530372  1  0  0.120265  0  0.985083  0  0  0.129412  0  1.04604  0  0  0.131495  0  1.047443  0  0  0.107032  0.127915  0  1.045218  0
H  H10  1  0.39271947  0.01493988  0.22203564  1  0  0.102733  0  0.967085  0  0  0.109284  0  1.036572  0  0  0.111655  0  1.034126  0  0  0.11849  0.107485  0  1.038386  0
H  H11  1  0.60728631  0.98505608  0.77796300  1  0  0.102739  0  0.967052  0  0  0.109269  0  1.036575  0  0  0.111649  0  1.0341  0  0  0.118501  0.107467  0  1.038401  0
H  H12  1  0.19705200  0.88881775  0.78211841  1  0  0.12339  0  0.969876  0  0  0.133705  0  1.033423  0  0  0.137046  0  1.029466  0  0  0.125845  0.131158  0  1.036314  0
H  H13  1  0.80294555  0.11118305  0.21788120  1  0  0.123406  0  0.969854  0  0  0.133718  0  1.033399  0  0  0.137065  0  1.029433  0  0  0.125846  0.131171  0  1.036291  0
H  H14  1  0.23781440  0.55373377  0.82856725  1  0  0.135877  0  0.968292  0  0  0.143399  0  1.028484  0  0  0.147113  0  1.027083  0  0  0.109058  0.140704  0  1.029645  0
H  H15  1  0.76218184  0.44626702  0.17143405  1  0  0.135895  0  0.968291  0  0  0.143427  0  1.028467  0  0  0.147142  0  1.027065  0  0  0.109077  0.140731  0  1.029631  0
H  H16  1  0.17383409  0.45959203  0.05084450  1  0  0.089131  0  0.968504  0  0  0.099742  0  1.029196  0  0  0.101019  0  1.029346  0  0  0.114102  0.098772  0  1.029156  0
H  H17  1  0.82616729  0.54041114  0.94915645  1  0  0.089107  0  0.968518  0  0  0.099717  0  1.029213  0  0  0.100999  0  1.029352  0  0  0.114095  0.098746  0  1.02917  0
H  H18  1  0.27109073  0.61142403  0.62892604  1  0  0.117371  0  0.961815  0  0  0.124371  0  1.030158  0  0  0.1275  0  1.026969  0  0  0.123419  0.122031  0  1.032464  0
H  H19  1  0.72889641  0.38857441  0.37107537  1  0  0.117318  0  0.961835  0  0  0.124318  0  1.030189  0  0  0.127447  0  1.026999  0  0  0.123358  0.121974  0  1.032504  0
H  H20  1  0.29429527  0.94356328  0.55964488  1  0  0.125101  0  0.970451  0  0  0.138247  0  1.023727  0  0  0.140746  0  1.024074  0  0  0.108362  0.136446  0  1.023664  0
H  H21  1  0.70569591  0.05643393  0.44035698  1  0  0.125199  0  0.97026  0  0  0.138315  0  1.023586  0  0  0.140815  0  1.023932  0  0  0.108398  0.136514  0  1.023523  0
H  H22  1  0.13865485  0.03200806  0.38125633  1  0  0.089386  0  0.953662  0  0  0.101075  0  1.012384  0  0  0.102182  0  1.012696  0  0  0.116044  0.10021  0  1.012292  0
H  H23  1  0.86134549  0.96799033  0.61874183  1  0  0.08931  0  0.953688  0  0  0.101002  0  1.012415  0  0  0.102106  0  1.012732  0  0  0.116043  0.100137  0  1.01232  0
H  H24  1  0.34027376  0.22836049  0.51935983  1  0  0.114555  0  0.983792  0  0  0.12288  0  1.050358  0  0  0.125235  0  1.048312  0  0  0.123475  0.121137  0  1.051829  0
H  H25  1  0.65972131  0.77163791  0.48064131  1  0  0.114539  0  0.983843  0  0  0.122847  0  1.050432  0  0  0.125201  0  1.048387  0  0  0.123458  0.121103  0  1.051906  0
H  H26  1  0.48809769  0.16862991  0.32304584  1  0  0.12578  0  0.972537  0  0  0.137878  0  1.027704  0  0  0.140368  0  1.028182  0  0  0.109348  0.136064  0  1.027575  0
H  H27  1  0.51190508  0.83137206  0.67695438  1  0  0.125777  0  0.972497  0  0  0.137877  0  1.027672  0  0  0.140366  0  1.028151  0  0  0.10933  0.136062  0  1.027541  0
H  H28  1  0.33794034  0.41412238  0.17752865  1  0  0.085326  0  0.971502  0  0  0.096854  0  1.034825  0  0  0.0984  0  1.033681  0  0  0.114403  0.095694  0  1.035688  0
H  H29  1  0.66207028  0.58588075  0.82247033  1  0  0.085314  0  0.971516  0  0  0.096842  0  1.034839  0  0  0.098386  0  1.033696  0  0  0.114408  0.095682  0  1.035701  0
C  C30  1  0.09670827  0.99645750  0.96818498  1  0  0.125582  0  3.617416  0  0  0.065687  0  3.875136  0  0  0.073593  0  3.886287  0  0  0.142822  0.060422  0  3.867676  0
C  C31  1  0.90328789  0.00354451  0.03181536  1  0  0.125799  0  3.61728  0  0  0.065883  0  3.874993  0  0  0.073791  0  3.886142  0  0  0.142845  0.06062  0  3.867535  0
C  C32  1  0.09907702  0.49833501  0.50238375  1  0  0.12312  0  3.621035  0  0  0.0635  0  3.87911  0  0  0.071396  0  3.889955  0  0  0.142685  0.058208  0  3.871864  0
C  C33  1  0.90091936  0.50166339  0.49761645  1  0  0.123187  0  3.620989  0  0  0.06353  0  3.879105  0  0  0.071428  0  3.88995  0  0  0.142675  0.058243  0  3.87186  0
C  C34  1  0.32331324  0.17457949  0.97563033  1  0  0.025065  0  3.625834  0  0  -0.022638  0  3.884913  0  0  -0.013797  0  3.899659  0  0  0.024426  -0.028164  0  3.874786  0
C  C35  1  0.67668960  0.82542128  0.02436935  1  0  0.025081  0  3.625795  0  0  -0.022625  0  3.884898  0  0  -0.013782  0  3.899642  0  0  0.024444  -0.028152  0  3.874771  0
C  C36  1  0.41405399  0.18122798  0.05345168  1  0  -0.200594  0  3.771182  0  0  -0.21482  0  4.032702  0  0  -0.223755  0  4.053561  0  0  -0.115809  -0.209072  0  4.018633  0
C  C37  1  0.58594761  0.81877158  0.94654913  1  0  -0.200517  0  3.771207  0  0  -0.21474  0  4.032719  0  0  -0.223675  0  4.05358  0  0  -0.115775  -0.208988  0  4.01865  0
C  C38  1  0.35306588  0.05518168  0.14418073  1  0  0.057222  0  3.721154  0  0  0.017592  0  3.993945  0  0  0.025655  0  4.009093  0  0  0.01957  0.012486  0  3.983503  0
C  C39  1  0.64693704  0.94481788  0.85581916  1  0  0.057259  0  3.72106  0  0  0.017634  0  3.993848  0  0  0.025699  0  4.009002  0  0  0.019577  0.012527  0  3.983398  0
C  C40  1  0.18622662  0.79592517  0.85789503  1  0  0.002027  0  3.652005  0  0  -0.048833  0  3.912762  0  0  -0.040619  0  3.927833  0  0  0.014665  -0.053797  0  3.902283  0
C  C41  1  0.81377606  0.20407800  0.14210422  1  0  0.002001  0  3.652098  0  0  -0.048869  0  3.912869  0  0  -0.040659  0  3.927944  0  0  0.014646  -0.053834  0  3.902396  0
C  C42  1  0.20772249  0.62969758  0.88375563  1  0  -0.208816  0  3.767497  0  0  -0.218341  0  4.022103  0  0  -0.227904  0  4.042934  0  0  -0.116669  -0.212071  0  4.007925  0
C  C43  1  0.79227763  0.37030440  0.11624419  1  0  -0.208821  0  3.767565  0  0  -0.218347  0  4.022168  0  0  -0.227911  0  4.042999  0  0  -0.116689  -0.212077  0  4.007994  0
C  C44  1  0.17487380  0.58061470  0.99787326  1  0  0.045091  0  3.758667  0  0  0.012056  0  4.029855  0  0  0.018894  0  4.044995  0  0  0.014652  0.007786  0  4.019374  0
C  C45  1  0.82512632  0.41938729  0.00212655  1  0  0.045046  0  3.758688  0  0  0.012005  0  4.029898  0  0  0.018843  0  4.045028  0  0  0.01462  0.007737  0  4.019412  0
C  C46  1  0.22868058  0.70136630  0.56165077  1  0  0.016065  0  3.649155  0  0  -0.034184  0  3.912031  0  0  -0.025131  0  3.926178  0  0  0.0189  -0.039838  0  3.90234  0
C  C47  1  0.77131735  0.29862849  0.43834912  1  0  0.015953  0  3.649237  0  0  -0.034284  0  3.912116  0  0  -0.025231  0  3.926264  0  0  0.018878  -0.039942  0  3.902431  0
C  C48  1  0.23955128  0.86640598  0.52459332  1  0  -0.209449  0  3.773862  0  0  -0.222423  0  4.031913  0  0  -0.232238  0  4.053387  0  0  -0.117818  -0.216081  0  4.017412  0
C  C49  1  0.76043836  0.13359483  0.47540961  1  0  -0.209494  0  3.773828  0  0  -0.222437  0  4.03189  0  0  -0.232251  0  4.05336  0  0  -0.117801  -0.216095  0  4.01739  0
C  C50  1  0.15910776  0.91272497  0.43342914  1  0  0.071022  0  3.744464  0  0  0.033105  0  4.019469  0  0  0.041484  0  4.033877  0  0  0.022495  0.027735  0  4.009557  0
C  C51  1  0.84088606  0.08727224  0.56657086  1  0  0.071294  0  3.744162  0  0  0.033387  0  4.019137  0  0  0.041766  0  4.033544  0  0  0.022558  0.028017  0  4.009222  0
C  C52  1  0.32198457  0.29342082  0.43862124  1  0  0.025803  0  3.637007  0  0  -0.02518  0  3.898706  0  0  -0.016393  0  3.913915  0  0  0.025375  -0.030639  0  3.888175  0
C  C53  1  0.67801579  0.70657755  0.56137920  1  0  0.025801  0  3.636962  0  0  -0.025173  0  3.898672  0  0  -0.016386  0  3.91388  0  0  0.025365  -0.030634  0  3.888143  0
C  C54  1  0.39420962  0.26607964  0.33889888  1  0  -0.21343  0  3.784843  0  0  -0.222082  0  4.038066  0  0  -0.232644  0  4.060738  0  0  -0.115923  -0.215181  0  4.022696  0
C  C55  1  0.60579175  0.73392354  0.66110055  1  0  -0.213398  0  3.784621  0  0  -0.222042  0  4.03782  0  0  -0.232605  0  4.060492  0  0  -0.115867  -0.21514  0  4.022447  0
C  C56  1  0.31647232  0.38959625  0.26461132  1  0  0.058866  0  3.741553  0  0  0.021366  0  4.006794  0  0  0.02985  0  4.021594  0  0  0.019947  0.015949  0  3.99657  0
C  C57  1  0.68353053  0.61040451  0.73538911  1  0  0.058813  0  3.741525  0  0  0.021317  0  4.006775  0  0  0.0298  0  4.021576  0  0  0.019923  0.015898  0  3.996549  0
N  N58  1  0.21573759  0.04976550  0.02039072  1  0  0.011256  0  3.557682  0  0  0.093228  0  3.779362  0  0  0.080893  0  3.808486  0  0  -0.145761  0.101266  0  3.759683  0
N  N59  1  0.78426253  0.95023649  0.97960909  1  0  0.011181  0  3.557733  0  0  0.09314  0  3.779446  0  0  0.080805  0  3.808569  0  0  -0.145814  0.101178  0  3.75977  0
N  N60  1  0.23173949  0.97630995  0.12418781  1  0  -0.254181  0  3.153968  0  0  -0.205788  0  3.457851  0  0  -0.218413  0  3.471518  0  0  -0.256883  -0.197216  0  3.448517  0
N  N61  1  0.76826196  0.02369203  0.87581182  1  0  -0.254249  0  3.153918  0  0  -0.205841  0  3.457785  0  0  -0.218467  0  3.471452  0  0  -0.256914  -0.197269  0  3.448448  0
N  N62  1  0.14498898  0.83703935  0.95356010  1  0  0.00911  0  3.588841  0  0  0.091929  0  3.816185  0  0  0.079573  0  3.844124  0  0  -0.150908  0.100043  0  3.797229  0
N  N63  1  0.85501115  0.16296263  0.04644047  1  0  0.008987  0  3.588867  0  0  0.09181  0  3.816232  0  0  0.079452  0  3.844172  0  0  -0.150894  0.099925  0  3.797279  0
N  N64  1  0.13491396  0.70641185  0.04038233  1  0  -0.260478  0  2.982799  0  0  -0.234494  0  3.27406  0  0  -0.242399  0  3.285979  0  0  -0.237942  -0.229066  0  3.265992  0
N  N65  1  0.86508749  0.29359013  0.95961807  1  0  -0.260365  0  2.982773  0  0  -0.234374  0  3.274018  0  0  -0.24228  0  3.285938  0  0  -0.237896  -0.228944  0  3.265947  0
N  N66  1  0.14547276  0.65782995  0.49404379  1  0  0.018576  0  3.577999  0  0  0.09946  0  3.802512  0  0  0.087647  0  3.829867  0  0  -0.149172  0.107133  0  3.784047  0
N  N67  1  0.85452633  0.34216726  0.50595475  1  0  0.018662  0  3.578011  0  0  0.099547  0  3.802531  0  0  0.087733  0  3.829888  0  0  -0.149171  0.107219  0  3.784065  0
N  N68  1  0.10079713  0.78612754  0.41516010  1  0  -0.269034  0  3.053398  0  0  -0.233373  0  3.353136  0  0  -0.243533  0  3.364611  0  0  -0.253085  -0.226475  0  3.345393  0
N  N69  1  0.89920197  0.21386966  0.58483845  1  0  -0.269208  0  3.053417  0  0  -0.23355  0  3.35317  0  0  -0.243709  0  3.364644  0  0  -0.25311  -0.226649  0  3.345422  0
N  N70  1  0.20871976  0.42643618  0.42098057  1  0  0.023804  0  3.545669  0  0  0.104145  0  3.769054  0  0  0.092558  0  3.796443  0  0  -0.14329  0.111673  0  3.750564  0
N  N71  1  0.79128043  0.57356461  0.57901869  1  0  0.023702  0  3.545657  0  0  0.104057  0  3.76904  0  0  0.09247  0  3.796427  0  0  -0.143294  0.111583  0  3.750551  0
N  N72  1  0.20264949  0.48616607  0.31461674  1  0  -0.238465  0  3.100429  0  0  -0.192484  0  3.395622  0  0  -0.203878  0  3.407819  0  0  -0.251768  -0.184706  0  3.387279  0
N  N73  1  0.79735195  0.51383592  0.68538214  1  0  -0.238326  0  3.100447  0  0  -0.192352  0  3.395636  0  0  -0.203748  0  3.407837  0  0  -0.251745  -0.184571  0  3.387288  0
N  N74  1  0.65197176  0.75384301  0.29351581  1  0  0.671432  0  4.16985  0  0  0.704861  0  4.468149  0  0  0.732191  0  4.474239  0  0  0.084661  0.698669  0  4.44638  0
N  N75  1  0.34803108  0.24615777  0.70648311  1  0  0.671244  0  4.16976  0  0  0.704603  0  4.468167  0  0  0.73193  0  4.474264  0  0  0.084547  0.698395  0  4.446408  0
O  O76  1  0.79406820  0.67324565  0.25996958  1  0  -0.517671  0  1.793896  0  0  -0.496858  0  2.043521  0  0  -0.512923  0  2.030913  0  0  -0.22233  -0.489457  0  2.047272  0
O  O77  1  0.20593647  0.32676722  0.74001929  1  0  -0.517644  0  1.793847  0  0  -0.496754  0  2.043445  0  0  -0.512808  0  2.03082  0  0  -0.222251  -0.489369  0  2.047253  0
O  O78  1  0.66554306  0.89016775  0.30812200  1  0  -0.501925  0  1.748479  0  0  -0.494258  0  1.974547  0  0  -0.508217  0  1.966201  0  0  -0.213131  -0.488571  0  1.975344  0
O  O79  1  0.33445458  0.10983183  0.69188010  1  0  -0.501903  0  1.748448  0  0  -0.494241  0  1.974567  0  0  -0.508199  0  1.966221  0  0  -0.213142  -0.488545  0  1.975371  0
O  O80  1  0.50484576  0.69660663  0.31008807  1  0  -0.432578  0  1.749975  0  0  -0.437371  0  1.97676  0  0  -0.449321  0  1.972069  0  0  -0.18669  -0.433044  0  1.974789  0
O  O81  1  0.49516162  0.30338566  0.68991711  1  0  -0.432449  0  1.749891  0  0  -0.437209  0  1.976683  0  0  -0.449165  0  1.972003  0  0  -0.186634  -0.432882  0  1.974735  0
