# generated using pymatgen
data_CdH16C19BrN2O5
_symmetry_space_group_name_H-M   'P 1'
_cell_length_a   8.67235982
_cell_length_b   11.65205976
_cell_length_c   12.00949461
_cell_angle_alpha   66.22923993
_cell_angle_beta   76.75046473
_cell_angle_gamma   71.46517239
_symmetry_Int_Tables_number   1
_chemical_formula_structural   CdH16C19BrN2O5
_chemical_formula_sum   'Cd2 H32 C38 Br2 N4 O10'
_cell_volume   1045.84337009
_cell_formula_units_Z   2
loop_
 _symmetry_equiv_pos_site_id
 _symmetry_equiv_pos_as_xyz
  1  'x, y, z'
loop_
 _atom_site_type_symbol
 _atom_site_label
 _atom_site_symmetry_multiplicity
 _atom_site_fract_x
 _atom_site_fract_y
 _atom_site_fract_z
 _atom_site_occupancy
 _atom_site_hle17_bader_spin_density
 _atom_site_hle17_ddec_charge
 _atom_site_hle17_ddec_spin_density
 _atom_site_hle17_ddec_sum_bond_order
 _atom_site_hle17_magmom
 _atom_site_hse06_10hf_bader_spin_density
 _atom_site_hse06_10hf_ddec_charge
 _atom_site_hse06_10hf_ddec_spin_density
 _atom_site_hse06_10hf_ddec_sum_bond_order
 _atom_site_hse06_10hf_magmom
 _atom_site_hse06_bader_spin_density
 _atom_site_hse06_ddec_charge
 _atom_site_hse06_ddec_spin_density
 _atom_site_hse06_ddec_sum_bond_order
 _atom_site_hse06_magmom
 _atom_site_pbe_bader_spin_density
 _atom_site_pbe_cm5_charge
 _atom_site_pbe_ddec_charge
 _atom_site_pbe_ddec_spin_density
 _atom_site_pbe_ddec_sum_bond_order
 _atom_site_pbe_magmom
Cd  Cd0  1  0.63433277  0.71211139  0.35660439  1  0  1.117156  0  1.670887  0  0  0.93951  0  2.118049  0  0  0.997699  0  2.06247  0  0  0.697116  0.898242  0  2.155955  0
Cd  Cd1  1  0.36567641  0.28790135  0.64338571  1  0  1.117312  0  1.670743  0  0  0.939682  0  2.117885  0  0  0.997863  0  2.062308  0  0  0.697171  0.898409  0  2.155779  0
H  H2  1  0.94959649  0.92821989  0.34587057  1  0  0.097251  0  0.957095  0  0  0.102068  0  1.02758  0  0  0.105645  0  1.025585  0  0  0.093752  0.099576  0  1.028905  0
H  H3  1  0.05040844  0.07178384  0.65410601  1  0  0.09705  0  0.957305  0  0  0.101963  0  1.02773  0  0  0.105539  0  1.025728  0  0  0.093685  0.099461  0  1.029058  0
H  H4  1  0.27571333  0.92718115  0.56799744  1  0  0.088354  0  0.966431  0  0  0.096882  0  1.03441  0  0  0.1  0  1.032236  0  0  0.094892  0.094681  0  1.035947  0
H  H5  1  0.72430083  0.07281422  0.43199634  1  0  0.088419  0  0.966354  0  0  0.096946  0  1.034328  0  0  0.100061  0  1.032156  0  0  0.094933  0.094748  0  1.035861  0
H  H6  1  0.69613860  0.55331935  0.04114488  1  0  0.105466  0  0.933225  0  0  0.116863  0  0.987803  0  0  0.120787  0  0.985256  0  0  0.103544  0.114062  0  0.989632  0
H  H7  1  0.30384492  0.44668888  0.95885052  1  0  0.105596  0  0.933148  0  0  0.116996  0  0.987723  0  0  0.120868  0  0.985234  0  0  0.1036  0.114197  0  0.98955  0
H  H8  1  0.15765258  0.54306251  0.12130421  1  0  0.102951  0  0.937815  0  0  0.114369  0  0.993258  0  0  0.118251  0  0.990939  0  0  0.103428  0.111591  0  0.994977  0
H  H9  1  0.84233347  0.45695229  0.87869505  1  0  0.10304  0  0.937908  0  0  0.114416  0  0.993374  0  0  0.118292  0  0.99105  0  0  0.103438  0.111639  0  0.995087  0
H  H10  1  0.51264875  0.82329052  0.55549324  1  0  0.083  0  0.978258  0  0  0.088015  0  1.047482  0  0  0.091161  0  1.044252  0  0  0.110702  0.08565  0  1.049902  0
H  H11  1  0.48735964  0.17671496  0.44450794  1  0  0.082896  0  0.978154  0  0  0.088007  0  1.047297  0  0  0.091153  0  1.044067  0  0  0.11071  0.08564  0  1.049721  0
H  H12  1  0.98321414  0.60897359  0.49079847  1  0  0.090459  0  0.934293  0  0  0.09791  0  0.998987  0  0  0.100645  0  0.99623  0  0  0.121073  0.095895  0  1.001114  0
H  H13  1  0.01679473  0.39101725  0.50920788  1  0  0.090453  0  0.934349  0  0  0.097892  0  0.999045  0  0  0.100628  0  0.996287  0  0  0.121052  0.095872  0  1.001172  0
H  H14  1  0.58823773  0.87148211  0.71498362  1  0  0.10454  0  1.020166  0  0  0.111543  0  1.087252  0  0  0.115387  0  1.085301  0  0  0.087218  0.10876  0  1.088888  0
H  H15  1  0.41177035  0.12851078  0.28501963  1  0  0.104509  0  1.020154  0  0  0.111491  0  1.087262  0  0  0.115347  0  1.085298  0  0  0.087201  0.108707  0  1.088898  0
H  H16  1  0.07996629  0.63974894  0.65103355  1  0  0.115645  0  0.946787  0  0  0.126255  0  1.005499  0  0  0.129116  0  1.00457  0  0  0.112844  0.124168  0  1.006421  0
H  H17  1  0.92003570  0.36023163  0.34898437  1  0  0.115783  0  0.946828  0  0  0.126444  0  1.005446  0  0  0.129307  0  1.004512  0  0  0.112851  0.12435  0  1.006381  0
H  H18  1  0.64308772  0.86845352  0.86571544  1  0  0.121577  0  0.964839  0  0  0.1295  0  1.025223  0  0  0.133485  0  1.022982  0  0  0.106894  0.126576  0  1.027125  0
H  H19  1  0.35691305  0.13153695  0.13429581  1  0  0.121598  0  0.964755  0  0  0.129557  0  1.025123  0  0  0.133543  0  1.02288  0  0  0.106937  0.126635  0  1.027025  0
H  H20  1  0.15536803  0.72560234  0.74688792  1  0  0.126636  0  0.924777  0  0  0.138  0  0.977457  0  0  0.141166  0  0.976546  0  0  0.123318  0.135584  0  0.978491  0
H  H21  1  0.84463169  0.27437443  0.25312842  1  0  0.126618  0  0.925026  0  0  0.137984  0  0.977695  0  0  0.141142  0  0.976787  0  0  0.123345  0.135572  0  0.978727  0
H  H22  1  0.73401629  0.93458989  0.00638840  1  0  0.106207  0  0.954402  0  0  0.113022  0  1.018037  0  0  0.116478  0  1.01465  0  0  0.122044  0.110353  0  1.020669  0
H  H23  1  0.26598128  0.06541565  0.99360800  1  0  0.106125  0  0.954407  0  0  0.11301  0  1.017975  0  0  0.1165  0  1.014553  0  0  0.122028  0.110342  0  1.020605  0
H  H24  1  0.22456331  0.80674870  0.88686398  1  0  0.106607  0  0.926384  0  0  0.116819  0  0.983606  0  0  0.11998  0  0.980466  0  0  0.129202  0.114433  0  0.986121  0
H  H25  1  0.77543429  0.19324381  0.11314376  1  0  0.106537  0  0.92649  0  0  0.116757  0  0.983691  0  0  0.119912  0  0.980555  0  0  0.129208  0.114376  0  0.986192  0
H  H26  1  0.15773733  0.88944980  0.03097993  1  0  0.102052  0  0.911998  0  0  0.116591  0  0.970077  0  0  0.118178  0  0.968643  0  0  0.123095  0.115442  0  0.971096  0
H  H27  1  0.84226695  0.11055997  0.96901043  1  0  0.102117  0  0.912055  0  0  0.116626  0  0.970155  0  0  0.118204  0  0.968723  0  0  0.123125  0.115476  0  0.971173  0
H  H28  1  0.96138968  0.88872235  0.11949638  1  0  0.113928  0  0.933334  0  0  0.123648  0  1.0  0  0  0.125787  0  0.998412  0  0  0.113566  0.122065  0  1.001295  0
H  H29  1  0.03861679  0.11128821  0.88049831  1  0  0.113916  0  0.933403  0  0  0.123652  0  1.000045  0  0  0.125788  0  0.998452  0  0  0.113571  0.12207  0  1.001333  0
H  H30  1  0.68615402  0.46320575  0.58430181  1  0  0.421741  0  0.816563  0  0  0.407693  0  0.866612  0  0  0.415853  0  0.857656  0  0  0.320233  0.401764  0  0.87326  0
H  H31  1  0.31386343  0.53679674  0.41568467  1  0  0.421666  0  0.816488  0  0  0.40762  0  0.866547  0  0  0.415778  0  0.857595  0  0  0.320213  0.401695  0  0.873198  0
H  H32  1  0.65406128  0.40460855  0.49937589  1  0  0.419642  0  0.881627  0  0  0.38888  0  0.945685  0  0  0.399577  0  0.929926  0  0  0.286632  0.381338  0  0.95677  0
H  H33  1  0.34594839  0.59539941  0.50061417  1  0  0.41951  0  0.881801  0  0  0.388751  0  0.945858  0  0  0.399448  0  0.930101  0  0  0.286582  0.381206  0  0.956947  0
C  C34  1  0.26345260  0.83087877  0.39428368  1  0  0.631153  0  3.935011  0  0  0.582406  0  4.232474  0  0  0.615573  0  4.22607  0  0  0.190978  0.559747  0  4.236054  0
C  C35  1  0.73657695  0.16910278  0.60570318  1  0  0.631441  0  3.935129  0  0  0.582341  0  4.233048  0  0  0.615505  0  4.226645  0  0  0.190817  0.559677  0  4.236625  0
C  C36  1  0.12828062  0.91717324  0.45066479  1  0  -0.05973  0  3.733761  0  0  -0.035219  0  3.963894  0  0  -0.041472  0  3.986403  0  0  -0.021827  -0.030886  0  3.948445  0
C  C37  1  0.87172686  0.08282875  0.54934864  1  0  -0.059899  0  3.734564  0  0  -0.035302  0  3.964768  0  0  -0.041561  0  3.987273  0  0  -0.021826  -0.030959  0  3.949311  0
C  C38  1  0.97155142  0.95999433  0.41340366  1  0  -0.087111  0  3.765615  0  0  -0.10845  0  4.015526  0  0  -0.11045  0  4.038117  0  0  -0.093709  -0.106711  0  3.99981  0
C  C39  1  0.02842560  0.04002237  0.58659319  1  0  -0.086657  0  3.766048  0  0  -0.10807  0  4.015923  0  0  -0.110059  0  4.0385  0  0  -0.093583  -0.106332  0  4.000203  0
C  C40  1  0.15482518  0.95838868  0.53803793  1  0  -0.085832  0  3.75587  0  0  -0.109105  0  4.009533  0  0  -0.110362  0  4.030704  0  0  -0.094269  -0.107914  0  3.99469  0
C  C41  1  0.84516892  0.04162396  0.46196903  1  0  -0.085876  0  3.755825  0  0  -0.109147  0  4.009462  0  0  -0.110394  0  4.030622  0  0  -0.094347  -0.107969  0  3.99464  0
C  C42  1  0.83293950  0.61057049  0.18682622  1  0  0.606281  0  3.975005  0  0  0.557609  0  4.272118  0  0  0.591099  0  4.268618  0  0  0.177148  0.535026  0  4.273277  0
C  C43  1  0.16704649  0.38944492  0.81318034  1  0  0.606404  0  3.974984  0  0  0.557703  0  4.272112  0  0  0.591194  0  4.268604  0  0  0.176904  0.535112  0  4.273283  0
C  C44  1  0.91890903  0.55362442  0.09000718  1  0  -0.059685  0  3.758612  0  0  -0.038072  0  3.995435  0  0  -0.044648  0  4.01888  0  0  -0.020728  -0.033551  0  3.979261  0
C  C45  1  0.08108471  0.44637829  0.90998673  1  0  -0.059812  0  3.759045  0  0  -0.038225  0  3.995917  0  0  -0.044799  0  4.019334  0  0  -0.02083  -0.033691  0  3.979733  0
C  C46  1  0.82925819  0.52935336  0.02211183  1  0  -0.086671  0  3.752704  0  0  -0.10807  0  4.003173  0  0  -0.109626  0  4.024127  0  0  -0.090323  -0.106708  0  3.988519  0
C  C47  1  0.17073457  0.47064856  0.97787838  1  0  -0.086846  0  3.752751  0  0  -0.108255  0  4.003271  0  0  -0.109765  0  4.02424  0  0  -0.090333  -0.106891  0  3.988606  0
C  C48  1  0.09026477  0.52386694  0.06717336  1  0  -0.087453  0  3.765859  0  0  -0.110883  0  4.019162  0  0  -0.112491  0  4.040602  0  0  -0.09058  -0.109433  0  4.004344  0
C  C49  1  0.90974376  0.47613366  0.93280954  1  0  -0.087643  0  3.766053  0  0  -0.111025  0  4.019334  0  0  -0.112622  0  4.040778  0  0  -0.090636  -0.109579  0  4.004513  0
C  C50  1  0.63683467  0.78490905  0.58080054  1  0  0.121271  0  3.716933  0  0  0.092238  0  3.965991  0  0  0.098061  0  3.985558  0  0  0.040093  0.088449  0  3.952813  0
C  C51  1  0.36315875  0.21509825  0.41919763  1  0  0.121347  0  3.716525  0  0  0.092237  0  3.965586  0  0  0.098063  0  3.985152  0  0  0.040136  0.088444  0  3.95241  0
C  C52  1  0.89852650  0.66422394  0.54446676  1  0  0.144498  0  3.673388  0  0  0.113223  0  3.928485  0  0  0.120166  0  3.946275  0  0  0.056734  0.108617  0  3.91659  0
C  C53  1  0.10146435  0.33577060  0.45553644  1  0  0.144433  0  3.673438  0  0  0.113205  0  3.928514  0  0  0.120148  0  3.946302  0  0  0.056722  0.108607  0  3.916607  0
C  C54  1  0.68066622  0.80865119  0.67176310  1  0  -0.144802  0  3.698767  0  0  -0.16225  0  3.938523  0  0  -0.169713  0  3.96052  0  0  -0.083354  -0.157687  0  3.924063  0
C  C55  1  0.31933007  0.19134459  0.32823619  1  0  -0.144772  0  3.698398  0  0  -0.162156  0  3.938232  0  0  -0.169627  0  3.96022  0  0  -0.083346  -0.157593  0  3.923776  0
C  C56  1  0.95237097  0.68328577  0.63489585  1  0  -0.12471  0  3.666373  0  0  -0.148468  0  3.921621  0  0  -0.154492  0  3.94282  0  0  -0.069018  -0.144681  0  3.907787  0
C  C57  1  0.04761129  0.31670334  0.36511748  1  0  -0.124952  0  3.666419  0  0  -0.148749  0  3.921725  0  0  -0.154783  0  3.942939  0  0  -0.069095  -0.144957  0  3.907883  0
C  C58  1  0.84252060  0.75796440  0.70050708  1  0  0.08186  0  3.747672  0  0  0.095227  0  3.97739  0  0  0.096835  0  4.000337  0  0  0.014202  0.094229  0  3.962022  0
C  C59  1  0.15747600  0.24202422  0.29950139  1  0  0.08196  0  3.747602  0  0  0.095175  0  3.977544  0  0  0.096783  0  4.000493  0  0  0.014214  0.094176  0  3.962168  0
C  C60  1  0.89196553  0.79070111  0.79145806  1  0  0.123331  0  3.698931  0  0  0.13044  0  3.930377  0  0  0.137417  0  3.949639  0  0  0.035197  0.125962  0  3.917513  0
C  C61  1  0.10802487  0.20928519  0.20855651  1  0  0.123274  0  3.698932  0  0  0.130472  0  3.930356  0  0  0.137452  0  3.949613  0  0  0.035229  0.125998  0  3.917502  0
C  C62  1  0.77399449  0.84958155  0.86734351  1  0  -0.11455  0  3.644815  0  0  -0.134822  0  3.894895  0  0  -0.142635  0  3.913767  0  0  -0.058818  -0.130195  0  3.882918  0
C  C63  1  0.22599873  0.15040991  0.13266454  1  0  -0.114546  0  3.644679  0  0  -0.134918  0  3.894855  0  0  -0.142736  0  3.913739  0  0  -0.05888  -0.130294  0  3.882887  0
C  C64  1  0.05716229  0.77083712  0.80212733  1  0  -0.123393  0  3.694  0  0  -0.141986  0  3.947192  0  0  -0.149908  0  3.968134  0  0  -0.058457  -0.137312  0  3.933971  0
C  C65  1  0.94282466  0.22915211  0.19788513  1  0  -0.123366  0  3.694475  0  0  -0.141968  0  3.947635  0  0  -0.149881  0  3.968562  0  0  -0.058469  -0.137296  0  3.934418  0
C  C66  1  0.82074607  0.88996270  0.94463775  1  0  0.124344  0  3.554296  0  0  0.083576  0  3.800864  0  0  0.092163  0  3.814923  0  0  0.076465  0.077694  0  3.792002  0
C  C67  1  0.17924515  0.11003758  0.05536582  1  0  0.124264  0  3.55432  0  0  0.083485  0  3.800861  0  0  0.092042  0  3.814912  0  0  0.076368  0.077603  0  3.791999  0
C  C68  1  0.09878421  0.81402219  0.87986197  1  0  0.103333  0  3.595682  0  0  0.059023  0  3.849452  0  0  0.067464  0  3.864296  0  0  0.07057  0.053209  0  3.839992  0
C  C69  1  0.90120762  0.18597314  0.12014494  1  0  0.103488  0  3.595833  0  0  0.059191  0  3.849559  0  0  0.067639  0  3.864394  0  0  0.070617  0.053375  0  3.840096  0
C  C70  1  0.02533393  0.92555292  0.02714568  1  0  -0.042936  0  3.563974  0  0  -0.110062  0  3.82635  0  0  -0.10709  0  3.836  0  0  -0.045971  -0.11176  0  3.819577  0
C  C71  1  0.97466368  0.07445566  0.97284711  1  0  -0.042815  0  3.563959  0  0  -0.109931  0  3.82631  0  0  -0.10692  0  3.835927  0  0  -0.045939  -0.111652  0  3.819544  0
Br  Br72  1  0.64583074  0.96483759  0.22196659  1  0  -0.617203  0  0.840984  0  0  -0.56611  0  1.10252  0  0  -0.58568  0  1.079099  0  0  -0.296136  -0.551717  0  1.118525  0
Br  Br73  1  0.35418542  0.03515881  0.77802647  1  0  -0.617185  0  0.840774  0  0  -0.566123  0  1.102334  0  0  -0.5857  0  1.078922  0  0  -0.296163  -0.551739  0  1.118331  0
N  N74  1  0.74340156  0.71426224  0.51737534  1  0  -0.326378  0  3.257626  0  0  -0.248577  0  3.517456  0  0  -0.269002  0  3.538178  0  0  -0.32504  -0.234545  0  3.503081  0
N  N75  1  0.25659823  0.28573728  0.48262699  1  0  -0.326315  0  3.257602  0  0  -0.248527  0  3.517457  0  0  -0.268951  0  3.538176  0  0  -0.325018  -0.234495  0  3.503075  0
N  N76  1  0.98142649  0.87373338  0.94876633  1  0  0.008809  0  3.525522  0  0  0.104906  0  3.736116  0  0  0.091911  0  3.76204  0  0  -0.204306  0.113337  0  3.718837  0
N  N77  1  0.01856350  0.12627371  0.05123501  1  0  0.008819  0  3.525252  0  0  0.104901  0  3.735858  0  0  0.091895  0  3.761781  0  0  -0.204266  0.113343  0  3.718581  0
O  O78  1  0.25797075  0.83579116  0.28976797  1  0  -0.601022  0  1.869188  0  0  -0.561738  0  2.077036  0  0  -0.583635  0  2.069663  0  0  -0.336642  -0.54599  0  2.08154  0
O  O79  1  0.74202284  0.16421175  0.71022174  1  0  -0.601243  0  1.868709  0  0  -0.561834  0  2.076714  0  0  -0.583735  0  2.069347  0  0  -0.336696  -0.546084  0  2.081209  0
O  O80  1  0.38019212  0.75355766  0.46336013  1  0  -0.714233  0  2.027303  0  0  -0.636562  0  2.272117  0  0  -0.667157  0  2.258928  0  0  -0.352889  -0.614759  0  2.280165  0
O  O81  1  0.61983207  0.24643506  0.53667201  1  0  -0.714268  0  2.027762  0  0  -0.636463  0  2.27273  0  0  -0.667053  0  2.259541  0  0  -0.352784  -0.61467  0  2.280792  0
O  O82  1  0.67777780  0.62088805  0.21365740  1  0  -0.642777  0  1.937178  0  0  -0.576791  0  2.168328  0  0  -0.606278  0  2.157058  0  0  -0.349681  -0.556152  0  2.175336  0
O  O83  1  0.32220270  0.37911840  0.78633418  1  0  -0.642918  0  1.937063  0  0  -0.576917  0  2.168226  0  0  -0.606399  0  2.156943  0  0  -0.349652  -0.556285  0  2.175242  0
O  O84  1  0.91457091  0.64498721  0.23729189  1  0  -0.629762  0  1.900373  0  0  -0.579594  0  2.126573  0  0  -0.606169  0  2.11921  0  0  -0.338798  -0.560909  0  2.13094  0
O  O85  1  0.08545049  0.35501794  0.76270044  1  0  -0.629823  0  1.900424  0  0  -0.579652  0  2.126669  0  0  -0.606227  0  2.119299  0  0  -0.338712  -0.560971  0  2.13104  0
O  O86  1  0.69336544  0.47654605  0.49807904  1  0  -0.81982  0  1.843941  0  0  -0.769442  0  2.027588  0  0  -0.789071  0  1.999676  0  0  -0.580268  -0.755496  0  2.047101  0
O  O87  1  0.30664937  0.52345417  0.50191372  1  0  -0.819659  0  1.844005  0  0  -0.76926  0  2.027615  0  0  -0.788892  0  1.999709  0  0  -0.580213  -0.755314  0  2.047132  0
