# generated using pymatgen
data_CdH32C36S4(NO)6
_symmetry_space_group_name_H-M   'P 1'
_cell_length_a   10.39187920
_cell_length_b   12.03785115
_cell_length_c   12.54491738
_cell_angle_alpha   65.92916057
_cell_angle_beta   73.55830689
_cell_angle_gamma   77.34819537
_symmetry_Int_Tables_number   1
_chemical_formula_structural   CdH32C36S4(NO)6
_chemical_formula_sum   'Cd1 H32 C36 S4 N6 O6'
_cell_volume   1364.61307456
_cell_formula_units_Z   1
loop_
 _symmetry_equiv_pos_site_id
 _symmetry_equiv_pos_as_xyz
  1  'x, y, z'
loop_
 _atom_site_type_symbol
 _atom_site_label
 _atom_site_symmetry_multiplicity
 _atom_site_fract_x
 _atom_site_fract_y
 _atom_site_fract_z
 _atom_site_occupancy
 _atom_site_pbe_bader_charge
 _atom_site_pbe_bader_spin_density
 _atom_site_pbe_cm5_charge
 _atom_site_pbe_ddec_charge
 _atom_site_pbe_ddec_spin_density
 _atom_site_pbe_ddec_sum_bond_order
 _atom_site_pbe_magmom
Cd  Cd0  1  0.00000076  0.00000240  0.99999686  1  1.247717  0  0.777797  0.755983  0  2.2505  0
H  H1  1  0.30288800  0.49952810  0.80880951  1  0.089259  0  0.111518  0.134231  0  0.962641  0
H  H2  1  0.69711062  0.50047267  0.19118689  1  0.08925  0  0.111521  0.134283  0  0.962595  0
H  H3  1  0.39171062  0.59367055  0.66665285  1  0.020514  0  0.095007  0.101342  0  1.010906  0
H  H4  1  0.60830428  0.40633005  0.33335321  1  0.020216  0  0.095062  0.101351  0  1.010902  0
H  H5  1  0.37091263  0.29224195  0.90608804  1  0.103719  0  0.101556  0.108362  0  1.048252  0
H  H6  1  0.62908840  0.70775604  0.09391205  1  0.103704  0  0.10153  0.108283  0  1.048259  0
H  H7  1  0.50075760  0.09646930  0.89489005  1  0.1102  0  0.105421  0.10705  0  1.006378  0
H  H8  1  0.49923909  0.90353058  0.10510478  1  0.110206  0  0.105411  0.107048  0  1.006359  0
H  H9  1  0.68331898  0.09704559  0.71852369  1  0.117288  0  0.104404  0.11009  0  1.007148  0
H  H10  1  0.31667454  0.90295524  0.28146836  1  0.117344  0  0.104392  0.110045  0  1.007149  0
H  H11  1  0.74164091  0.29661472  0.55445582  1  0.05657  0  0.097569  0.100743  0  1.000349  0
H  H12  1  0.25835370  0.70338607  0.44554156  1  0.056525  0  0.097568  0.100725  0  1.000392  0
H  H13  1  0.55450496  0.60166675  0.53593183  1  0.07366  0  0.098056  0.109438  0  1.010911  0
H  H14  1  0.44549867  0.39833488  0.46406940  1  0.073665  0  0.098015  0.109381  0  1.010953  0
H  H15  1  0.65804125  0.51318672  0.45264733  1  0.084547  0  0.100189  0.112602  0  1.003199  0
H  H16  1  0.34195816  0.48681675  0.54735581  1  0.084484  0  0.100178  0.112559  0  1.003143  0
H  H17  1  0.10467695  0.83352519  0.24922197  1  0.120902  0  0.112836  0.088907  0  1.028415  0
H  H18  1  0.89531969  0.16647471  0.75076889  1  0.120756  0  0.112865  0.088946  0  1.028337  0
H  H19  1  0.03135818  0.67107328  0.44726786  1  0.100922  0  0.095312  0.098798  0  1.046921  0
H  H20  1  0.96864286  0.32893207  0.55272380  1  0.101017  0  0.095308  0.098822  0  1.046934  0
H  H21  1  0.64720760  0.71910185  0.35148113  1  0.076207  0  0.101466  0.110449  0  1.055024  0
H  H22  1  0.35278737  0.28089619  0.64851883  1  0.076294  0  0.101449  0.11044  0  1.054996  0
H  H23  1  0.73724111  0.87597064  0.16053004  1  0.095701  0  0.115525  0.081907  0  1.012673  0
H  H24  1  0.26275565  0.12402834  0.83946194  1  0.095436  0  0.115479  0.081872  0  1.012709  0
H  H25  1  0.29893206  0.85173010  0.04411135  1  0.120157  0  0.110933  0.085431  0  1.040355  0
H  H26  1  0.70107290  0.14827701  0.95588743  1  0.120253  0  0.110915  0.085401  0  1.040344  0
H  H27  1  0.47556307  0.70100095  0.98118996  1  0.128547  0  0.103087  0.116453  0  1.032596  0
H  H28  1  0.52443911  0.29899699  0.01881944  1  0.128701  0  0.103107  0.116493  0  1.03257  0
H  H29  1  0.05718763  0.85307972  0.83164649  1  0.126357  0  0.115073  0.086596  0  1.003838  0
H  H30  1  0.94281640  0.14691913  0.16835971  1  0.126365  0  0.115063  0.086578  0  1.003912  0
H  H31  1  0.21954378  0.70168468  0.76097731  1  0.066705  0  0.105902  0.115482  0  1.010471  0
H  H32  1  0.78046003  0.29830776  0.23903063  1  0.066446  0  0.105882  0.115446  0  1.010535  0
C  C33  1  0.40355424  0.52069358  0.75286367  1  -0.099053  0  -0.143022  -0.237699  0  3.959493  0
C  C34  1  0.59644855  0.47930711  0.24714131  1  -0.099112  0  -0.143058  -0.237823  0  3.959696  0
C  C35  1  0.48598596  0.40601398  0.73883709  1  0.010493  0  -0.020477  0.058809  0  3.956427  0
C  C36  1  0.51401902  0.59398488  0.26116568  1  0.010375  0  -0.020524  0.058795  0  3.956719  0
C  C37  1  0.45409860  0.29333991  0.82968353  1  -0.077368  0  -0.088933  -0.131935  0  3.961503  0
C  C38  1  0.54590380  0.70665531  0.17031970  1  -0.077198  0  -0.088858  -0.131777  0  3.961472  0
C  C39  1  0.52511678  0.18318437  0.82280627  1  -0.044976  0  -0.085797  -0.069927  0  3.989612  0
C  C40  1  0.47488022  0.81681365  0.17719400  1  -0.045081  0  -0.085837  -0.069996  0  3.989525  0
C  C41  1  0.62846827  0.18379632  0.72307264  1  -0.114188  0  -0.088809  -0.076309  0  4.011321  0
C  C42  1  0.37152846  0.81620354  0.27692458  1  -0.114042  0  -0.08878  -0.076226  0  4.011262  0
C  C43  1  0.66076401  0.29529901  0.63255863  1  -0.010863  0  -0.100043  -0.152584  0  4.009044  0
C  C44  1  0.33923478  0.70470083  0.36744129  1  -0.011073  0  -0.100021  -0.152512  0  4.009167  0
C  C45  1  0.59215139  0.40738536  0.63938315  1  -0.070406  0  -0.022444  0.058615  0  3.968876  0
C  C46  1  0.40785080  0.59261992  0.36061781  1  -0.070174  0  -0.022429  0.058501  0  3.969027  0
C  C47  1  0.63370959  0.52412708  0.53915761  1  -0.143783  0  -0.144407  -0.225921  0  3.944722  0
C  C48  1  0.36629099  0.47587458  0.46084197  1  -0.143722  0  -0.144316  -0.225689  0  3.944679  0
C  C49  1  0.00421061  0.80461233  0.27596419  1  0.552706  0  0.041026  0.10066  0  3.948045  0
C  C50  1  0.99578680  0.19538940  0.72402577  1  0.553262  0  0.040898  0.100372  0  3.948135  0
C  C51  1  0.96231345  0.71532572  0.38678031  1  -0.138664  0  -0.099177  -0.189724  0  3.98995  0
C  C52  1  0.03768312  0.28467507  0.61321340  1  -0.139322  0  -0.0991  -0.189555  0  3.989934  0
C  C53  1  0.83266979  0.67899430  0.41749917  1  -0.189876  0  0.004481  0.096654  0  4.0436  0
C  C54  1  0.16732571  0.32100740  0.58249764  1  -0.189384  0  0.00449  0.096569  0  4.043566  0
C  C55  1  0.74964345  0.73936636  0.33455904  1  0.062969  0  -0.097808  -0.187386  0  3.94991  0
C  C56  1  0.25035299  0.26063624  0.66544038  1  0.063058  0  -0.097831  -0.187376  0  3.949983  0
C  C57  1  0.80020132  0.82833586  0.22599360  1  0.483794  0  0.047061  0.116208  0  3.963689  0
C  C58  1  0.19979559  0.17166219  0.77400110  1  0.483939  0  0.047041  0.116125  0  3.963606  0
C  C59  1  0.28579096  0.81564429  0.98150467  1  0.496038  0  0.040954  0.09996  0  3.94264  0
C  C60  1  0.71421391  0.18435549  0.01849778  1  0.495709  0  0.040974  0.099954  0  3.94265  0
C  C61  1  0.38389459  0.73142231  0.94633313  1  -0.066328  0  -0.09171  -0.174659  0  3.94967  0
C  C62  1  0.61610506  0.26857196  0.05368070  1  -0.06587  0  -0.091721  -0.174687  0  3.949682  0
C  C63  1  0.36237534  0.68529422  0.86698285  1  -0.151816  0  0.007701  0.098081  0  4.047599  0
C  C64  1  0.63762095  0.31469458  0.13303232  1  -0.151819  0  0.007651  0.098033  0  4.04749  0
C  C65  1  0.15088391  0.81646198  0.86330070  1  0.496352  0  0.044132  0.109079  0  3.977814  0
C  C66  1  0.84911825  0.18353596  0.13670791  1  0.496368  0  0.044028  0.108779  0  3.97808  0
C  C67  1  0.24282489  0.73101507  0.82402961  1  -0.044536  0  -0.097399  -0.190929  0  3.969963  0
C  C68  1  0.75717866  0.26897186  0.17598532  1  -0.044768  0  -0.097294  -0.190681  0  3.969775  0
S  S69  1  0.78658954  0.56158358  0.55513259  1  0.111842  0  0.026341  0.024164  0  2.654564  0
S  S70  1  0.21341456  0.43842174  0.44486152  1  0.111797  0  0.026307  0.024114  0  2.654528  0
S  S71  1  0.48591543  0.57534200  0.82985534  1  0.131543  0  0.030312  0.028498  0  2.678537  0
S  S72  1  0.51408213  0.42464496  0.17016264  1  0.131755  0  0.030303  0.028564  0  2.678525  0
N  N73  1  0.21495861  0.12220928  0.06817279  1  0.812669  0  0.091792  0.717127  0  4.431586  0
N  N74  1  0.78503906  0.87779884  0.93181781  1  0.812217  0  0.091813  0.717205  0  4.431634  0
N  N75  1  0.92534440  0.86024665  0.19528972  1  -1.223462  0  -0.335823  -0.246035  0  3.500248  0
N  N76  1  0.07464955  0.13975052  0.80470205  1  -1.223787  0  -0.335713  -0.245755  0  3.499968  0
N  N77  1  0.16988718  0.85778625  0.94170622  1  -1.225606  0  -0.337764  -0.251442  0  3.509248  0
N  N78  1  0.83011645  0.14221537  0.05829501  1  -1.225542  0  -0.337705  -0.251281  0  3.509303  0
O  O79  1  0.16646248  0.02156565  0.09210895  1  -0.625267  0  -0.233364  -0.50984  0  2.043149  0
O  O80  1  0.83354606  0.97843510  0.90787707  1  -0.624746  0  -0.233387  -0.509913  0  2.043279  0
O  O81  1  0.15641645  0.22333006  0.01044372  1  -0.526942  0  -0.20747  -0.464125  0  1.90358  0
O  O82  1  0.84357352  0.77667535  0.98954901  1  -0.526819  0  -0.207442  -0.464127  0  1.903403  0
O  O83  1  0.31935711  0.11430497  0.10359684  1  -0.520363  0  -0.202105  -0.445233  0  1.886666  0
O  O84  1  0.68063839  0.88571320  0.89639516  1  -0.520565  0  -0.202135  -0.445261  0  1.886885  0
