# generated using pymatgen
data_Li2H8C5NO5
_symmetry_space_group_name_H-M   'P 1'
_cell_length_a   5.41939693
_cell_length_b   8.47705742
_cell_length_c   8.42393106
_cell_angle_alpha   89.73907727
_cell_angle_beta   93.49442280
_cell_angle_gamma   111.30754689
_symmetry_Int_Tables_number   1
_chemical_formula_structural   Li2H8C5NO5
_chemical_formula_sum   'Li4 H16 C10 N2 O10'
_cell_volume   359.81115298
_cell_formula_units_Z   2
loop_
 _symmetry_equiv_pos_site_id
 _symmetry_equiv_pos_as_xyz
  1  'x, y, z'
loop_
 _atom_site_type_symbol
 _atom_site_label
 _atom_site_symmetry_multiplicity
 _atom_site_fract_x
 _atom_site_fract_y
 _atom_site_fract_z
 _atom_site_occupancy
 _atom_site_pbe_bader_spin_density
 _atom_site_pbe_cm5_charge
 _atom_site_pbe_ddec_charge
 _atom_site_pbe_ddec_spin_density
 _atom_site_pbe_ddec_sum_bond_order
 _atom_site_pbe_magmom
Li  Li0  1  0.88433033  0.58373485  0.64445732  1  0  0.52142  0.779948  0  0.550451  0
Li  Li1  1  0.11570980  0.41625297  0.35552723  1  0  0.521475  0.779985  0  0.550477  0
Li  Li2  1  0.89352526  0.19134097  0.59021425  1  0  0.500881  0.822834  0  0.491551  0
Li  Li3  1  0.10646284  0.80865712  0.40977667  1  0  0.50092  0.822813  0  0.491596  0
H  H4  1  0.51222003  0.28077975  0.62266001  1  0  0.303506  0.382965  0  0.964671  0
H  H5  1  0.48778278  0.71922455  0.37734572  1  0  0.303431  0.38297  0  0.964668  0
H  H6  1  0.36730100  0.13792334  0.50069093  1  0  0.313744  0.392969  0  0.937094  0
H  H7  1  0.63267064  0.86209411  0.49929797  1  0  0.313749  0.393057  0  0.936982  0
H  H8  1  0.51615984  0.66959526  0.91349823  1  0  0.112215  0.10808  0  0.975045  0
H  H9  1  0.48387012  0.33044796  0.08652382  1  0  0.112115  0.107825  0  0.975238  0
H  H10  1  0.47918045  0.77448145  0.73650198  1  0  0.134245  0.124271  0  1.004843  0
H  H11  1  0.52078850  0.22551045  0.26350254  1  0  0.134204  0.124143  0  1.00491  0
H  H12  1  0.36809361  0.95140067  0.87780700  1  0  0.11798  0.117658  0  0.974386  0
H  H13  1  0.63187064  0.04857927  0.12218033  1  0  0.117867  0.117516  0  0.974384  0
H  H14  1  0.07974485  0.88700816  0.98450307  1  0  0.115834  0.121258  0  1.023067  0
H  H15  1  0.92024380  0.11298024  0.01548155  1  0  0.115783  0.121139  0  1.023103  0
H  H16  1  0.87718162  0.62998278  0.04361720  1  0  0.113351  0.084455  0  1.003736  0
H  H17  1  0.12277511  0.37003014  0.95637833  1  0  0.113438  0.084708  0  1.003796  0
H  H18  1  0.20160688  0.64104059  0.10603227  1  0  0.112043  0.078115  0  0.999353  0
H  H19  1  0.79840569  0.35898192  0.89399456  1  0  0.112059  0.078159  0  0.999866  0
C  C20  1  0.37613774  0.66712402  0.81147114  1  0  -0.059334  -0.241272  0  3.92524  0
C  C21  1  0.62391535  0.33288080  0.18853691  1  0  -0.059008  -0.240498  0  3.924539  0
C  C22  1  0.15884370  0.86438404  0.87325116  1  0  -0.065116  -0.235937  0  3.885396  0
C  C23  1  0.84111799  0.13567100  0.12671991  1  0  -0.065115  -0.235957  0  3.88543  0
C  C24  1  0.01775097  0.92195344  0.73537929  1  0  0.227617  0.6605  0  4.174808  0
C  C25  1  0.98223331  0.07800895  0.26463159  1  0  0.227543  0.660383  0  4.173696  0
C  C26  1  0.04392930  0.59600367  0.00914577  1  0  -0.057858  -0.082402  0  3.905189  0
C  C27  1  0.95601591  0.40392921  0.99085126  1  0  -0.057893  -0.082625  0  3.907119  0
C  C28  1  0.33125862  0.51028153  0.70795210  1  0  0.24595  0.664708  0  4.152191  0
C  C29  1  0.66881012  0.48971910  0.29208347  1  0  0.245862  0.664617  0  4.151852  0
N  N30  1  0.13384187  0.68563673  0.86050530  1  0  -0.388697  -0.156528  0  3.537012  0
N  N31  1  0.86621768  0.31440725  0.13945921  1  0  -0.38878  -0.156428  0  3.538708  0
O  O32  1  0.10550583  0.43958157  0.63348066  1  0  -0.416232  -0.726561  0  2.253595  0
O  O33  1  0.89454115  0.56039559  0.36652978  1  0  -0.416236  -0.726404  0  2.253798  0
O  O34  1  0.52812684  0.46473685  0.69818311  1  0  -0.369008  -0.63642  0  2.260581  0
O  O35  1  0.47189508  0.53528006  0.30186985  1  0  -0.368956  -0.636674  0  2.260335  0
O  O36  1  0.98059266  0.05872805  0.75345878  1  0  -0.388593  -0.640418  0  2.152064  0
O  O37  1  0.01934525  0.94121760  0.24652194  1  0  -0.38858  -0.640263  0  2.152037  0
O  O38  1  0.94299375  0.82683382  0.60948892  1  0  -0.433925  -0.762299  0  2.284771  0
O  O39  1  0.05702212  0.17317489  0.39051132  1  0  -0.433858  -0.76233  0  2.284348  0
O  O40  1  0.53036335  0.17995761  0.57076349  1  0  -0.640031  -0.85599  0  1.948946  0
O  O41  1  0.46962200  0.82005067  0.42921824  1  0  -0.64001  -0.856069  0  1.949012  0
