# generated using pymatgen
data_CuH22C26(N6O7)2
_symmetry_space_group_name_H-M   'P 1'
_cell_length_a   10.13845420
_cell_length_b   11.45053601
_cell_length_c   14.75394216
_cell_angle_alpha   75.08864709
_cell_angle_beta   89.78155201
_cell_angle_gamma   70.81332620
_symmetry_Int_Tables_number   1
_chemical_formula_structural   CuH22C26(N6O7)2
_chemical_formula_sum   'Cu2 H44 C52 N24 O28'
_cell_volume   1557.04903075
_cell_formula_units_Z   2
loop_
 _symmetry_equiv_pos_site_id
 _symmetry_equiv_pos_as_xyz
  1  'x, y, z'
loop_
 _atom_site_type_symbol
 _atom_site_label
 _atom_site_symmetry_multiplicity
 _atom_site_fract_x
 _atom_site_fract_y
 _atom_site_fract_z
 _atom_site_occupancy
 _atom_site_pbe_bader_charge
 _atom_site_pbe_bader_spin_density
 _atom_site_pbe_cm5_charge
 _atom_site_pbe_ddec_charge
 _atom_site_pbe_ddec_spin_density
 _atom_site_pbe_ddec_sum_bond_order
 _atom_site_pbe_magmom
Cu  Cu0  1  0.31927516  0.07897381  0.92510165  1  1.085488  -0.567709  0.758785  0.794839  -0.748115  2.198203  -0.566
Cu  Cu1  1  0.68071308  0.92102843  0.07489781  1  1.085518  0.567723  0.758849  0.794922  0.748129  2.198364  0.566
H  H2  1  0.43823425  0.38777583  0.65631322  1  0.200973  -0.000585  0.154484  0.139808  -0.000324  0.962259  0.0
H  H3  1  0.56176812  0.61222555  0.34368564  1  0.201002  0.000585  0.154478  0.139765  0.000324  0.96236  0.0
H  H4  1  0.57912800  0.98937839  0.79361545  1  0.189381  2.1e-05  0.144389  0.122459  0.000114  1.023755  0.0
H  H5  1  0.42086810  0.01062390  0.20638259  1  0.18931  -2.1e-05  0.144397  0.122498  -0.000114  1.023868  0.0
H  H6  1  0.66445868  0.29382568  0.38702453  1  0.060771  -3e-06  0.089045  0.096829  -1e-06  1.007216  0.0
H  H7  1  0.33554583  0.70616994  0.61297208  1  0.060764  3e-06  0.089033  0.096819  1e-06  1.007232  0.0
H  H8  1  0.77873133  0.27531391  0.48404484  1  0.058935  -1.3e-05  0.084841  0.082883  -1e-05  1.031428  0.0
H  H9  1  0.22127148  0.72468362  0.51595207  1  0.05911  1.3e-05  0.084828  0.082839  1e-05  1.031459  0.0
H  H10  1  0.90643269  0.25941881  0.34071872  1  0.033798  1e-06  0.087275  0.086131  -0.0  1.000676  0.0
H  H11  1  0.09357095  0.74057391  0.65927916  1  0.033725  -1e-06  0.087255  0.086089  0.0  1.00068  0.0
H  H12  1  0.97171008  0.11538927  0.43265980  1  0.005991  2e-06  0.088235  0.081789  1e-06  1.010988  0.0
H  H13  1  0.02829384  0.88460538  0.56733972  1  0.005932  -2e-06  0.08824  0.081793  -1e-06  1.011004  0.0
H  H14  1  0.76356866  0.16640750  0.26530024  1  0.034823  -7e-06  0.101374  0.088003  9e-06  1.005062  0.0
H  H15  1  0.23643598  0.83358522  0.73469966  1  0.034749  7e-06  0.10141  0.087987  -9e-06  1.005071  0.0
H  H16  1  0.88992166  0.91783328  0.42247802  1  0.036391  -4e-06  0.090938  0.092272  -2e-06  0.98965  0.0
H  H17  1  0.11007773  0.08216037  0.57752445  1  0.036177  4e-06  0.090937  0.092203  2e-06  0.989668  0.0
H  H18  1  0.77572346  0.94182941  0.32380398  1  0.026836  -1.8e-05  0.091314  0.095807  -1.4e-05  0.98344  0.0
H  H19  1  0.22427851  0.05816523  0.67619760  1  0.026658  1.8e-05  0.091288  0.095796  1.3e-05  0.983417  0.0
H  H20  1  0.84169965  0.07778839  0.14994193  1  0.550385  -3.9e-05  0.319457  0.288516  -5.7e-05  1.015108  0.0
H  H21  1  0.15829662  0.92221102  0.85006347  1  0.550397  3.9e-05  0.319446  0.28846  5.7e-05  1.015191  0.0
H  H22  1  0.58451081  0.10297831  0.37781592  1  0.034499  -5e-06  0.085775  0.084631  -4e-06  1.006441  0.0
H  H23  1  0.41548965  0.89702017  0.62217879  1  0.03457  5e-06  0.085752  0.084578  4e-06  1.006429  0.0
H  H24  1  0.64660652  0.95751491  0.46757315  1  0.075009  3e-06  0.094354  0.106477  2e-06  1.008348  0.0
H  H25  1  0.35339238  0.04248259  0.53242583  1  0.075013  -3e-06  0.09436  0.106476  -2e-06  1.008327  0.0
H  H26  1  0.73586812  0.09932356  0.66686604  1  0.538959  2.5e-05  0.315863  0.278805  7e-06  1.028435  0.0
H  H27  1  0.26412671  0.90067680  0.33312901  1  0.538905  -2.5e-05  0.315855  0.278757  -7e-06  1.028418  0.0
H  H28  1  0.08875096  0.80901349  0.15179614  1  0.202418  -0.000466  0.144684  0.133112  -0.000135  0.999776  0.0
H  H29  1  0.91124797  0.19098401  0.84820555  1  0.2025  0.000465  0.144664  0.133097  0.000135  0.999735  0.0
H  H30  1  0.08615137  0.19237619  0.05608368  1  0.222435  -0.000194  0.151493  0.146466  -4.4e-05  1.008211  0.0
H  H31  1  0.91384310  0.80761743  0.94391882  1  0.222335  0.000194  0.151493  0.146381  4.4e-05  1.00824  0.0
H  H32  1  0.46985689  0.71267817  0.78314652  1  0.144172  -7.4e-05  0.121589  0.132597  -2.8e-05  1.011629  0.0
H  H33  1  0.53014671  0.28731744  0.21685755  1  0.144057  7.4e-05  0.121613  0.132599  2.8e-05  1.011636  0.0
H  H34  1  0.75276734  0.34539247  0.94639630  1  0.203633  1.4e-05  0.12312  0.136795  8e-06  1.026066  0.0
H  H35  1  0.24723984  0.65460412  0.05360823  1  0.203692  -1.4e-05  0.123121  0.136766  -8e-06  1.02612  0.0
H  H36  1  0.60882899  0.66162919  0.07207887  1  0.178857  -0.00027  0.119985  0.126294  -0.00025  1.030439  0.0
H  H37  1  0.39116591  0.33837117  0.92792431  1  0.178914  0.00027  0.120006  0.126353  0.00025  1.030407  0.0
H  H38  1  0.04735134  0.30404984  0.69853088  1  0.164857  -0.000345  0.123158  0.137914  -0.000303  0.994104  0.0
H  H39  1  0.95265090  0.69594672  0.30147166  1  0.164882  0.000345  0.123163  0.137891  0.000303  0.994135  0.0
H  H40  1  0.74648875  0.68383700  0.57888263  1  0.207107  2e-06  0.133074  0.161909  -1e-06  1.007228  0.0
H  H41  1  0.25352136  0.31615673  0.42110890  1  0.207203  -2e-06  0.133071  0.161905  1e-06  1.007239  0.0
H  H42  1  0.94045913  0.57765952  0.86344789  1  0.177132  -5.3e-05  0.120568  0.139651  9e-06  1.005815  0.0
H  H43  1  0.05953723  0.42235242  0.13654414  1  0.17728  5.3e-05  0.120554  0.139665  -9e-06  1.005806  0.0
H  H44  1  0.80023982  0.04489600  0.54235423  1  0.052126  1e-06  0.101442  0.083968  2e-06  1.007451  0.0
H  H45  1  0.19975504  0.95510436  0.45764421  1  0.052072  -1e-06  0.101431  0.08393  -2e-06  1.007476  0.0
C  C46  1  0.44659055  0.29748691  0.70659432  1  1.003585  -0.002479  0.168387  0.070347  -0.002179  3.885969  -0.003
C  C47  1  0.55341111  0.70251639  0.29340551  1  1.003825  0.002479  0.168388  0.070494  0.002179  3.886095  0.003
C  C48  1  0.51903342  0.09119061  0.77701969  1  1.01082  -0.000519  0.168919  0.076879  -0.001205  3.836644  -0.002
C  C49  1  0.48096195  0.90881361  0.22297728  1  1.011204  0.000518  0.169022  0.076983  0.001204  3.836394  0.002
C  C50  1  0.58938120  0.15899373  0.54908706  1  1.368947  -0.000198  0.252925  0.502671  -0.000184  4.050536  0.0
C  C51  1  0.41061355  0.84100952  0.45091080  1  1.368819  0.000198  0.252954  0.502506  0.000184  4.050472  0.0
C  C52  1  0.75323860  0.22468290  0.43648679  1  -0.049974  -1e-05  -0.166679  -0.161699  -8e-06  3.896291  0.0
C  C53  1  0.24676423  0.77531463  0.56351148  1  -0.050211  1e-05  -0.166658  -0.161702  8e-06  3.896322  0.0
C  C54  1  0.87996765  0.17721482  0.38289350  1  0.014531  -2.5e-05  -0.166437  -0.154719  -1.6e-05  3.92885  0.0
C  C55  1  0.12003403  0.82277789  0.61710507  1  0.01484  2.5e-05  -0.166428  -0.15468  1.6e-05  3.92884  0.0
C  C56  1  0.84976128  0.10167411  0.31843172  1  0.05243  -3.5e-05  -0.089337  -0.112685  -1.9e-05  3.882185  0.0
C  C57  1  0.15024043  0.89831859  0.68157024  1  0.052518  3.5e-05  -0.089373  -0.112637  1.9e-05  3.882004  0.0
C  C58  1  0.80242066  0.98991809  0.37304800  1  -0.022067  -6e-05  -0.158963  -0.150097  -4.1e-05  3.879653  0.0
C  C59  1  0.19758166  0.01007558  0.62695308  1  -0.021723  6e-05  -0.15898  -0.150106  4.1e-05  3.879609  0.0
C  C60  1  0.67608485  0.03869844  0.42707408  1  -0.028274  -6.3e-05  -0.166254  -0.161762  -4.5e-05  3.904484  0.0
C  C61  1  0.32391235  0.96130097  0.57292588  1  -0.028294  6.3e-05  -0.166185  -0.161642  4.5e-05  3.904313  0.0
C  C62  1  0.11834986  0.89024649  0.11494633  1  0.962025  -0.002477  0.162535  0.066375  -0.002168  3.88856  -0.003
C  C63  1  0.88164989  0.10974620  0.88505700  1  0.961666  0.002476  0.162501  0.066357  0.002167  3.88846  0.003
C  C64  1  0.11361696  0.08960592  0.06641959  1  1.007962  -2.7e-05  0.171984  0.073704  -0.000879  3.842238  -0.002
C  C65  1  0.88637454  0.91038767  0.93358158  1  1.007787  2.8e-05  0.172028  0.073884  0.000879  3.842053  0.002
C  C66  1  0.44282647  0.84102393  0.91378870  1  1.572242  0.001856  0.206195  0.571623  0.000434  4.210379  0.004
C  C67  1  0.55716728  0.15898220  0.08621807  1  1.572267  -0.001855  0.20638  0.57218  -0.000433  4.20996  -0.004
C  C68  1  0.53077169  0.70339960  0.92581280  1  0.058421  -0.007479  -0.001603  0.004299  -0.005354  3.923003  -0.006
C  C69  1  0.46922462  0.29660751  0.07419105  1  0.058569  0.007478  -0.001576  0.004209  0.005353  3.923245  0.006
C  C70  1  0.53151621  0.65302366  0.84893764  1  -0.03078  -0.001607  -0.065863  -0.132007  -0.001029  3.927455  -0.001
C  C71  1  0.46848509  0.34697290  0.15106965  1  -0.03081  0.001609  -0.065904  -0.131925  0.00103  3.927552  0.001
C  C72  1  0.61276792  0.52603716  0.85693111  1  0.228283  -0.000658  0.075089  0.064832  -0.000443  3.958563  0.0
C  C73  1  0.38723140  0.47395938  0.14307485  1  0.228061  0.000658  0.075119  0.064796  0.000442  3.958588  0.0
C  C74  1  0.69216962  0.44548739  0.94013415  1  -0.00412  -0.000241  -0.060623  -0.14918  -0.000155  3.907356  0.0
C  C75  1  0.30783399  0.55450822  0.05987060  1  -0.003554  0.000243  -0.060614  -0.149146  0.000156  3.907351  0.0
C  C76  1  0.68623444  0.49826752  0.01562567  1  0.237881  -0.000222  0.087893  0.085261  -0.000121  3.916706  0.0
C  C77  1  0.31376881  0.50172905  0.98437957  1  0.237259  0.000223  0.087989  0.085395  0.000121  3.9166  0.0
C  C78  1  0.60810357  0.62560883  0.01066456  1  0.04448  0.000144  -0.04515  -0.078302  -2.1e-05  3.848757  0.0
C  C79  1  0.39189222  0.37439443  0.98933871  1  0.0445  -0.000144  -0.045253  -0.078497  2.1e-05  3.848837  0.0
C  C80  1  0.09871079  0.32958014  0.87302731  1  1.595102  -0.000462  0.202994  0.558192  -0.001915  4.242576  0.002
C  C81  1  0.90128695  0.67042313  0.12697391  1  1.59474  0.000461  0.20295  0.558204  0.001915  4.243006  -0.002
C  C82  1  0.00438282  0.42974745  0.79010122  1  0.010419  -0.010614  -0.00668  -0.003385  -0.007439  3.916828  -0.008
C  C83  1  0.99561638  0.57025968  0.20989582  1  0.009864  0.01061  -0.006737  -0.003453  0.007436  3.916935  0.008
C  C84  1  0.98900962  0.39905580  0.70586462  1  0.030212  -0.000419  -0.052055  -0.095622  -0.000371  3.875434  0.0
C  C85  1  0.01099568  0.60094560  0.29413150  1  0.031004  0.000419  -0.052018  -0.095489  0.000371  3.875624  0.0
C  C86  1  0.89693829  0.49073694  0.63181849  1  0.1471  1e-06  0.079828  0.070955  5.8e-05  3.930111  0.0
C  C87  1  0.10306345  0.50926347  0.36817921  1  0.146717  -1e-06  0.079761  0.070824  -5.8e-05  3.930086  0.0
C  C88  1  0.82058055  0.61427430  0.63677029  1  0.114158  -0.000592  -0.053603  -0.14054  -0.000389  3.880591  0.0
C  C89  1  0.17942831  0.38572809  0.36322493  1  0.114137  0.000592  -0.053477  -0.14042  0.000389  3.880357  0.0
C  C90  1  0.84081353  0.64229330  0.72117161  1  0.188486  -0.000759  0.079783  0.065363  -0.000496  3.926813  -0.001
C  C91  1  0.15918714  0.35771770  0.27882125  1  0.18832  0.000759  0.079802  0.065474  0.000496  3.926567  0.001
C  C92  1  0.92993945  0.55284239  0.79799873  1  -0.000635  -0.002556  -0.057646  -0.114618  -0.001678  3.888033  -0.002
C  C93  1  0.07006070  0.44716475  0.20199491  1  -0.000565  0.002557  -0.057653  -0.114737  0.001678  3.887878  0.002
C  C94  1  0.97607098  0.05191684  0.26709403  1  1.359591  -0.00024  0.260704  0.508308  -0.000194  4.058331  0.0
C  C95  1  0.02392981  0.94808356  0.73290774  1  1.359633  0.00024  0.260688  0.50823  0.000194  4.058177  0.0
C  C96  1  0.71033926  0.11128486  0.49233073  1  0.006203  -0.000109  -0.088844  -0.110159  -8.1e-05  3.885564  0.0
C  C97  1  0.28965951  0.88871553  0.50766564  1  0.006303  0.000109  -0.088831  -0.109979  8.1e-05  3.88529  0.0
N  N98  1  0.21320917  0.01679761  0.02705086  1  -0.766318  -0.06974  -0.267173  -0.191151  -0.048929  3.610175  -0.061
N  N99  1  0.78678295  0.98319696  0.97295012  1  -0.766138  0.06973  -0.267221  -0.19118  0.048923  3.6103  0.061
N  N100  1  0.41820471  0.15142570  0.82275303  1  -0.741716  -0.07159  -0.265591  -0.180327  -0.049937  3.604924  -0.062
N  N101  1  0.58179129  0.84857949  0.17724443  1  -0.741784  0.071599  -0.265654  -0.180368  0.049941  3.604734  0.062
N  N102  1  0.61519328  0.47613404  0.77432075  1  0.372026  -0.00019  0.059002  0.512686  -0.000113  4.202349  0.0
N  N103  1  0.38480860  0.52386349  0.22568159  1  0.371697  0.00019  0.058987  0.512649  0.000113  4.202396  0.0
N  N104  1  0.76778793  0.41638707  0.10473713  1  0.379598  -9.4e-05  0.059186  0.519465  -4.6e-05  4.189459  0.0
N  N105  1  0.23221167  0.58361139  0.89526979  1  0.379545  9.4e-05  0.059143  0.519548  4.7e-05  4.189144  0.0
N  N106  1  0.75858915  0.77043120  0.73069660  1  0.382329  -0.000275  0.057566  0.511637  -0.00017  4.189123  0.0
N  N107  1  0.24141764  0.22958177  0.26929176  1  0.382337  0.000275  0.057455  0.511503  0.00017  4.189223  0.0
N  N108  1  0.21713411  0.89079905  0.05712133  1  -0.687995  -0.007007  -0.227282  -0.190537  -0.004445  3.204695  -0.004
N  N109  1  0.78286563  0.10919364  0.94288065  1  -0.687976  0.007004  -0.227282  -0.190584  0.004443  3.204695  0.004
N  N110  1  0.05045918  0.01235239  0.12203905  1  -0.873681  -0.001317  -0.127462  0.167625  -0.000847  3.772545  -0.001
N  N111  1  0.94953628  0.98764123  0.87796481  1  -0.873422  0.001317  -0.127379  0.167614  0.000848  3.772669  0.001
N  N112  1  0.94453121  0.04815026  0.17819672  1  -0.830362  -0.001709  -0.301916  -0.322991  -0.001096  3.522417  -0.001
N  N113  1  0.05546514  0.95184626  0.82180723  1  -0.830342  0.001709  -0.301951  -0.322978  0.001096  3.522719  0.001
N  N114  1  0.63585449  0.15778319  0.63810104  1  -0.799477  -0.001672  -0.313737  -0.351061  -0.001072  3.472673  -0.001
N  N115  1  0.36414418  0.84222009  0.36189407  1  -0.799442  0.001671  -0.31372  -0.350877  0.001072  3.472639  0.001
N  N116  1  0.54019000  0.18116995  0.70345199  1  -0.892477  -0.001338  -0.123902  0.174036  -0.00084  3.788838  -0.001
N  N117  1  0.45980967  0.81883334  0.29654582  1  -0.89326  0.001338  -0.124026  0.173789  0.00084  3.78887  0.001
N  N118  1  0.87809611  0.45363877  0.54527469  1  0.341811  -6e-05  0.058487  0.50616  -3.1e-05  4.199077  0.0
N  N119  1  0.12191299  0.54635784  0.45472440  1  0.341103  6e-05  0.058442  0.506235  3.1e-05  4.198916  0.0
N  N120  1  0.37140594  0.28116153  0.77861007  1  -0.709362  -0.008128  -0.216749  -0.176184  -0.005083  3.208304  -0.005
N  N121  1  0.62859400  0.71884368  0.22138803  1  -0.709116  0.008128  -0.216755  -0.176232  0.005083  3.208402  0.005
O  O122  1  0.14267890  0.21494325  0.86125503  1  -1.115401  -0.120411  -0.333696  -0.574838  -0.07871  2.400243  -0.108
O  O123  1  0.85731351  0.78506094  0.13874129  1  -1.115563  0.120411  -0.333716  -0.574868  0.07871  2.400289  0.108
O  O124  1  0.48120008  0.90472572  0.96194617  1  -1.105873  -0.102841  -0.307775  -0.543424  -0.068061  2.353448  -0.092
O  O125  1  0.51879956  0.09526504  0.03807314  1  -1.105875  0.102835  -0.307895  -0.543723  0.068057  2.353423  0.092
O  O126  1  0.78925189  0.53221786  0.48210421  1  -0.423574  4e-06  -0.115837  -0.313676  -1e-06  1.931991  0.0
O  O127  1  0.21075408  0.46778450  0.51789781  1  -0.422962  -4e-06  -0.115815  -0.313706  1e-06  1.931868  0.0
O  O128  1  0.95350540  0.34511923  0.54113928  1  -0.450868  -4.8e-05  -0.122662  -0.327877  -6e-06  1.946199  0.0
O  O129  1  0.04650038  0.65487832  0.45885896  1  -0.450728  4.8e-05  -0.122644  -0.327916  6e-06  1.946186  0.0
O  O130  1  0.12370794  0.36088422  0.94422185  1  -1.156534  -0.005021  -0.315777  -0.529688  -0.0029  2.15045  -0.004
O  O131  1  0.87628153  0.63913055  0.05577914  1  -1.156285  0.005019  -0.315692  -0.529662  0.002899  2.150763  0.004
O  O132  1  0.68616763  0.85107582  0.66054905  1  -0.451922  -0.000455  -0.101849  -0.300677  -0.000294  1.970951  0.0
O  O133  1  0.31385369  0.14894303  0.33943532  1  -0.451576  0.000455  -0.101634  -0.300431  0.000294  1.970995  0.0
O  O134  1  0.76371888  0.78950835  0.80972069  1  -0.477189  1e-06  -0.12323  -0.337415  1e-06  1.997893  0.0
O  O135  1  0.23627695  0.21049972  0.19027009  1  -0.477403  -1e-06  -0.123367  -0.337606  -1e-06  1.997955  0.0
O  O136  1  0.33680369  0.88865447  0.85474650  1  -1.183281  -0.000839  -0.315306  -0.571581  -0.000329  2.272308  -0.002
O  O137  1  0.66319217  0.11134590  0.14525396  1  -1.183313  0.000839  -0.3154  -0.571877  0.000328  2.272373  0.002
O  O138  1  0.09894758  0.01620569  0.30125861  1  -1.181295  -0.000599  -0.29064  -0.501249  -0.000381  2.250437  -0.001
O  O139  1  0.90105024  0.98379469  0.69874048  1  -1.181265  0.000599  -0.290627  -0.501184  0.000381  2.25026  0.001
O  O140  1  0.46432113  0.20048307  0.52117974  1  -1.143311  -0.000378  -0.282912  -0.467712  -0.000229  2.142601  0.0
O  O141  1  0.53567723  0.79952117  0.47882196  1  -1.143226  0.000378  -0.282914  -0.467658  0.00023  2.142412  0.0
O  O142  1  0.54194032  0.54894742  0.70165807  1  -0.467074  -0.000106  -0.109909  -0.317246  -6.2e-05  1.974506  0.0
O  O143  1  0.45806237  0.45105588  0.29834649  1  -0.466828  0.000106  -0.109938  -0.317277  6.2e-05  1.974502  0.0
O  O144  1  0.69195638  0.36384281  0.78163869  1  -0.459972  -0.000257  -0.12793  -0.34765  -0.000153  2.009408  0.0
O  O145  1  0.30804671  0.63615665  0.21835987  1  -0.459912  0.000258  -0.127901  -0.347606  0.000153  2.009375  0.0
O  O146  1  0.87330891  0.32486893  0.10070319  1  -0.480383  -2.1e-05  -0.120096  -0.331807  -1.7e-05  1.99612  0.0
O  O147  1  0.12669143  0.67512762  0.89930682  1  -0.480167  2.1e-05  -0.120015  -0.331806  1.6e-05  1.996065  0.0
O  O148  1  0.72612886  0.44323386  0.17822151  1  -0.439706  -9e-05  -0.105556  -0.306451  -2.8e-05  1.966477  0.0
O  O149  1  0.27387026  0.55676846  0.82178396  1  -0.439734  9e-05  -0.105612  -0.30655  2.8e-05  1.966306  0.0
