# generated using pymatgen
data_Na3H49C35S7O24
_symmetry_space_group_name_H-M   'P 1'
_cell_length_a   9.82709987
_cell_length_b   16.08116145
_cell_length_c   16.22988521
_cell_angle_alpha   96.17899876
_cell_angle_beta   102.48622098
_cell_angle_gamma   97.34056747
_symmetry_Int_Tables_number   1
_chemical_formula_structural   Na3H49C35S7O24
_chemical_formula_sum   'Na6 H98 C70 S14 O48'
_cell_volume   2459.29315551
_cell_formula_units_Z   2
loop_
 _symmetry_equiv_pos_site_id
 _symmetry_equiv_pos_as_xyz
  1  'x, y, z'
loop_
 _atom_site_type_symbol
 _atom_site_label
 _atom_site_symmetry_multiplicity
 _atom_site_fract_x
 _atom_site_fract_y
 _atom_site_fract_z
 _atom_site_occupancy
 _atom_site_pbe_bader_charge
 _atom_site_pbe_bader_spin_density
 _atom_site_pbe_cm5_charge
 _atom_site_pbe_ddec_charge
 _atom_site_pbe_ddec_spin_density
 _atom_site_pbe_ddec_sum_bond_order
 _atom_site_pbe_magmom
Na  Na0  1  0.89769136  0.05734600  0.54490660  1  0.889227  0  0.636866  0.854614  0  0.505349  0
Na  Na1  1  0.10229740  0.94265750  0.45509185  1  0.889213  0  0.636859  0.854587  0  0.505379  0
Na  Na2  1  0.52909124  0.89824023  0.45787869  1  0.880755  0  0.6339  0.833517  0  0.547667  0
Na  Na3  1  0.47090650  0.10175707  0.54212404  1  0.880762  0  0.633895  0.833516  0  0.547663  0
Na  Na4  1  0.73075319  0.84708932  0.13934202  1  0.890349  0  0.664737  0.858225  0  0.550943  0
Na  Na5  1  0.26924601  0.15291427  0.86065780  1  0.890371  0  0.664732  0.858238  0  0.55094  0
H  H6  1  0.25599700  0.48556844  0.81600027  1  0.093818  0  0.108918  0.115922  0  1.030181  0
H  H7  1  0.74400670  0.51443206  0.18400292  1  0.093761  0  0.108896  0.115911  0  1.03015  0
H  H8  1  0.65567635  0.39607728  0.83238228  1  0.131128  0  0.111527  0.125624  0  1.006105  0
H  H9  1  0.34432984  0.60392948  0.16761505  1  0.131106  0  0.111568  0.125684  0  1.006058  0
H  H10  1  0.03642662  0.74898341  0.75045419  1  0.135773  0  0.105113  0.119717  0  1.049917  0
H  H11  1  0.96357629  0.25101385  0.24954243  1  0.135842  0  0.105095  0.119711  0  1.049944  0
H  H12  1  0.86773267  0.49780509  0.78814653  1  0.141622  0  0.106446  0.121527  0  1.038764  0
H  H13  1  0.13226593  0.50219595  0.21185111  1  0.141615  0  0.106456  0.121563  0  1.03873  0
H  H14  1  0.70918326  0.06347732  0.87983135  1  0.13283  0  0.111206  0.124859  0  1.00734  0
H  H15  1  0.29081937  0.93652313  0.12016738  1  0.13283  0  0.111217  0.124899  0  1.007303  0
H  H16  1  0.06002508  0.95905923  0.81165083  1  0.122074  0  0.116151  0.124362  0  1.003726  0
H  H17  1  0.93998442  0.04094825  0.18835130  1  0.122372  0  0.116184  0.124409  0  1.003707  0
H  H18  1  0.48807719  0.95157186  0.83100436  1  0.135661  0  0.111868  0.122056  0  1.026017  0
H  H19  1  0.51192379  0.04843046  0.16899371  1  0.135746  0  0.111839  0.12203  0  1.025952  0
H  H20  1  0.26166047  0.69658432  0.77082239  1  0.096388  0  0.109606  0.113812  0  1.029097  0
H  H21  1  0.73834140  0.30341737  0.22917513  1  0.096389  0  0.109563  0.113784  0  1.029095  0
H  H22  1  0.04665503  0.47272461  0.70507626  1  0.040866  0  0.08569  0.12645  0  1.022941  0
H  H23  1  0.95334759  0.52727582  0.29492123  1  0.040822  0  0.085671  0.126354  0  1.023002  0
H  H24  1  0.17054775  0.56317997  0.70279894  1  0.02258  0  0.079941  0.1101  0  1.035433  0
H  H25  1  0.82944576  0.43682162  0.29719563  1  0.022557  0  0.079907  0.110044  0  1.03542  0
H  H26  1  0.07342358  0.50044236  0.60632200  1  0.037482  0  0.08978  0.124852  0  1.004171  0
H  H27  1  0.92657561  0.49955678  0.39367554  1  0.037565  0  0.089774  0.124827  0  1.004188  0
H  H28  1  0.81578558  0.49458068  0.55995176  1  0.037078  0  0.089098  0.121788  0  1.022226  0
H  H29  1  0.18420292  0.50540835  0.44005083  1  0.037177  0  0.089061  0.121816  0  1.022218  0
H  H30  1  0.72181191  0.56292784  0.61022814  1  0.037719  0  0.087139  0.125301  0  1.035122  0
H  H31  1  0.27817808  0.43706311  0.38977544  1  0.037911  0  0.087209  0.125396  0  1.035067  0
H  H32  1  0.77980482  0.47509541  0.65876928  1  0.038581  0  0.088844  0.129928  0  1.005787  0
H  H33  1  0.22019294  0.52489753  0.34123734  1  0.038845  0  0.088829  0.129867  0  1.005904  0
H  H34  1  0.08118626  0.68845524  0.63127365  1  0.079229  0  0.081288  0.117316  0  1.057538  0
H  H35  1  0.91879157  0.31154178  0.36871784  1  0.078955  0  0.08129  0.117322  0  1.057503  0
H  H36  1  0.96593772  0.62135342  0.54411646  1  0.046669  0  0.088848  0.12519  0  0.994041  0
H  H37  1  0.03404177  0.37864175  0.45587753  1  0.046935  0  0.088845  0.12523  0  0.994055  0
H  H38  1  0.89749268  0.69455519  0.60757036  1  0.011079  0  0.085562  0.119594  0  1.016956  0
H  H39  1  0.10248414  0.30543747  0.39242551  1  0.010935  0  0.08556  0.119611  0  1.017023  0
H  H40  1  0.17071840  0.74254540  0.09711888  1  0.124568  0  0.115689  0.124811  0  0.97934  0
H  H41  1  0.82928940  0.25745940  0.90287230  1  0.124639  0  0.11573  0.124867  0  0.979398  0
H  H42  1  0.12583944  0.63251554  0.05295561  1  0.10824  0  0.093411  0.069148  0  1.102843  0
H  H43  1  0.87415463  0.36748851  0.94703372  1  0.108239  0  0.093443  0.069203  0  1.102746  0
H  H44  1  0.87191452  0.66677998  0.20786256  1  0.659587  0  0.309127  0.367948  0  0.96136  0
H  H45  1  0.12808866  0.33323174  0.79212930  1  0.659964  0  0.309088  0.367805  0  0.96168  0
H  H46  1  0.74164424  0.63874525  0.01968859  1  0.629253  0  0.304539  0.333326  0  0.974696  0
H  H47  1  0.25835736  0.36125966  0.98031412  1  0.629289  0  0.30449  0.333227  0  0.974849  0
H  H48  1  0.92562241  0.80558651  0.01356229  1  0.639644  0  0.306445  0.336162  0  1.000116  0
H  H49  1  0.07438439  0.19441397  0.98643637  1  0.639613  0  0.306474  0.336225  0  1.000094  0
H  H50  1  0.49467259  0.72902319  0.04893108  1  0.644342  0  0.310982  0.345212  0  0.9531  0
H  H51  1  0.50533241  0.27097852  0.95106623  1  0.644294  0  0.311001  0.345303  0  0.953048  0
H  H52  1  0.13105267  0.21775098  0.63319654  1  0.623524  0  0.312071  0.396742  0  0.910348  0
H  H53  1  0.86894386  0.78225007  0.36680391  1  0.623542  0  0.312105  0.396789  0  0.91028  0
H  H54  1  0.08926155  0.14978334  0.68881197  1  0.63589  0  0.293164  0.376226  0  0.97321  0
H  H55  1  0.91073214  0.85021896  0.31118885  1  0.635954  0  0.293194  0.376237  0  0.973205  0
H  H56  1  0.12646346  0.13207869  0.46273494  1  0.631063  0  0.301767  0.402679  0  0.912412  0
H  H57  1  0.87352830  0.86792425  0.53726692  1  0.631032  0  0.301765  0.402669  0  0.912438  0
H  H58  1  0.98457337  0.10866179  0.39227624  1  0.639025  0  0.292884  0.391784  0  0.938712  0
H  H59  1  0.01541942  0.89134111  0.60772267  1  0.639098  0  0.292959  0.391898  0  0.93855  0
H  H60  1  0.71715762  0.99874416  0.38423925  1  0.637938  0  0.296128  0.375701  0  0.969437  0
H  H61  1  0.28283754  0.00125558  0.61575844  1  0.637975  0  0.296078  0.375633  0  0.969526  0
H  H62  1  0.78969692  0.91798298  0.40213761  1  0.644145  0  0.296655  0.395339  0  0.935737  0
H  H63  1  0.21029707  0.08201616  0.59786233  1  0.644152  0  0.296625  0.395262  0  0.935858  0
H  H64  1  0.66358305  0.99759553  0.63056570  1  0.64803  0  0.29801  0.397069  0  0.933469  0
H  H65  1  0.33641930  0.00240370  0.36943719  1  0.648062  0  0.298006  0.397082  0  0.933419  0
H  H66  1  0.50857507  0.95574352  0.62947891  1  0.638497  0  0.295907  0.389042  0  0.946007  0
H  H67  1  0.49142699  0.04425444  0.37052321  1  0.638521  0  0.295918  0.389018  0  0.946049  0
H  H68  1  0.35135092  0.82443842  0.27961509  1  0.641549  0  0.294909  0.394177  0  0.93574  0
H  H69  1  0.64864591  0.17555950  0.72038635  1  0.641556  0  0.294919  0.394175  0  0.935749  0
H  H70  1  0.46878826  0.76625793  0.30829866  1  0.646259  0  0.293466  0.384803  0  0.949705  0
H  H71  1  0.53121200  0.23374127  0.69170272  1  0.646277  0  0.293472  0.384831  0  0.94967  0
H  H72  1  0.74266556  0.20490918  0.57643862  1  0.589043  0  0.325835  0.401456  0  0.890958  0
H  H73  1  0.25732201  0.79509370  0.42356146  1  0.589138  0  0.325828  0.401394  0  0.891048  0
H  H74  1  0.71475761  0.18842513  0.47696036  1  0.655333  0  0.296721  0.389566  0  0.942182  0
H  H75  1  0.28523056  0.81157587  0.52304024  1  0.655313  0  0.296768  0.389569  0  0.942166  0
H  H76  1  0.65930751  0.74856169  0.43837040  1  0.615611  0  0.299638  0.387342  0  0.929811  0
H  H77  1  0.34068786  0.25143437  0.56163498  1  0.615627  0  0.299612  0.387334  0  0.929813  0
H  H78  1  0.64834724  0.75398095  0.53274885  1  0.646167  0  0.288414  0.374321  0  0.970566  0
H  H79  1  0.35164694  0.24601447  0.46725693  1  0.646292  0  0.288422  0.374396  0  0.970487  0
H  H80  1  0.54867604  0.87913649  0.25012549  1  0.632385  0  0.283484  0.386706  0  0.948805  0
H  H81  1  0.45131733  0.12086451  0.74987209  1  0.63237  0  0.28349  0.386723  0  0.948794  0
H  H82  1  0.61898404  0.97190421  0.25108629  1  0.632234  0  0.284847  0.373806  0  0.971389  0
H  H83  1  0.38100949  0.02809741  0.74891137  1  0.632232  0  0.284855  0.373799  0  0.971385  0
H  H84  1  0.32239054  0.56464121  0.55785961  1  0.032657  0  0.087468  0.116335  0  1.016501  0
H  H85  1  0.67760542  0.43534854  0.44214525  1  0.032392  0  0.087496  0.116355  0  1.016526  0
H  H86  1  0.46512386  0.50749932  0.55891979  1  0.029464  0  0.089147  0.11886  0  1.025944  0
H  H87  1  0.53487604  0.49248930  0.44109410  1  0.02891  0  0.089173  0.118892  0  1.025785  0
H  H88  1  0.33493494  0.47566050  0.61445480  1  0.056  0  0.085855  0.120814  0  1.016187  0
H  H89  1  0.66506273  0.52433635  0.38556205  1  0.056077  0  0.085942  0.120873  0  1.016286  0
H  H90  1  0.55347632  0.55713331  0.71823808  1  0.065204  0  0.09901  0.113123  0  0.982637  0
H  H91  1  0.44651966  0.44286532  0.28177071  1  0.065424  0  0.098985  0.113019  0  0.982522  0
H  H92  1  0.40973119  0.61043223  0.71733706  1  0.015253  0  0.093566  0.098051  0  1.018148  0
H  H93  1  0.59026642  0.38956892  0.28267032  1  0.015456  0  0.09352  0.097944  0  1.018068  0
H  H94  1  0.72680618  0.69866545  0.77054995  1  0.054781  0  0.09574  0.106432  0  1.013903  0
H  H95  1  0.27320302  0.30132305  0.22944912  1  0.055238  0  0.095808  0.106553  0  1.013652  0
H  H96  1  0.57208138  0.73694415  0.78041092  1  0.064862  0  0.091289  0.10272  0  1.024157  0
H  H97  1  0.42794101  0.26304715  0.21960183  1  0.064889  0  0.091267  0.102738  0  1.024121  0
H  H98  1  0.74158050  0.86045686  0.77534054  1  0.038743  0  0.077301  0.109357  0  1.059905  0
H  H99  1  0.25843486  0.13953117  0.22466730  1  0.038914  0  0.077289  0.109271  0  1.059862  0
H  H100  1  0.62029153  0.84216407  0.67461285  1  0.018796  0  0.088545  0.111452  0  1.03639  0
H  H101  1  0.37972847  0.15782590  0.32539639  1  0.018584  0  0.088658  0.111565  0  1.036398  0
H  H102  1  0.78931927  0.81145768  0.68510036  1  0.028791  0  0.088522  0.121226  0  1.00065  0
H  H103  1  0.21069551  0.18853226  0.31490943  1  0.028794  0  0.088421  0.121012  0  1.000716  0
C  C104  1  0.58125214  0.57528435  0.93713112  1  0.542283  0  0.091909  0.251795  0  4.048659  0
C  C105  1  0.41874873  0.42471740  0.06287182  1  0.542549  0  0.091976  0.251789  0  4.048568  0
C  C106  1  0.43486199  0.56503751  0.90113464  1  -0.083686  0  -0.023387  -0.043867  0  3.980963  0
C  C107  1  0.56514200  0.43496425  0.09886747  1  -0.083851  0  -0.023356  -0.043687  0  3.980859  0
C  C108  1  0.36920631  0.49333068  0.84256429  1  0.044696  0  -0.081294  -0.113756  0  3.985297  0
C  C109  1  0.63079753  0.50667045  0.15743836  1  0.04411  0  -0.081284  -0.113852  0  3.985304  0
C  C110  1  0.44748299  0.43239763  0.81832588  1  -0.174328  0  -0.02628  -0.09388  0  3.981999  0
C  C111  1  0.55252337  0.56760539  0.18167481  1  -0.173816  0  -0.026265  -0.093823  0  3.981826  0
C  C112  1  0.59303790  0.44257766  0.85205880  1  -0.045066  0  -0.077559  -0.106016  0  3.979058  0
C  C113  1  0.40696667  0.55742661  0.14794178  1  -0.045345  0  -0.077618  -0.106144  0  3.979142  0
C  C114  1  0.65941191  0.51331633  0.91131038  1  -0.058495  0  -0.028022  -0.068838  0  4.023482  0
C  C115  1  0.34059149  0.48668732  0.08869183  1  -0.058189  0  -0.027975  -0.068746  0  4.023472  0
C  C116  1  0.97008715  0.67810061  0.92982924  1  0.467272  0  0.069537  0.14609  0  4.059365  0
C  C117  1  0.02991009  0.32190355  0.07016667  1  0.467623  0  0.06966  0.146248  0  4.059461  0
C  C118  1  0.01619403  0.73325322  0.87680597  1  -0.057253  0  -0.022248  -0.030784  0  4.006706  0
C  C119  1  0.98380885  0.26674840  0.12318613  1  -0.053538  0  -0.022326  -0.030954  0  4.006887  0
C  C120  1  0.00269924  0.70383170  0.79032411  1  -0.09657  0  -0.083334  -0.14812  0  3.925822  0
C  C121  1  0.99730307  0.29616744  0.20967199  1  -0.100347  0  -0.08331  -0.148127  0  3.925728  0
C  C122  1  0.95096874  0.61876597  0.75661751  1  0.015942  0  0.001381  0.072631  0  3.855738  0
C  C123  1  0.04902956  0.38123381  0.24338121  1  0.01585  0  0.001351  0.07264  0  3.855693  0
C  C124  1  0.90701973  0.56458611  0.81134640  1  -0.036783  0  -0.084206  -0.151291  0  3.94221  0
C  C125  1  0.09297978  0.43541435  0.18865501  1  -0.036636  0  -0.084205  -0.151353  0  3.942212  0
C  C126  1  0.91196222  0.59391868  0.89611740  1  -0.163867  0  -0.023838  -0.036353  0  4.04521  0
C  C127  1  0.08803682  0.40608424  0.10387925  1  -0.163919  0  -0.023842  -0.036339  0  4.045241  0
C  C128  1  0.87048893  0.90118349  0.95549075  1  0.558963  0  0.096028  0.264426  0  4.038023  0
C  C129  1  0.12951817  0.09881824  0.04450745  1  0.558601  0  0.096232  0.264683  0  4.037805  0
C  C130  1  0.77430039  0.95948421  0.94421357  1  -0.084851  0  -0.022294  -0.050305  0  3.995513  0
C  C131  1  0.22570657  0.04051691  0.05578641  1  -0.084682  0  -0.022314  -0.050277  0  3.995317  0
C  C132  1  0.78337636  0.01839495  0.88764899  1  -0.007504  0  -0.079981  -0.117779  0  4.00356  0
C  C133  1  0.21662627  0.98160551  0.11235098  1  -0.007592  0  -0.080052  -0.118005  0  4.003498  0
C  C134  1  0.88648529  0.01858174  0.84057770  1  -0.176458  0  -0.029158  -0.110862  0  4.012615  0
C  C135  1  0.11351958  0.98141937  0.15942261  1  -0.176782  0  -0.029097  -0.110658  0  4.012545  0
C  C136  1  0.98135384  0.96061422  0.84979348  1  0.001821  0  -0.070926  -0.096112  0  3.967673  0
C  C137  1  0.01865372  0.03938944  0.15020681  1  0.002038  0  -0.07094  -0.096231  0  3.967708  0
C  C138  1  0.97474318  0.90227281  0.90720089  1  -0.119946  0  -0.023162  -0.059444  0  3.998158  0
C  C139  1  0.02526527  0.09773022  0.09279945  1  -0.119742  0  -0.023284  -0.05954  0  3.998229  0
C  C140  1  0.47323444  0.79848143  0.95956424  1  0.575194  0  0.093657  0.261444  0  4.057234  0
C  C141  1  0.52676937  0.20151964  0.04043347  1  0.575182  0  0.093556  0.261342  0  4.057063  0
C  C142  1  0.51575146  0.87616862  0.93287277  1  -0.131579  0  -0.017289  -0.041834  0  3.984871  0
C  C143  1  0.48424938  0.12383307  0.06712585  1  -0.131395  0  -0.017234  -0.041671  0  3.984756  0
C  C144  1  0.45934049  0.89010504  0.85004647  1  0.095301  0  -0.076646  -0.103881  0  3.981799  0
C  C145  1  0.54066452  0.10989668  0.14995145  1  0.095373  0  -0.076629  -0.103927  0  3.981886  0
C  C146  1  0.36737628  0.82624024  0.79224683  1  -0.195771  0  -0.028163  -0.106414  0  4.018863  0
C  C147  1  0.63262753  0.17376083  0.20775089  1  -0.196013  0  -0.02818  -0.106437  0  4.018922  0
C  C148  1  0.33188716  0.74696716  0.81616744  1  -0.025017  0  -0.079957  -0.114827  0  4.022015  0
C  C149  1  0.66811755  0.25303328  0.18383033  1  -0.024967  0  -0.079942  -0.114843  0  4.022009  0
C  C150  1  0.38375796  0.73282487  0.89971206  1  -0.088589  0  -0.028005  -0.065937  0  4.002157  0
C  C151  1  0.61624511  0.26717747  0.10028629  1  -0.08861  0  -0.027958  -0.065862  0  4.002091  0
C  C152  1  0.08533967  0.68806882  0.07810903  1  0.351398  0  -0.069741  -0.13524  0  3.851873  0
C  C153  1  0.91466247  0.31193407  0.92188371  1  0.351403  0  -0.069831  -0.135439  0  3.851962  0
C  C154  1  0.03554418  0.66802063  0.15665721  1  1.588304  0  0.226583  0.611277  0  4.110795  0
C  C155  1  0.96445510  0.33198345  0.84333157  1  1.587787  0  0.226581  0.611258  0  4.110599  0
C  C156  1  0.94931731  0.58191024  0.66523326  1  0.071663  0  -0.013944  0.235184  0  3.808352  0
C  C157  1  0.05068069  0.41808827  0.33476468  1  0.071715  0  -0.013947  0.235322  0  3.808247  0
C  C158  1  0.06702564  0.52636541  0.67058635  1  -0.082201  0  -0.241288  -0.410494  0  3.865166  0
C  C159  1  0.93297339  0.47363309  0.32940988  1  -0.082228  0  -0.24125  -0.410349  0  3.865106  0
C  C160  1  0.80789282  0.52540993  0.62206656  1  -0.091111  0  -0.243521  -0.41865  0  3.869215  0
C  C161  1  0.19210060  0.47458231  0.37793697  1  -0.091627  0  -0.243535  -0.418795  0  3.869331  0
C  C162  1  0.97542609  0.65100950  0.60979314  1  -0.112368  0  -0.246067  -0.41583  0  3.89071  0
C  C163  1  0.02455563  0.34898632  0.39020059  1  -0.112247  0  -0.24605  -0.415904  0  3.890761  0
C  C164  1  0.47901224  0.58952038  0.67678019  1  -0.030846  0  -0.166952  -0.233628  0  3.973815  0
C  C165  1  0.52099000  0.41047831  0.32322942  1  -0.030887  0  -0.166624  -0.233034  0  3.973425  0
C  C166  1  0.56295291  0.66847223  0.65965232  1  0.919138  0  0.17489  0.473054  0  3.865316  0
C  C167  1  0.43705830  0.33152497  0.34033490  1  0.917761  0  0.174748  0.473007  0  3.86372  0
C  C168  1  0.64244731  0.73026307  0.73662171  1  -0.061929  0  -0.172718  -0.236629  0  3.966215  0
C  C169  1  0.35757226  0.26972505  0.26339099  1  -0.062061  0  -0.172737  -0.236906  0  3.966744  0
C  C170  1  0.39551167  0.53078841  0.59758736  1  -0.058554  0  -0.24775  -0.345675  0  3.974405  0
C  C171  1  0.60448386  0.46920390  0.40242076  1  -0.058139  0  -0.247896  -0.345834  0  3.974368  0
C  C172  1  0.70183091  0.81571591  0.71669620  1  -0.042143  0  -0.252316  -0.335121  0  3.946327  0
C  C173  1  0.29819086  0.18427721  0.28331110  1  -0.041974  0  -0.252257  -0.334722  0  3.946469  0
S  S174  1  0.84159148  0.52562713  0.96142517  1  0.067495  0  0.01754  -0.019367  0  2.929059  0
S  S175  1  0.15841533  0.47437778  0.03857515  1  0.067239  0  0.017516  -0.019402  0  2.929188  0
S  S176  1  0.10718861  0.83653717  0.92341954  1  0.10014  0  0.01028  -0.016288  0  2.836018  0
S  S177  1  0.89281846  0.16346450  0.07657434  1  0.099979  0  0.010329  -0.016211  0  2.836083  0
S  S178  1  0.64099830  0.95762859  0.00272844  1  0.100278  0  0.017444  -0.019491  0  2.858272  0
S  S179  1  0.35900641  0.04237188  0.99727057  1  0.100121  0  0.017447  -0.019485  0  2.858168  0
S  S180  1  0.32767701  0.63622345  0.93537104  1  0.063485  0  0.017212  -0.013802  0  2.851841  0
S  S181  1  0.67232518  0.36377953  0.06462911  1  0.063734  0  0.017184  -0.013897  0  2.851903  0
S  S182  1  0.89334414  0.09057006  0.76567469  1  3.201852  0  0.529931  1.213871  0  6.147653  0
S  S183  1  0.10665402  0.90943352  0.23432499  1  3.201709  0  0.530005  1.213926  0  6.147631  0
S  S184  1  0.28554230  0.84868063  0.69026262  1  3.174449  0  0.530067  1.170285  0  6.147078  0
S  S185  1  0.71445928  0.15131981  0.30973598  1  3.174561  0  0.530145  1.170426  0  6.146954  0
S  S186  1  0.36278095  0.33595354  0.75168445  1  3.173627  0  0.519054  1.173364  0  6.177787  0
S  S187  1  0.63722422  0.66405325  0.24831521  1  3.173824  0  0.51914  1.173622  0  6.177305  0
O  O188  1  0.64176987  0.64345902  0.99509752  1  -1.155239  0  -0.326221  -0.412765  0  2.425314  0
O  O189  1  0.35823158  0.35654525  0.00490450  1  -1.155436  0  -0.326243  -0.412764  0  2.425333  0
O  O190  1  0.97291229  0.70842254  0.01341278  1  -1.098031  0  -0.188731  -0.21593  0  2.690759  0
O  O191  1  0.02708851  0.29158349  0.98658008  1  -1.098192  0  -0.188898  -0.216051  0  2.690929  0
O  O192  1  0.85728966  0.84688588  0.01178274  1  -1.186905  0  -0.360417  -0.473891  0  2.457283  0
O  O193  1  0.14271758  0.15311649  0.98821554  1  -1.18666  0  -0.360528  -0.47407  0  2.457202  0
O  O194  1  0.51887695  0.78897055  0.04170470  1  -1.179328  0  -0.392732  -0.464447  0  2.493998  0
O  O195  1  0.48112596  0.21103114  0.95829296  1  -1.179362  0  -0.392681  -0.464513  0  2.493944  0
O  O196  1  0.11565574  0.64505399  0.21595370  1  -1.157183  0  -0.297079  -0.496433  0  2.091042  0
O  O197  1  0.88434653  0.35494505  0.78403437  1  -1.15691  0  -0.297012  -0.496265  0  2.090995  0
O  O198  1  0.90194901  0.67741079  0.15300905  1  -1.185911  0  -0.329431  -0.500608  0  2.374951  0
O  O199  1  0.09805297  0.32260028  0.84698198  1  -1.186267  0  -0.329395  -0.500491  0  2.375125  0
O  O200  1  0.04442864  0.12566143  0.77962793  1  -1.359288  0  -0.414427  -0.672853  0  2.27915  0
O  O201  1  0.95556878  0.87434342  0.22037300  1  -1.359308  0  -0.414465  -0.672836  0  2.279016  0
O  O202  1  0.84030038  0.04142499  0.68009365  1  -1.346241  0  -0.37481  -0.641458  0  2.229452  0
O  O203  1  0.15969868  0.95857798  0.31990732  1  -1.346243  0  -0.374806  -0.641484  0  2.229421  0
O  O204  1  0.80670039  0.15435190  0.78494446  1  -1.345862  0  -0.325483  -0.589769  0  2.232888  0
O  O205  1  0.19329495  0.84564854  0.21505764  1  -1.345736  0  -0.325517  -0.589843  0  2.232972  0
O  O206  1  0.36800621  0.93006428  0.68065460  1  -1.35042  0  -0.321602  -0.615443  0  2.314473  0
O  O207  1  0.63199567  0.06993742  0.31934415  1  -1.350512  0  -0.321646  -0.615517  0  2.314397  0
O  O208  1  0.29679644  0.77872737  0.62750346  1  -1.326036  0  -0.323716  -0.570058  0  2.170314  0
O  O209  1  0.70320187  0.22127241  0.37249526  1  -1.326008  0  -0.323719  -0.5701  0  2.170373  0
O  O210  1  0.14045715  0.85876227  0.69387457  1  -1.329349  0  -0.323186  -0.583492  0  2.208717  0
O  O211  1  0.85954475  0.14123947  0.30612665  1  -1.329393  0  -0.323207  -0.583497  0  2.208735  0
O  O212  1  0.21338973  0.34615130  0.71896469  1  -1.330309  0  -0.336194  -0.60259  0  2.195184  0
O  O213  1  0.78662000  0.65386173  0.28102753  1  -1.330338  0  -0.336296  -0.602752  0  2.195232  0
O  O214  1  0.43642115  0.32396131  0.68242505  1  -1.331838  0  -0.329196  -0.588504  0  2.168834  0
O  O215  1  0.56359359  0.67604183  0.31758044  1  -1.331811  0  -0.329195  -0.588601  0  2.168671  0
O  O216  1  0.37735081  0.27137345  0.80882836  1  -1.342229  0  -0.394385  -0.63444  0  2.234556  0
O  O217  1  0.62263182  0.72863060  0.19116749  1  -1.342273  0  -0.394402  -0.634467  0  2.234334  0
O  O218  1  0.10314424  0.15691476  0.63096741  1  -1.266988  0  -0.612175  -0.804097  0  2.008276  0
O  O219  1  0.89684498  0.84308623  0.36903210  1  -1.267044  0  -0.612237  -0.804143  0  2.008225  0
O  O220  1  0.04068011  0.08972302  0.44283135  1  -1.290081  0  -0.66716  -0.860541  0  1.951921  0
O  O221  1  0.95930956  0.91027989  0.55716963  1  -1.29015  0  -0.667226  -0.860625  0  1.951813  0
O  O222  1  0.74614055  0.96308332  0.42838295  1  -1.310106  0  -0.692643  -0.847508  0  1.973679  0
O  O223  1  0.25385165  0.03691705  0.57161627  1  -1.310169  0  -0.692553  -0.847331  0  1.973785  0
O  O224  1  0.56856679  0.97852703  0.59327654  1  -1.309344  0  -0.689824  -0.853887  0  1.937717  0
O  O225  1  0.43143556  0.02147219  0.40672512  1  -1.309412  0  -0.689828  -0.853876  0  1.937715  0
O  O226  1  0.44667876  0.82440682  0.31510493  1  -1.291669  0  -0.630328  -0.816649  0  1.992008  0
O  O227  1  0.55331957  0.17559301  0.68489688  1  -1.291683  0  -0.630326  -0.816676  0  1.992024  0
O  O228  1  0.71797052  0.15973940  0.52829441  1  -1.257542  0  -0.631322  -0.828785  0  1.919283  0
O  O229  1  0.28201692  0.84026286  0.47170683  1  -1.257628  0  -0.631351  -0.828715  0  1.919309  0
O  O230  1  0.68099842  0.78832653  0.49134299  1  -1.274666  0  -0.621375  -0.804546  0  1.939233  0
O  O231  1  0.31899186  0.21167010  0.50865994  1  -1.274823  0  -0.621382  -0.804582  0  1.939203  0
O  O232  1  0.59940119  0.91559860  0.21723280  1  -1.300835  0  -0.687506  -0.847321  0  1.942679  0
O  O233  1  0.40058800  0.08440234  0.78276300  1  -1.300832  0  -0.687538  -0.847341  0  1.942647  0
O  O234  1  0.56736058  0.68026012  0.58630491  1  -1.130783  0  -0.248606  -0.413391  0  2.167929  0
O  O235  1  0.43263772  0.31973048  0.41371574  1  -1.129938  0  -0.248716  -0.413722  0  2.16582  0
