# generated using pymatgen
data_CdH8C10S(NO2)2
_symmetry_space_group_name_H-M   'P 1'
_cell_length_a   6.94704559
_cell_length_b   6.94702330
_cell_length_c   11.86919550
_cell_angle_alpha   90.00000608
_cell_angle_beta   90.00003674
_cell_angle_gamma   89.99956612
_symmetry_Int_Tables_number   1
_chemical_formula_structural   CdH8C10S(NO2)2
_chemical_formula_sum   'Cd2 H16 C20 S2 N4 O8'
_cell_volume   572.82265687
_cell_formula_units_Z   2
loop_
 _symmetry_equiv_pos_site_id
 _symmetry_equiv_pos_as_xyz
  1  'x, y, z'
loop_
 _atom_site_type_symbol
 _atom_site_label
 _atom_site_symmetry_multiplicity
 _atom_site_fract_x
 _atom_site_fract_y
 _atom_site_fract_z
 _atom_site_occupancy
 _atom_site_pbe_bader_spin_density
 _atom_site_pbe_cm5_charge
 _atom_site_pbe_ddec_charge
 _atom_site_pbe_ddec_spin_density
 _atom_site_pbe_ddec_sum_bond_order
 _atom_site_pbe_magmom
Cd  Cd0  1  0.49999459  0.99999621  0.46024618  1  0  0.808844  1.008168  0  2.156425  0
Cd  Cd1  1  0.00000125  0.49999978  0.53975354  1  0  0.80887  1.008187  0  2.156305  0
H  H2  1  0.71102696  0.21102584  0.66509073  1  0  0.118903  0.100274  0  1.042584  0
H  H3  1  0.28897917  0.78897857  0.66509741  1  0  0.118937  0.100297  0  1.042543  0
H  H4  1  0.21102259  0.28897334  0.33490650  1  0  0.118935  0.100386  0  1.042598  0
H  H5  1  0.78897603  0.71102386  0.33490833  1  0  0.118954  0.100386  0  1.0426  0
H  H6  1  0.72088876  0.22088903  0.87206938  1  0  0.101258  0.104887  0  1.046476  0
H  H7  1  0.27912764  0.77912692  0.87207353  1  0  0.101293  0.104906  0  1.046206  0
H  H8  1  0.22088139  0.27911440  0.12792786  1  0  0.101276  0.104859  0  1.046454  0
H  H9  1  0.77911414  0.72088135  0.12792884  1  0  0.101278  0.104868  0  1.046453  0
H  H10  1  0.29021258  0.79021362  0.24946183  1  0  0.120334  0.103307  0  1.002831  0
H  H11  1  0.70978307  0.20978358  0.24946694  1  0  0.120387  0.103329  0  1.002879  0
H  H12  1  0.79021273  0.70978593  0.75053717  1  0  0.120333  0.103314  0  1.002819  0
H  H13  1  0.20978197  0.29021274  0.75053703  1  0  0.12034  0.103304  0  1.002807  0
H  H14  1  0.27954756  0.77954721  0.04006853  1  0  0.099775  0.104694  0  1.051634  0
H  H15  1  0.72045941  0.22046004  0.04007112  1  0  0.099764  0.104692  0  1.051593  0
H  H16  1  0.77954350  0.72045961  0.95993131  1  0  0.099754  0.104669  0  1.051622  0
H  H17  1  0.22045571  0.27954194  0.95993033  1  0  0.099764  0.104699  0  1.05162  0
C  C18  1  0.61771285  0.11771141  0.71441755  1  0  0.056515  0.120931  0  3.908914  0
C  C19  1  0.38228901  0.88228869  0.71441754  1  0  0.056481  0.120906  0  3.908351  0
C  C20  1  0.11771204  0.38228416  0.28558048  1  0  0.056452  0.120668  0  3.908788  0
C  C21  1  0.88228509  0.61771160  0.28558149  1  0  0.056421  0.120675  0  3.90876  0
C  C22  1  0.62160663  0.12160515  0.83149794  1  0  -0.084274  -0.170533  0  3.916  0
C  C23  1  0.37841549  0.87841511  0.83150046  1  0  -0.08438  -0.170637  0  3.916122  0
C  C24  1  0.12159566  0.37840046  0.16849925  1  0  -0.084319  -0.170426  0  3.916146  0
C  C25  1  0.87839991  0.62159673  0.16850026  1  0  -0.084339  -0.170481  0  3.916198  0
C  C26  1  0.50000435  0.00000389  0.89381974  1  0  0.00376  0.084917  0  3.995023  0
C  C27  1  0.99999879  0.50000030  0.10617929  1  0  0.003729  0.084726  0  3.995051  0
C  C28  1  0.38263135  0.88263127  0.19865554  1  0  0.056642  0.110723  0  3.920122  0
C  C29  1  0.61737001  0.11736880  0.19865892  1  0  0.056614  0.110812  0  3.919738  0
C  C30  1  0.88262937  0.61736758  0.80134518  1  0  0.056624  0.110699  0  3.920004  0
C  C31  1  0.11736825  0.38263109  0.80134416  1  0  0.056652  0.1108  0  3.920039  0
C  C32  1  0.37832301  0.87832296  0.08138728  1  0  -0.089241  -0.190506  0  3.955742  0
C  C33  1  0.62167824  0.12167710  0.08139066  1  0  -0.089238  -0.190583  0  3.95586  0
C  C34  1  0.87832254  0.62167448  0.91861429  1  0  -0.089184  -0.190442  0  3.955785  0
C  C35  1  0.12167519  0.37832563  0.91861412  1  0  -0.089241  -0.190575  0  3.955842  0
C  C36  1  0.50000680  0.00000674  0.01894073  1  0  0.001614  0.081429  0  4.010168  0
C  C37  1  0.99999921  0.49999889  0.98105915  1  0  0.001621  0.081518  0  4.010057  0
S  S38  1  0.49999939  0.49999501  0.50000032  1  0  0.551599  1.430475  0  6.418163  0
S  S39  1  0.99999565  0.99999719  0.49999961  1  0  0.551632  1.430519  0  6.418184  0
N  N40  1  0.50000711  0.00000820  0.65645993  1  0  -0.318682  -0.242268  0  3.470334  0
N  N41  1  0.99999971  0.49999833  0.34354058  1  0  -0.318607  -0.242041  0  3.470171  0
N  N42  1  0.49999737  0.99999620  0.25651881  1  0  -0.311558  -0.201628  0  3.40477  0
N  N43  1  0.99999910  0.50000176  0.74348281  1  0  -0.311551  -0.201621  0  3.404858  0
O  O44  1  0.48884575  0.67222133  0.42533057  1  0  -0.373815  -0.682133  0  2.316665  0
O  O45  1  0.51115294  0.32777012  0.42533055  1  0  -0.373873  -0.682172  0  2.316798  0
O  O46  1  0.98883764  0.82777239  0.57467104  1  0  -0.373828  -0.682167  0  2.316778  0
O  O47  1  0.01115113  0.17222482  0.57466659  1  0  -0.373831  -0.682122  0  2.316676  0
O  O48  1  0.17221931  0.98883871  0.42532715  1  0  -0.37385  -0.682201  0  2.316627  0
O  O49  1  0.82776787  0.01115130  0.42533145  1  0  -0.373882  -0.682172  0  2.316769  0
O  O50  1  0.32777517  0.48883836  0.57467257  1  0  -0.373804  -0.682156  0  2.316726  0
O  O51  1  0.67222655  0.51114589  0.57466759  1  0  -0.37386  -0.682162  0  2.316671  0
