# generated using pymatgen
data_Zn2H24C29(NO2)4
_symmetry_space_group_name_H-M   'P 1'
_cell_length_a   7.70194968
_cell_length_b   16.15211637
_cell_length_c   24.30930259
_cell_angle_alpha   90.00011758
_cell_angle_beta   89.99999133
_cell_angle_gamma   89.99993674
_symmetry_Int_Tables_number   1
_chemical_formula_structural   Zn2H24C29(NO2)4
_chemical_formula_sum   'Zn8 H96 C116 N16 O32'
_cell_volume   3024.14500115
_cell_formula_units_Z   4
loop_
 _symmetry_equiv_pos_site_id
 _symmetry_equiv_pos_as_xyz
  1  'x, y, z'
loop_
 _atom_site_type_symbol
 _atom_site_label
 _atom_site_symmetry_multiplicity
 _atom_site_fract_x
 _atom_site_fract_y
 _atom_site_fract_z
 _atom_site_occupancy
 _atom_site_pbe_bader_charge
 _atom_site_pbe_bader_spin_density
 _atom_site_pbe_cm5_charge
 _atom_site_pbe_ddec_charge
 _atom_site_pbe_ddec_spin_density
 _atom_site_pbe_ddec_sum_bond_order
 _atom_site_pbe_magmom
Zn  Zn0  1  0.49264385  0.02728313  0.89195361  1  1.23776  0  0.690409  0.79628  0  2.290135  0
Zn  Zn1  1  0.50735733  0.97271821  0.39195266  1  1.237653  0  0.690405  0.796265  0  2.290209  0
Zn  Zn2  1  0.00735446  0.52728151  0.89195314  1  1.237685  0  0.690409  0.796275  0  2.290184  0
Zn  Zn3  1  0.99264542  0.47271735  0.39195272  1  1.237719  0  0.69043  0.79632  0  2.290073  0
Zn  Zn4  1  0.00726563  0.00744767  0.22600772  1  1.235063  0  0.690279  0.798458  0  2.284302  0
Zn  Zn5  1  0.99273693  0.99255191  0.72600831  1  1.235135  0  0.69029  0.798493  0  2.284242  0
Zn  Zn6  1  0.49273823  0.50744765  0.22600805  1  1.235135  0  0.69029  0.798489  0  2.284229  0
Zn  Zn7  1  0.50726302  0.49255193  0.72600757  1  1.235127  0  0.690307  0.798514  0  2.284245  0
H  H8  1  0.01816592  0.61738226  0.80403706  1  0.481302  0  0.297936  0.309877  0  0.956384  0
H  H9  1  0.98183400  0.38261818  0.30403487  1  0.481238  0  0.297907  0.309846  0  0.95636  0
H  H10  1  0.48183481  0.11738079  0.80403630  1  0.481304  0  0.297916  0.309835  0  0.95642  0
H  H11  1  0.51816641  0.88261842  0.30403605  1  0.481298  0  0.297899  0.309768  0  0.956481  0
H  H12  1  0.16441080  0.54233694  0.79671306  1  0.503356  0  0.2928  0.302361  0  0.977907  0
H  H13  1  0.83558653  0.45766411  0.29671181  1  0.503286  0  0.292774  0.302304  0  0.97796  0
H  H14  1  0.33558881  0.04233616  0.79671272  1  0.503304  0  0.292794  0.302347  0  0.977926  0
H  H15  1  0.66441111  0.95766426  0.29671174  1  0.503271  0  0.292812  0.302376  0  0.977864  0
H  H16  1  0.48334179  0.59755735  0.31389998  1  0.481897  0  0.298199  0.310763  0  0.955976  0
H  H17  1  0.51665943  0.40244127  0.81390020  1  0.481895  0  0.298142  0.310718  0  0.955873  0
H  H18  1  0.01665923  0.09755798  0.31390047  1  0.481898  0  0.298171  0.310728  0  0.955901  0
H  H19  1  0.98334458  0.90244312  0.81390053  1  0.481863  0  0.298202  0.310875  0  0.955818  0
H  H20  1  0.33647257  0.52274367  0.32145589  1  0.508612  0  0.292657  0.302248  0  0.979317  0
H  H21  1  0.66352735  0.47725559  0.82145621  1  0.508618  0  0.29265  0.302246  0  0.979311  0
H  H22  1  0.16352862  0.02274361  0.32145679  1  0.508598  0  0.292642  0.302242  0  0.979321  0
H  H23  1  0.83647259  0.97725565  0.82145654  1  0.508606  0  0.292678  0.302304  0  0.979332  0
H  H24  1  0.62796326  0.77980987  0.89586784  1  0.094334  0  0.104791  0.118134  0  1.012659  0
H  H25  1  0.37203662  0.22019086  0.39586835  1  0.094336  0  0.104792  0.118093  0  1.012694  0
H  H26  1  0.87204100  0.27981093  0.89587038  1  0.094434  0  0.10478  0.118068  0  1.012697  0
H  H27  1  0.12796018  0.72019103  0.39586869  1  0.09435  0  0.104795  0.118115  0  1.012685  0
H  H28  1  0.43127309  0.53874176  0.85250239  1  0.128247  0  0.109092  0.122368  0  1.037316  0
H  H29  1  0.56872551  0.46125760  0.35250157  1  0.128243  0  0.109093  0.122378  0  1.037287  0
H  H30  1  0.06872780  0.03874174  0.85250289  1  0.128224  0  0.109113  0.122416  0  1.037239  0
H  H31  1  0.93127469  0.96125885  0.35250190  1  0.128215  0  0.109086  0.122402  0  1.037277  0
H  H32  1  0.10396352  0.75332918  0.83761072  1  0.103556  0  0.10729  0.118375  0  1.018976  0
H  H33  1  0.89603379  0.24666827  0.33760753  1  0.10352  0  0.107309  0.118401  0  1.018966  0
H  H34  1  0.39603559  0.25333023  0.83760749  1  0.103532  0  0.107294  0.118366  0  1.018972  0
H  H35  1  0.60396301  0.74667218  0.33760870  1  0.103563  0  0.107296  0.118374  0  1.018983  0
H  H36  1  0.87304035  0.76083973  0.22333269  1  0.124456  0  0.104836  0.117871  0  1.014681  0
H  H37  1  0.12696221  0.23915922  0.72333395  1  0.124212  0  0.104844  0.117845  0  1.014705  0
H  H38  1  0.62695908  0.26084092  0.22333277  1  0.124449  0  0.104837  0.117888  0  1.014661  0
H  H39  1  0.37304478  0.73915803  0.72333346  1  0.12425  0  0.104808  0.117835  0  1.0147  0
H  H40  1  0.06945578  0.51942397  0.26592201  1  0.079453  0  0.109043  0.122682  0  1.036966  0
H  H41  1  0.93054546  0.48057574  0.76592232  1  0.079459  0  0.109043  0.12271  0  1.036936  0
H  H42  1  0.43054804  0.01942376  0.26592207  1  0.079452  0  0.109039  0.122691  0  1.036918  0
H  H43  1  0.56945709  0.98057471  0.76592349  1  0.079482  0  0.109051  0.122699  0  1.03697  0
H  H44  1  0.39838782  0.73352773  0.28015826  1  0.093081  0  0.107635  0.119213  0  1.018613  0
H  H45  1  0.60161211  0.26647264  0.78015788  1  0.093081  0  0.10761  0.119187  0  1.018608  0
H  H46  1  0.10161290  0.23352708  0.28015957  1  0.093078  0  0.107606  0.119175  0  1.018633  0
H  H47  1  0.89839353  0.76647205  0.78015863  1  0.093019  0  0.107616  0.119202  0  1.01861  0
H  H48  1  0.22690746  0.94832670  0.96179170  1  0.132782  0  0.118056  0.090266  0  1.004729  0
H  H49  1  0.77310018  0.05167486  0.46179072  1  0.132749  0  0.118088  0.090302  0  1.004773  0
H  H50  1  0.27309634  0.44832719  0.96179177  1  0.132804  0  0.118055  0.090296  0  1.004724  0
H  H51  1  0.72689961  0.55167436  0.46179106  1  0.132771  0  0.118071  0.090285  0  1.004736  0
H  H52  1  0.96445075  0.99693538  0.01204131  1  0.051655  0  0.111899  0.122276  0  0.98864  0
H  H53  1  0.03555581  0.00306354  0.51203896  1  0.05163  0  0.111905  0.122298  0  0.988568  0
H  H54  1  0.53555083  0.49693847  0.01204016  1  0.051701  0  0.111902  0.122275  0  0.988533  0
H  H55  1  0.46444404  0.50306292  0.51204011  1  0.051624  0  0.11189  0.122269  0  0.988648  0
H  H56  1  0.17376871  0.24444037  0.00255309  1  0.031215  0  0.110791  0.119698  0  0.977373  0
H  H57  1  0.82622487  0.75556037  0.50255090  1  0.031007  0  0.110806  0.119732  0  0.977385  0
H  H58  1  0.32622693  0.74444292  0.00254890  1  0.031174  0  0.110788  0.119696  0  0.977391  0
H  H59  1  0.67377054  0.25555844  0.50255057  1  0.031211  0  0.110802  0.119667  0  0.977398  0
H  H60  1  0.43213949  0.18435801  0.95395220  1  0.152199  0  0.120156  0.105643  0  1.026411  0
H  H61  1  0.56785776  0.81564599  0.45395063  1  0.15233  0  0.120149  0.105671  0  1.026315  0
H  H62  1  0.06785453  0.68435637  0.95395049  1  0.152263  0  0.120139  0.105625  0  1.026372  0
H  H63  1  0.93214143  0.31564454  0.45395192  1  0.152327  0  0.120144  0.105625  0  1.026423  0
H  H64  1  0.92962540  0.20477179  0.07038593  1  0.028908  0  0.099139  0.099964  0  0.978342  0
H  H65  1  0.07037334  0.79522793  0.57038342  1  0.028946  0  0.099144  0.099969  0  0.978364  0
H  H66  1  0.57037553  0.70477509  0.07038340  1  0.028907  0  0.099143  0.099968  0  0.978351  0
H  H67  1  0.42962061  0.29522524  0.57038225  1  0.028484  0  0.099158  0.09997  0  0.978347  0
H  H68  1  0.82860035  0.20443678  0.00557124  1  0.071736  0  0.104971  0.116811  0  0.969023  0
H  H69  1  0.17140231  0.79556212  0.50556954  1  0.07166  0  0.10498  0.116791  0  0.969074  0
H  H70  1  0.67140191  0.70444003  0.00556911  1  0.071627  0  0.104968  0.116767  0  0.969085  0
H  H71  1  0.32859166  0.29556321  0.50556714  1  0.071917  0  0.104981  0.116736  0  0.969108  0
H  H72  1  0.80371718  0.06130520  0.08840980  1  0.033198  0  0.091513  0.085127  0  0.987987  0
H  H73  1  0.19628025  0.93869457  0.58840830  1  0.03322  0  0.09151  0.085126  0  0.988026  0
H  H74  1  0.69628017  0.56130720  0.08840685  1  0.033273  0  0.091523  0.085167  0  0.988042  0
H  H75  1  0.30371596  0.43869381  0.58840754  1  0.033257  0  0.091542  0.085171  0  0.988015  0
H  H76  1  0.69135992  0.06868064  0.02466014  1  0.021481  0  0.091878  0.087366  0  0.988262  0
H  H77  1  0.30864403  0.93131832  0.52465985  1  0.021376  0  0.091885  0.08739  0  0.988249  0
H  H78  1  0.80864394  0.56868320  0.02465883  1  0.021373  0  0.091886  0.08739  0  0.988212  0
H  H79  1  0.19135093  0.43131762  0.52465993  1  0.021355  0  0.091889  0.087377  0  0.988221  0
H  H80  1  0.66685947  0.19092917  0.12106406  1  0.077238  0  0.10521  0.117303  0  0.976503  0
H  H81  1  0.33313794  0.80907256  0.62106402  1  0.077161  0  0.105221  0.117313  0  0.976477  0
H  H82  1  0.83314017  0.69092800  0.12106316  1  0.077261  0  0.105214  0.117301  0  0.97654  0
H  H83  1  0.16686504  0.30907187  0.62106451  1  0.077126  0  0.105228  0.117287  0  0.976531  0
H  H84  1  0.56394267  0.20594137  0.05734690  1  0.042269  0  0.097856  0.097907  0  0.979587  0
H  H85  1  0.43605737  0.79405830  0.55734807  1  0.04214  0  0.097859  0.097933  0  0.979579  0
H  H86  1  0.93605826  0.70594263  0.05734764  1  0.042259  0  0.097868  0.097936  0  0.979564  0
H  H87  1  0.06394438  0.29405458  0.55734856  1  0.042086  0  0.097846  0.097911  0  0.97958  0
H  H88  1  0.54252640  0.98758454  0.10712220  1  0.084057  0  0.111621  0.122495  0  0.987577  0
H  H89  1  0.45747102  0.01241529  0.60712437  1  0.084593  0  0.111613  0.122489  0  0.987544  0
H  H90  1  0.95747645  0.48758555  0.10712185  1  0.084065  0  0.111615  0.122523  0  0.98751  0
H  H91  1  0.04252226  0.51241180  0.60712266  1  0.084665  0  0.111573  0.122458  0  0.987575  0
H  H92  1  0.28261044  0.93275410  0.15591666  1  0.141812  0  0.118134  0.09071  0  1.002155  0
H  H93  1  0.71738825  0.06724527  0.65591806  1  0.141827  0  0.118147  0.09072  0  1.002122  0
H  H94  1  0.21738858  0.43275400  0.15591755  1  0.141799  0  0.118146  0.090714  0  1.002102  0
H  H95  1  0.78260622  0.56724227  0.65591758  1  0.141905  0  0.118101  0.090683  0  1.002142  0
H  H96  1  0.05638420  0.16434774  0.16459512  1  0.159643  0  0.11959  0.104605  0  1.036551  0
H  H97  1  0.94361450  0.83565289  0.66459468  1  0.159658  0  0.119589  0.104615  0  1.036526  0
H  H98  1  0.44361934  0.66434652  0.16459381  1  0.159638  0  0.119585  0.104607  0  1.036543  0
H  H99  1  0.55638325  0.33564978  0.66459435  1  0.159678  0  0.1196  0.104611  0  1.036544  0
H  H100  1  0.31014455  0.23021575  0.11717134  1  0.057631  0  0.110357  0.118044  0  0.978692  0
H  H101  1  0.68985416  0.76978411  0.61717082  1  0.057619  0  0.11035  0.118036  0  0.978694  0
H  H102  1  0.18985885  0.73021590  0.11717045  1  0.057617  0  0.110354  0.118047  0  0.978658  0
H  H103  1  0.81014506  0.26978025  0.61717130  1  0.05755  0  0.110302  0.11798  0  0.978729  0
C  C104  1  0.36290311  0.77575161  0.86757703  1  -0.081629  0  -0.022017  -0.032399  0  4.006553  0
C  C105  1  0.63709418  0.22424965  0.36757465  1  -0.081888  0  -0.022062  -0.032405  0  4.006557  0
C  C106  1  0.13709853  0.27575093  0.86757629  1  -0.081524  0  -0.022006  -0.032324  0  4.006495  0
C  C107  1  0.86290137  0.72425033  0.36757663  1  -0.082037  0  -0.022045  -0.032352  0  4.006513  0
C  C108  1  0.52282370  0.74075865  0.88118990  1  0.064713  0  -0.083803  -0.122314  0  3.956619  0
C  C109  1  0.47717749  0.25924142  0.38118963  1  0.064559  0  -0.083774  -0.122231  0  3.956595  0
C  C110  1  0.97717936  0.24075903  0.88119078  1  0.064481  0  -0.083825  -0.122253  0  3.956507  0
C  C111  1  0.02282183  0.75924103  0.38118998  1  0.064716  0  -0.083805  -0.122328  0  3.956585  0
C  C112  1  0.54976243  0.65560137  0.87485523  1  0.033219  0  -0.02084  -0.026776  0  4.008497  0
C  C113  1  0.45024135  0.34439868  0.37485425  1  0.033203  0  -0.020837  -0.026759  0  4.008481  0
C  C114  1  0.95024212  0.15560239  0.87485529  1  0.03334  0  -0.020839  -0.026791  0  4.008517  0
C  C115  1  0.04976166  0.84439827  0.37485337  1  0.033252  0  -0.02082  -0.026688  0  4.008443  0
C  C116  1  0.41564191  0.60559988  0.85510185  1  -0.085327  0  -0.087978  -0.186601  0  3.904459  0
C  C117  1  0.58435669  0.39440011  0.35510053  1  -0.08536  0  -0.088  -0.186681  0  3.904504  0
C  C118  1  0.08435883  0.10559923  0.85510276  1  -0.085361  0  -0.088001  -0.186686  0  3.904524  0
C  C119  1  0.91564236  0.89440137  0.35510168  1  -0.085357  0  -0.087987  -0.186706  0  3.904555  0
C  C120  1  0.25552008  0.64062441  0.84096943  1  0.304232  0  0.084128  0.27042  0  4.002544  0
C  C121  1  0.74447853  0.35937491  0.34096764  1  0.304218  0  0.084197  0.270546  0  4.002539  0
C  C122  1  0.24447799  0.14062430  0.84097033  1  0.304222  0  0.08419  0.270481  0  4.00255  0
C  C123  1  0.75551931  0.85937688  0.34096921  1  0.304667  0  0.084257  0.270556  0  4.002599  0
C  C124  1  0.22897605  0.72553590  0.84742258  1  -0.046158  0  -0.079941  -0.174053  0  3.904125  0
C  C125  1  0.77102256  0.27446406  0.34741943  1  -0.046107  0  -0.079919  -0.17407  0  3.904212  0
C  C126  1  0.27102312  0.22553454  0.84742100  1  -0.04611  0  -0.079936  -0.174059  0  3.904192  0
C  C127  1  0.72897678  0.77446666  0.34742100  1  -0.046561  0  -0.080017  -0.174199  0  3.904292  0
C  C128  1  0.33652397  0.86751793  0.87323748  1  1.586241  0  0.200851  0.56622  0  4.229878  0
C  C129  1  0.66347462  0.13248273  0.37323415  1  1.587327  0  0.200746  0.565979  0  4.230072  0
C  C130  1  0.16347875  0.36751786  0.87323632  1  1.586571  0  0.200776  0.566051  0  4.230135  0
C  C131  1  0.83651854  0.63248342  0.37323530  1  1.587466  0  0.200819  0.566166  0  4.22977  0
C  C132  1  0.72419492  0.62080838  0.88876346  1  1.524373  0  0.199517  0.560413  0  4.205126  0
C  C133  1  0.27580756  0.37919295  0.38876418  1  1.524272  0  0.199491  0.560329  0  4.205076  0
C  C134  1  0.77580711  0.12080949  0.88876435  1  1.524252  0  0.199461  0.560277  0  4.205162  0
C  C135  1  0.22419537  0.87919183  0.38876246  1  1.524306  0  0.199565  0.560397  0  4.205011  0
C  C136  1  0.13870940  0.75635263  0.25088307  1  -0.0036  0  -0.022373  -0.031694  0  4.005771  0
C  C137  1  0.86129185  0.24364703  0.75088388  1  -0.003585  0  -0.022401  -0.031732  0  4.005726  0
C  C138  1  0.36128998  0.25635246  0.25088355  1  -0.003592  0  -0.022428  -0.031833  0  4.005851  0
C  C139  1  0.63871516  0.74364658  0.75088217  1  -0.00361  0  -0.02236  -0.031725  0  4.005749  0
C  C140  1  0.97824103  0.72157738  0.23769795  1  -0.034833  0  -0.08455  -0.123697  0  3.95969  0
C  C141  1  0.02176282  0.27842286  0.73769885  1  -0.034605  0  -0.084525  -0.123629  0  3.959659  0
C  C142  1  0.52175978  0.22157677  0.23769680  1  -0.034816  0  -0.084496  -0.123666  0  3.959568  0
C  C143  1  0.47824407  0.77842161  0.73769753  1  -0.034562  0  -0.084497  -0.123614  0  3.959435  0
C  C144  1  0.95099477  0.63644304  0.24399301  1  -0.067751  0  -0.021137  -0.028545  0  4.009039  0
C  C145  1  0.04900777  0.36355660  0.74399362  1  -0.067999  0  -0.021184  -0.028624  0  4.009066  0
C  C146  1  0.54900623  0.13644242  0.24399227  1  -0.068007  0  -0.021179  -0.028578  0  4.009076  0
C  C147  1  0.45099632  0.86355784  0.74399353  1  -0.067709  0  -0.021166  -0.028496  0  4.008875  0
C  C148  1  0.08531792  0.58628021  0.26336501  1  0.038827  0  -0.087143  -0.184404  0  3.901676  0
C  C149  1  0.91468073  0.41371948  0.76336564  1  0.038831  0  -0.08717  -0.184523  0  3.901789  0
C  C150  1  0.41468055  0.08628001  0.26336425  1  0.038832  0  -0.087129  -0.184369  0  3.90171  0
C  C151  1  0.58531939  0.91371845  0.76336598  1  0.038841  0  -0.087159  -0.184502  0  3.901828  0
C  C152  1  0.24575387  0.62113445  0.27732511  1  0.295319  0  0.084357  0.270901  0  4.00349  0
C  C153  1  0.75424606  0.37886529  0.77732529  1  0.295282  0  0.084377  0.270973  0  4.003416  0
C  C154  1  0.25424711  0.12113434  0.27732519  1  0.29531  0  0.08436  0.27083  0  4.003541  0
C  C155  1  0.74575672  0.87886541  0.77732522  1  0.295387  0  0.084333  0.270885  0  4.00353  0
C  C156  1  0.27276382  0.70599885  0.27080873  1  -0.016642  0  -0.080719  -0.176043  0  3.90509  0
C  C157  1  0.72723612  0.29400025  0.77080798  1  -0.016625  0  -0.080663  -0.17595  0  3.904984  0
C  C158  1  0.22723567  0.20599937  0.27080840  1  -0.016653  0  -0.080675  -0.175902  0  3.905065  0
C  C159  1  0.77276817  0.79400097  0.77080749  1  -0.016654  0  -0.080712  -0.17601  0  3.905094  0
C  C160  1  0.16556094  0.84801800  0.24472293  1  1.561748  0  0.202093  0.567786  0  4.227402  0
C  C161  1  0.83443901  0.15198164  0.74472281  1  1.561792  0  0.202075  0.56778  0  4.227414  0
C  C162  1  0.33443953  0.34801784  0.24472300  1  1.561745  0  0.202065  0.567772  0  4.227477  0
C  C163  1  0.66556301  0.65198118  0.74472274  1  1.561742  0  0.202102  0.567833  0  4.227434  0
C  C164  1  0.77618454  0.60198442  0.23019992  1  1.535965  0  0.201278  0.562019  0  4.204219  0
C  C165  1  0.22381542  0.39801765  0.73020015  1  1.536665  0  0.201354  0.562147  0  4.204063  0
C  C166  1  0.72381526  0.10198185  0.23019835  1  1.536241  0  0.201321  0.562064  0  4.204245  0
C  C167  1  0.27618340  0.89801527  0.73020090  1  1.536755  0  0.201289  0.561997  0  4.204329  0
C  C168  1  0.21191103  0.01315267  0.97319411  1  0.477357  0  0.048691  0.101406  0  3.959106  0
C  C169  1  0.78809271  0.98684892  0.47319275  1  0.477596  0  0.048733  0.101467  0  3.959097  0
C  C170  1  0.28808857  0.51315400  0.97319280  1  0.477406  0  0.048704  0.101393  0  3.959188  0
C  C171  1  0.71190738  0.48684758  0.47319283  1  0.477523  0  0.048784  0.101512  0  3.959134  0
C  C172  1  0.06513930  0.04116239  0.00083880  1  -0.054387  0  -0.084075  -0.180538  0  3.928896  0
C  C173  1  0.93486336  0.95883773  0.50083770  1  -0.054478  0  -0.084071  -0.180606  0  3.928793  0
C  C174  1  0.43486070  0.54116426  0.00083748  1  -0.054352  0  -0.084065  -0.180474  0  3.928759  0
C  C175  1  0.56513418  0.45883710  0.50083737  1  -0.054376  0  -0.084117  -0.180631  0  3.928969  0
C  C176  1  0.04581812  0.12575257  0.01136405  1  0.071924  0  0.018743  0.174829  0  3.939002  0
C  C177  1  0.95417934  0.87424697  0.51136366  1  0.07195  0  0.018757  0.17489  0  3.938925  0
C  C178  1  0.45417778  0.62575505  0.01136355  1  0.071718  0  0.018748  0.174733  0  3.93903  0
C  C179  1  0.54581579  0.37424696  0.51136292  1  0.071915  0  0.018805  0.17487  0  3.938863  0
C  C180  1  0.18221446  0.17790698  0.99530674  1  -0.098986  0  -0.082616  -0.183582  0  3.971419  0
C  C181  1  0.81778537  0.82209406  0.49530599  1  -0.098745  0  -0.082725  -0.183758  0  3.971499  0
C  C182  1  0.31778215  0.67790767  0.99530543  1  -0.098993  0  -0.082717  -0.18372  0  3.971597  0
C  C183  1  0.68221249  0.32209337  0.49530565  1  -0.098961  0  -0.082611  -0.183486  0  3.971361  0
C  C184  1  0.32541201  0.14589809  0.96839439  1  0.542174  0  0.041758  0.084448  0  3.962248  0
C  C185  1  0.67458783  0.85410472  0.46839327  1  0.541824  0  0.041861  0.084494  0  3.962064  0
C  C186  1  0.17458209  0.64589762  0.96839391  1  0.542475  0  0.041914  0.084684  0  3.962056  0
C  C187  1  0.82541256  0.35410333  0.46839457  1  0.542066  0  0.041714  0.084361  0  3.962237  0
C  C188  1  0.88713621  0.16339141  0.03684483  1  -0.004431  0  -0.153939  -0.207415  0  3.958289  0
C  C189  1  0.11286513  0.83660758  0.53684320  1  -0.004407  0  -0.153988  -0.207405  0  3.958167  0
C  C190  1  0.61286482  0.66339470  0.03684312  1  -0.00414  0  -0.153963  -0.207315  0  3.958157  0
C  C191  1  0.38712873  0.33660801  0.53684203  1  -0.00419  0  -0.154044  -0.207379  0  3.958284  0
C  C192  1  0.74736388  0.10514215  0.05861301  1  -0.022955  0  -0.163845  -0.135166  0  3.954557  0
C  C193  1  0.25263876  0.89485753  0.55861227  1  -0.022848  0  -0.16384  -0.135206  0  3.954583  0
C  C194  1  0.75263859  0.60514350  0.05861170  1  -0.022845  0  -0.163899  -0.135286  0  3.954578  0
C  C195  1  0.24735886  0.39485680  0.55861152  1  -0.022855  0  -0.163876  -0.135243  0  3.954633  0
C  C196  1  0.60746547  0.15741340  0.08614119  1  -0.041502  0  -0.154607  -0.206637  0  3.956495  0
C  C197  1  0.39253586  0.84258699  0.58614202  1  -0.041439  0  -0.154607  -0.206651  0  3.956535  0
C  C198  1  0.89253556  0.65741344  0.08614111  1  -0.041525  0  -0.154574  -0.20661  0  3.956631  0
C  C199  1  0.10746706  0.34258385  0.58614210  1  -0.041405  0  -0.154577  -0.206537  0  3.956632  0
C  C200  1  0.44979634  0.11472433  0.10850503  1  0.05009  0  0.018077  0.174968  0  3.936363  0
C  C201  1  0.55020368  0.88527550  0.60850467  1  0.050214  0  0.018067  0.174923  0  3.936417  0
C  C202  1  0.05020473  0.61472455  0.10850415  1  0.049871  0  0.018072  0.174978  0  3.936244  0
C  C203  1  0.94979268  0.38527219  0.60850391  1  0.05017  0  0.018032  0.174869  0  3.936465  0
C  C204  1  0.43728272  0.02949404  0.11808155  1  -0.075086  0  -0.084314  -0.181806  0  3.928151  0
C  C205  1  0.56271469  0.97050645  0.61808337  1  -0.075607  0  -0.08429  -0.18173  0  3.928082  0
C  C206  1  0.06271855  0.52949425  0.11808314  1  -0.07504  0  -0.084332  -0.181918  0  3.92813  0
C  C207  1  0.93728147  0.47050252  0.61808384  1  -0.07553  0  -0.084254  -0.181711  0  3.928232  0
C  C208  1  0.29193788  0.99800125  0.14490075  1  0.466525  0  0.047437  0.099042  0  3.960171  0
C  C209  1  0.70806082  0.00199931  0.64490207  1  0.466483  0  0.047369  0.098931  0  3.960143  0
C  C210  1  0.20806359  0.49800054  0.14490165  1  0.466498  0  0.047413  0.099048  0  3.960092  0
C  C211  1  0.79193771  0.50199507  0.64490323  1  0.46653  0  0.047451  0.098997  0  3.960231  0
C  C212  1  0.16651869  0.12820320  0.15011052  1  0.437065  0  0.040713  0.083373  0  3.965829  0
C  C213  1  0.83348130  0.87179676  0.65010972  1  0.437202  0  0.040754  0.083381  0  3.965718  0
C  C214  1  0.33348363  0.62820265  0.15010921  1  0.437278  0  0.040702  0.08333  0  3.965859  0
C  C215  1  0.66651637  0.37179360  0.65010897  1  0.437108  0  0.040738  0.083423  0  3.965697  0
C  C216  1  0.30752971  0.16347157  0.12392632  1  -0.040671  0  -0.082678  -0.180789  0  3.976158  0
C  C217  1  0.69247030  0.83652832  0.62392507  1  -0.040679  0  -0.082685  -0.180771  0  3.976122  0
C  C218  1  0.19247514  0.66347171  0.12392461  1  -0.04051  0  -0.082636  -0.180713  0  3.976018  0
C  C219  1  0.80752486  0.33652508  0.62392309  1  -0.040715  0  -0.082604  -0.180719  0  3.976091  0
N  N220  1  0.11816142  0.58682713  0.82378832  1  -1.235522  0  -0.598664  -0.593651  0  3.379208  0
N  N221  1  0.88183720  0.41317337  0.32378701  1  -1.235441  0  -0.598676  -0.59366  0  3.379194  0
N  N222  1  0.38183809  0.08682571  0.82378839  1  -1.235501  0  -0.598685  -0.59364  0  3.379221  0
N  N223  1  0.61816183  0.91317479  0.32378776  1  -1.235535  0  -0.598704  -0.593592  0  3.379229  0
N  N224  1  0.38291141  0.56711489  0.29430952  1  -1.246163  0  -0.599384  -0.59471  0  3.380308  0
N  N225  1  0.61708852  0.43288490  0.79430937  1  -1.246161  0  -0.599329  -0.59469  0  3.380142  0
N  N226  1  0.11708969  0.06711485  0.29430960  1  -1.246141  0  -0.599327  -0.594614  0  3.380136  0
N  N227  1  0.88291284  0.93288494  0.79431052  1  -1.246247  0  -0.599392  -0.594903  0  3.380284  0
N  N228  1  0.33960332  0.06434776  0.95659761  1  -1.28356  0  -0.339982  -0.262292  0  3.597098  0
N  N229  1  0.66040043  0.93565563  0.45659619  1  -1.283455  0  -0.340074  -0.262315  0  3.597037  0
N  N230  1  0.16039487  0.56434668  0.95659796  1  -1.284049  0  -0.340048  -0.262438  0  3.597091  0
N  N231  1  0.83960108  0.43565361  0.45659832  1  -1.283722  0  -0.340027  -0.26231  0  3.597058  0
N  N232  1  0.15916091  0.04632788  0.16145015  1  -1.258387  0  -0.34083  -0.264961  0  3.597236  0
N  N233  1  0.84083649  0.95367150  0.66145070  1  -1.258485  0  -0.340813  -0.26491  0  3.597169  0
N  N234  1  0.34083900  0.54632733  0.16145008  1  -1.258528  0  -0.340814  -0.264934  0  3.597224  0
N  N235  1  0.65916229  0.45366834  0.66145201  1  -1.258501  0  -0.340856  -0.264969  0  3.597248  0
O  O236  1  0.46752192  0.90657782  0.89462232  1  -1.177463  0  -0.342348  -0.565099  0  2.341391  0
O  O237  1  0.53247406  0.09342290  0.39461853  1  -1.177755  0  -0.342261  -0.565017  0  2.341477  0
O  O238  1  0.03247681  0.40657720  0.89461993  1  -1.177405  0  -0.342277  -0.565019  0  2.341519  0
O  O239  1  0.96751398  0.59342290  0.39462174  1  -1.177692  0  -0.342306  -0.565065  0  2.341456  0
O  O240  1  0.19733450  0.90095257  0.85813300  1  -1.204627  0  -0.323529  -0.563319  0  2.170004  0
O  O241  1  0.80266409  0.09904743  0.35813085  1  -1.205049  0  -0.323528  -0.563231  0  2.170124  0
O  O242  1  0.30266555  0.40095366  0.85813225  1  -1.205044  0  -0.323533  -0.563266  0  2.170106  0
O  O243  1  0.69733045  0.59904881  0.35812954  1  -1.205255  0  -0.323526  -0.563296  0  2.169852  0
O  O244  1  0.84077833  0.66734470  0.90731153  1  -1.186565  0  -0.318165  -0.548061  0  2.161922  0
O  O245  1  0.15922414  0.33265669  0.40731219  1  -1.186495  0  -0.318168  -0.548018  0  2.161971  0
O  O246  1  0.65922488  0.16734525  0.90731490  1  -1.186627  0  -0.318151  -0.548014  0  2.161868  0
O  O247  1  0.34078149  0.83265737  0.40731171  1  -1.186576  0  -0.318204  -0.548063  0  2.161942  0
O  O248  1  0.75047797  0.54186453  0.88055872  1  -1.169312  0  -0.329546  -0.550192  0  2.285992  0
O  O249  1  0.24952581  0.45813677  0.38055873  1  -1.169229  0  -0.329518  -0.550167  0  2.285843  0
O  O250  1  0.74951645  0.04186751  0.88055592  1  -1.16927  0  -0.329503  -0.550086  0  2.28596  0
O  O251  1  0.25047824  0.95813627  0.38055660  1  -1.169202  0  -0.329552  -0.550206  0  2.285893  0
O  O252  1  0.30532810  0.88139875  0.25930626  1  -1.196159  0  -0.323675  -0.562662  0  2.167871  0
O  O253  1  0.69467314  0.11860093  0.75930527  1  -1.196204  0  -0.32365  -0.562643  0  2.167885  0
O  O254  1  0.19467228  0.38139929  0.25930551  1  -1.196154  0  -0.323667  -0.562644  0  2.167869  0
O  O255  1  0.80532896  0.61859978  0.75930602  1  -1.196216  0  -0.323681  -0.562687  0  2.167902  0
O  O256  1  0.03422273  0.88700175  0.22342906  1  -1.171012  0  -0.343832  -0.566732  0  2.340486  0
O  O257  1  0.96577724  0.11299783  0.72342887  1  -1.171082  0  -0.343834  -0.566743  0  2.34047  0
O  O258  1  0.46577637  0.38700152  0.22342871  1  -1.171077  0  -0.343816  -0.566719  0  2.340521  0
O  O259  1  0.53422619  0.61299805  0.72342881  1  -1.171052  0  -0.343833  -0.566754  0  2.340485  0
O  O260  1  0.65942314  0.64940298  0.21281031  1  -1.187029  0  -0.317059  -0.547242  0  2.174091  0
O  O261  1  0.34057683  0.35059656  0.71281253  1  -1.187  0  -0.317084  -0.547278  0  2.174022  0
O  O262  1  0.84057525  0.14940158  0.21280833  1  -1.187012  0  -0.317077  -0.547286  0  2.174115  0
O  O263  1  0.15942601  0.85059610  0.71281123  1  -1.187114  0  -0.317055  -0.547242  0  2.17417  0
O  O264  1  0.74988998  0.52276510  0.23709393  1  -1.156845  0  -0.33019  -0.551275  0  2.281849  0
O  O265  1  0.25010997  0.47723637  0.73709098  1  -1.157337  0  -0.330227  -0.551344  0  2.281811  0
O  O266  1  0.75011388  0.02276437  0.23709236  1  -1.156853  0  -0.330208  -0.551283  0  2.281848  0
O  O267  1  0.24988867  0.97723339  0.73709543  1  -1.157542  0  -0.330192  -0.55127  0  2.281891  0
