# generated using pymatgen
data_AgH10C10SN2O3
_symmetry_space_group_name_H-M   'P 1'
_cell_length_a   5.24077272
_cell_length_b   10.37948477
_cell_length_c   12.38566626
_cell_angle_alpha   83.25247011
_cell_angle_beta   80.56796610
_cell_angle_gamma   80.54058904
_symmetry_Int_Tables_number   1
_chemical_formula_structural   AgH10C10SN2O3
_chemical_formula_sum   'Ag2 H20 C20 S2 N4 O6'
_cell_volume   652.74581882
_cell_formula_units_Z   2
loop_
 _symmetry_equiv_pos_site_id
 _symmetry_equiv_pos_as_xyz
  1  'x, y, z'
loop_
 _atom_site_type_symbol
 _atom_site_label
 _atom_site_symmetry_multiplicity
 _atom_site_fract_x
 _atom_site_fract_y
 _atom_site_fract_z
 _atom_site_occupancy
 _atom_site_hle17_bader_spin_density
 _atom_site_hle17_ddec_charge
 _atom_site_hle17_ddec_spin_density
 _atom_site_hle17_ddec_sum_bond_order
 _atom_site_hle17_magmom
 _atom_site_hse06_10hf_bader_spin_density
 _atom_site_hse06_10hf_ddec_charge
 _atom_site_hse06_10hf_ddec_spin_density
 _atom_site_hse06_10hf_ddec_sum_bond_order
 _atom_site_hse06_10hf_magmom
 _atom_site_hse06_bader_spin_density
 _atom_site_hse06_ddec_charge
 _atom_site_hse06_ddec_spin_density
 _atom_site_hse06_ddec_sum_bond_order
 _atom_site_hse06_magmom
 _atom_site_pbe_bader_spin_density
 _atom_site_pbe_cm5_charge
 _atom_site_pbe_ddec_charge
 _atom_site_pbe_ddec_spin_density
 _atom_site_pbe_ddec_sum_bond_order
 _atom_site_pbe_magmom
Ag  Ag0  1  0.21583767  0.40919270  0.85175510  1  0  0.451908  0  1.565151  0  0  0.323783  0  2.012622  0  0  0.349445  0  1.969167  0  0  0.418089  0.306518  0  2.042147  0
Ag  Ag1  1  0.78416674  0.59080899  0.14824321  1  0  0.451885  0  1.56515  0  0  0.323772  0  2.012598  0  0  0.34942  0  1.969178  0  0  0.418093  0.30651  0  2.042112  0
H  H2  1  0.66449966  0.51161782  0.40107156  1  0  0.083423  0  0.937987  0  0  0.09362  0  0.999459  0  0  0.095817  0  0.997567  0  0  0.115961  0.091984  0  1.000894  0
H  H3  1  0.33550441  0.48837898  0.59893052  1  0  0.083556  0  0.937916  0  0  0.093687  0  0.999439  0  0  0.095882  0  0.99755  0  0  0.115962  0.092046  0  1.00088  0
H  H4  1  0.83468577  0.34857962  0.55022037  1  0  0.112202  0  0.991986  0  0  0.115487  0  1.062591  0  0  0.119374  0  1.060694  0  0  0.103244  0.112653  0  1.064092  0
H  H5  1  0.16533369  0.65141720  0.44977814  1  0  0.11221  0  0.991899  0  0  0.11549  0  1.062528  0  0  0.11938  0  1.060625  0  0  0.103243  0.112654  0  1.06403  0
H  H6  1  0.24103359  0.19167000  0.50003134  1  0  0.103843  0  0.918947  0  0  0.118471  0  0.967597  0  0  0.121304  0  0.965581  0  0  0.115583  0.116304  0  0.969251  0
H  H7  1  0.75897995  0.80832677  0.49996357  1  0  0.103742  0  0.919017  0  0  0.118371  0  0.967671  0  0  0.121206  0  0.965653  0  0  0.115541  0.116196  0  0.969325  0
H  H8  1  0.44677741  0.19285334  0.30078051  1  0  0.106712  0  0.941829  0  0  0.120744  0  0.994897  0  0  0.123562  0  0.994771  0  0  0.107723  0.118672  0  0.995228  0
H  H9  1  0.55322194  0.80714533  0.69921285  1  0  0.106711  0  0.941862  0  0  0.120773  0  0.994895  0  0  0.123592  0  0.994769  0  0  0.107733  0.118701  0  0.995228  0
H  H10  1  0.33548889  0.45062053  0.10054948  1  0  0.120172  0  0.950326  0  0  0.131608  0  1.024947  0  0  0.133989  0  1.02185  0  0  0.102325  0.129644  0  1.02745  0
H  H11  1  0.66451832  0.54937821  0.89944812  1  0  0.12016  0  0.950312  0  0  0.131592  0  1.024945  0  0  0.133983  0  1.021823  0  0  0.102343  0.129627  0  1.027448  0
H  H12  1  0.43905139  0.27773853  0.11226601  1  0  0.115651  0  0.943503  0  0  0.130333  0  1.005972  0  0  0.131293  0  1.006941  0  0  0.101687  0.129416  0  1.005729  0
H  H13  1  0.56095199  0.72226020  0.88773269  1  0  0.115716  0  0.943541  0  0  0.130386  0  1.005996  0  0  0.131344  0  1.006967  0  0  0.101706  0.129461  0  1.005757  0
H  H14  1  0.86035662  0.15886113  0.01089542  1  0  0.120432  0  0.944851  0  0  0.134344  0  1.008085  0  0  0.135162  0  1.009318  0  0  0.105343  0.133665  0  1.007253  0
H  H15  1  0.13962737  0.84114445  0.98910804  1  0  0.120458  0  0.944847  0  0  0.134352  0  1.008065  0  0  0.135176  0  1.009304  0  0  0.105356  0.133671  0  1.007237  0
H  H16  1  0.92703376  0.14309019  0.14906942  1  0  0.099627  0  0.923821  0  0  0.115795  0  0.981847  0  0  0.117192  0  0.9813  0  0  0.099211  0.114806  0  0.981898  0
H  H17  1  0.07295320  0.85691834  0.85093351  1  0  0.09962  0  0.923872  0  0  0.115767  0  0.981905  0  0  0.117172  0  0.981362  0  0  0.099194  0.11478  0  0.981953  0
H  H18  1  0.31727385  0.01095770  0.19738614  1  0  0.092438  0  0.945462  0  0  0.104077  0  1.004133  0  0  0.107255  0  1.00279  0  0  0.099019  0.101709  0  1.005237  0
H  H19  1  0.68270942  0.98904396  0.80261779  1  0  0.092439  0  0.945415  0  0  0.104073  0  1.004084  0  0  0.107252  0  1.002741  0  0  0.099022  0.101701  0  1.005185  0
H  H20  1  0.25816637  0.12852934  0.85565296  1  0  0.10374  0  0.975691  0  0  0.111394  0  1.0442  0  0  0.115393  0  1.040707  0  0  0.09663  0.108336  0  1.046902  0
H  H21  1  0.74181359  0.87147032  0.14434982  1  0  0.103624  0  0.975933  0  0  0.111278  0  1.04441  0  0  0.115272  0  1.040929  0  0  0.096582  0.108223  0  1.047107  0
C  C22  1  0.83586525  0.43779870  0.38334785  1  0  0.130593  0  3.705686  0  0  0.099978  0  3.958055  0  0  0.106954  0  3.977424  0  0  0.045804  0.095446  0  3.94481  0
C  C23  1  0.16414678  0.56219712  0.61665132  1  0  0.130444  0  3.705516  0  0  0.099895  0  3.957835  0  0  0.106875  0  3.977199  0  0  0.045817  0.095364  0  3.944595  0
C  C24  1  0.93341851  0.34918853  0.46563727  1  0  -0.126385  0  3.739586  0  0  -0.139671  0  3.990311  0  0  -0.147722  0  4.012869  0  0  -0.087153  -0.134414  0  3.975184  0
C  C25  1  0.06658597  0.65081317  0.53436345  1  0  -0.126474  0  3.739612  0  0  -0.139773  0  3.990333  0  0  -0.147826  0  4.012893  0  0  -0.087239  -0.134517  0  3.975202  0
C  C26  1  0.15771361  0.26037887  0.43686468  1  0  0.004321  0  3.732441  0  0  -0.012696  0  3.976111  0  0  -0.009119  0  3.995537  0  0  -0.063175  -0.01483  0  3.962883  0
C  C27  1  0.84230472  0.73961498  0.56313099  1  0  0.004599  0  3.732479  0  0  -0.012409  0  3.976141  0  0  -0.008835  0  3.995572  0  0  -0.062994  -0.01454  0  3.962904  0
C  C28  1  0.27184506  0.26113181  0.32674942  1  0  -0.175321  0  3.72768  0  0  -0.192207  0  3.970218  0  0  -0.200774  0  3.993834  0  0  -0.088157  -0.186613  0  3.954309  0
C  C29  1  0.72814863  0.73886689  0.67324920  1  0  -0.175373  0  3.727601  0  0  -0.192313  0  3.970126  0  0  -0.200881  0  3.993746  0  0  -0.088252  -0.186723  0  3.95422  0
C  C30  1  0.15939094  0.35103038  0.24840572  1  0  0.257779  0  3.736106  0  0  0.263146  0  3.975668  0  0  0.269828  0  3.999085  0  0  0.11042  0.258656  0  3.95987  0
C  C31  1  0.84061269  0.64896736  0.75159145  1  0  0.25776  0  3.736393  0  0  0.263155  0  3.975881  0  0  0.269833  0  3.999307  0  0  0.110449  0.258663  0  3.960083  0
C  C32  1  0.27139237  0.35485998  0.12860305  1  0  -0.236455  0  3.666686  0  0  -0.283396  0  3.921033  0  0  -0.283637  0  3.929933  0  0  -0.153401  -0.282932  0  3.915033  0
C  C33  1  0.72860847  0.64514071  0.87139563  1  0  -0.236575  0  3.666872  0  0  -0.283479  0  3.921099  0  0  -0.283717  0  3.930002  0  0  -0.153458  -0.283002  0  3.915094  0
C  C34  1  0.00762811  0.16628655  0.06263258  1  0  -0.182406  0  3.654026  0  0  -0.227399  0  3.910075  0  0  -0.226515  0  3.920588  0  0  -0.145219  -0.227606  0  3.901968  0
C  C35  1  0.99236000  0.83371805  0.93736906  1  0  -0.182381  0  3.653939  0  0  -0.227327  0  3.910013  0  0  -0.226485  0  3.920579  0  0  -0.145194  -0.227535  0  3.901907  0
C  C36  1  0.26053792  0.08021455  0.03025635  1  0  0.089868  0  3.779113  0  0  0.111743  0  4.017036  0  0  0.111103  0  4.042459  0  0  -0.01958  0.111982  0  3.999845  0
C  C37  1  0.73944567  0.91978613  0.96974847  1  0  0.089939  0  3.779006  0  0  0.111746  0  4.016962  0  0  0.111124  0  4.042386  0  0  -0.019575  0.111993  0  3.999762  0
C  C38  1  0.39859279  0.00700732  0.11062291  1  0  -0.11856  0  3.738536  0  0  -0.140196  0  3.991436  0  0  -0.142817  0  4.012878  0  0  -0.096732  -0.138033  0  3.977087  0
C  C39  1  0.60139658  0.99299337  0.88938066  1  0  -0.118613  0  3.738558  0  0  -0.140207  0  3.991451  0  0  -0.142833  0  4.012895  0  0  -0.09673  -0.138041  0  3.977081  0
C  C40  1  0.36450966  0.07253972  0.91905507  1  0  -0.111035  0  3.731455  0  0  -0.133173  0  3.98592  0  0  -0.135639  0  4.006402  0  0  -0.095896  -0.131839  0  3.972196  0
C  C41  1  0.63547167  0.92746193  0.08094901  1  0  -0.111016  0  3.731567  0  0  -0.133138  0  3.986099  0  0  -0.135598  0  4.006562  0  0  -0.095861  -0.131811  0  3.972384  0
S  S42  1  0.02925526  0.34188797  0.04240803  1  0  0.013787  0  2.797243  0  0  0.053891  0  3.228503  0  0  0.048446  0  3.216671  0  0  -0.017277  0.057304  0  3.235987  0
S  S43  1  0.97074624  0.65811663  0.95758777  1  0  0.013828  0  2.797279  0  0  0.053898  0  3.228504  0  0  0.048465  0  3.216685  0  0  -0.017272  0.057305  0  3.23599  0
N  N44  1  0.94559986  0.43905079  0.27735755  1  0  -0.333402  0  3.264703  0  0  -0.261476  0  3.534787  0  0  -0.280647  0  3.552574  0  0  -0.336626  -0.248499  0  3.522601  0
N  N45  1  0.05439172  0.56094892  0.72264516  1  0  -0.333404  0  3.264889  0  0  -0.261471  0  3.53489  0  0  -0.280646  0  3.552684  0  0  -0.336634  -0.248495  0  3.522708  0
N  N46  1  0.74875311  0.28728160  0.76862577  1  0  0.711582  0  4.107541  0  0  0.72681  0  4.417467  0  0  0.75547  0  4.424651  0  0  0.084411  0.707472  0  4.411905  0
N  N47  1  0.25125360  0.71271913  0.23137489  1  0  0.711625  0  4.107723  0  0  0.726852  0  4.417646  0  0  0.755515  0  4.424826  0  0  0.084486  0.707492  0  4.412102  0
O  O48  1  0.68916208  0.32639930  0.86545568  1  0  -0.509298  0  1.83007  0  0  -0.477129  0  2.082356  0  0  -0.496922  0  2.074801  0  0  -0.212884  -0.463311  0  2.087698  0
O  O49  1  0.31083883  0.67360141  0.13454542  1  0  -0.509323  0  1.830111  0  0  -0.477147  0  2.082386  0  0  -0.496937  0  2.074832  0  0  -0.212894  -0.46332  0  2.08773  0
O  O50  1  0.57207043  0.30553345  0.70669318  1  0  -0.472651  0  1.752609  0  0  -0.447956  0  1.977724  0  0  -0.464277  0  1.968779  0  0  -0.202794  -0.436337  0  1.983531  0
O  O51  1  0.42794111  0.69447021  0.29330439  1  0  -0.472623  0  1.7527  0  0  -0.447924  0  1.977814  0  0  -0.464245  0  1.968868  0  0  -0.202765  -0.436296  0  1.983619  0
O  O52  1  0.97627548  0.23313812  0.73622163  1  0  -0.452526  0  1.725906  0  0  -0.439883  0  1.940605  0  0  -0.453474  0  1.933148  0  0  -0.186551  -0.430103  0  1.945365  0
O  O53  1  0.02373356  0.76686166  0.26378219  1  0  -0.452572  0  1.725969  0  0  -0.439941  0  1.940669  0  0  -0.453534  0  1.933217  0  0  -0.18666  -0.430154  0  1.945429  0
