# generated using pymatgen
data_AlH14C22(BrO3)2
_symmetry_space_group_name_H-M   'P 1'
_cell_length_a   6.63742502
_cell_length_b   21.61370478
_cell_length_c   28.04862951
_cell_angle_alpha   101.17051732
_cell_angle_beta   89.01390207
_cell_angle_gamma   89.68353888
_symmetry_Int_Tables_number   1
_chemical_formula_structural   AlH14C22(BrO3)2
_chemical_formula_sum   'Al4 H56 C88 Br8 O24'
_cell_volume   3946.86073805
_cell_formula_units_Z   4
loop_
 _symmetry_equiv_pos_site_id
 _symmetry_equiv_pos_as_xyz
  1  'x, y, z'
loop_
 _atom_site_type_symbol
 _atom_site_label
 _atom_site_symmetry_multiplicity
 _atom_site_fract_x
 _atom_site_fract_y
 _atom_site_fract_z
 _atom_site_occupancy
 _atom_site_pbe_bader_charge
 _atom_site_pbe_bader_spin_density
 _atom_site_pbe_cm5_charge
 _atom_site_pbe_ddec_charge
 _atom_site_pbe_ddec_spin_density
 _atom_site_pbe_ddec_sum_bond_order
 _atom_site_pbe_magmom
Al  Al0  1  0.19538709  0.75016773  0.25119168  1  2.501787  0  0.393357  1.651462  0  2.566215  0
Al  Al1  1  0.79639076  0.25218044  0.74957555  1  2.501736  0  0.391946  1.655399  0  2.560978  0
Al  Al2  1  0.69508978  0.75349463  0.24926470  1  2.501126  0  0.391418  1.647746  0  2.560117  0
Al  Al3  1  0.29668722  0.24701608  0.75009724  1  2.501714  0  0.392944  1.655718  0  2.560007  0
H  H4  1  0.22547049  0.61369511  0.93500094  1  0.071909  0  0.102649  0.103712  0  0.992668  0
H  H5  1  0.01501372  0.37694601  0.07041557  1  0.073905  0  0.101572  0.101865  0  0.995084  0
H  H6  1  0.82712783  0.90144098  0.55508923  1  0.044499  0  0.103192  0.105023  0  0.989117  0
H  H7  1  0.17310240  0.09911300  0.44518482  1  0.064542  0  0.103423  0.105139  0  0.989189  0
H  H8  1  0.97630365  0.53929674  0.20956972  1  0.091208  0  0.097881  0.102478  0  1.023135  0
H  H9  1  0.21945167  0.45052150  0.79590966  1  0.108903  0  0.098021  0.100339  0  1.032761  0
H  H10  1  0.29247794  0.95694382  0.29734449  1  0.083861  0  0.099252  0.100117  0  1.027749  0
H  H11  1  0.70642193  0.04397746  0.70283850  1  0.084632  0  0.099683  0.100335  0  1.028726  0
H  H12  1  0.25585190  0.55270949  0.85461134  1  0.075664  0  0.105484  0.107173  0  0.990137  0
H  H13  1  0.99080241  0.43625153  0.15117323  1  0.0564  0  0.105052  0.105358  0  0.992962  0
H  H14  1  0.79158546  0.94926228  0.63894307  1  0.0854  0  0.106479  0.108385  0  0.989288  0
H  H15  1  0.20740043  0.05145324  0.36142583  1  0.076542  0  0.105782  0.106887  0  0.990671  0
H  H16  1  0.12831277  0.62636144  0.02049872  1  0.067559  0  0.085961  0.091254  0  1.075316  0
H  H17  1  0.01990858  0.36879069  0.98247825  1  0.043596  0  0.08583  0.090644  0  1.074636  0
H  H18  1  0.74409433  0.89410793  0.46984309  1  0.068946  0  0.087249  0.095394  0  1.071858  0
H  H19  1  0.25832548  0.10668074  0.53036278  1  0.069444  0  0.087141  0.095476  0  1.068936  0
H  H20  1  0.25068710  0.96424105  0.10557067  1  0.081357  0  0.102908  0.113876  0  1.011694  0
H  H21  1  0.74285693  0.03605078  0.89263395  1  0.098702  0  0.103423  0.115179  0  1.010557  0
H  H22  1  0.74101048  0.53701107  0.39220204  1  0.094808  0  0.104805  0.116192  0  1.008451  0
H  H23  1  0.25354718  0.46517097  0.60781719  1  0.090268  0  0.104333  0.114052  0  1.011731  0
H  H24  1  0.68314556  0.82387615  0.12554400  1  0.117828  0  0.111235  0.132647  0  1.004279  0
H  H25  1  0.31539194  0.17585098  0.87531574  1  0.116014  0  0.1124  0.13311  0  0.998323  0
H  H26  1  0.16876790  0.67899937  0.37781921  1  0.102795  0  0.104774  0.113858  0  1.046702  0
H  H27  1  0.81801665  0.32033421  0.62177381  1  0.10933  0  0.105356  0.115306  0  1.046661  0
H  H28  1  0.66574137  0.98835779  0.03915105  1  0.048843  0  0.101892  0.105322  0  1.017377  0
H  H29  1  0.32809809  0.00872535  0.95864536  1  0.076015  0  0.101982  0.105347  0  1.016061  0
H  H30  1  0.35446321  0.60865987  0.52074734  1  0.097551  0  0.103887  0.104463  0  1.010727  0
H  H31  1  0.63832087  0.39159124  0.47857588  1  0.073496  0  0.103476  0.104109  0  1.010879  0
H  H32  1  0.69395336  0.05236359  0.97532451  1  0.100838  0  0.100536  0.101762  0  1.034885  0
H  H33  1  0.29996426  0.94483010  0.02252741  1  0.083799  0  0.100724  0.101856  0  1.034861  0
H  H34  1  0.40357622  0.54736708  0.58492605  1  0.080725  0  0.10188  0.103195  0  0.998152  0
H  H35  1  0.58969629  0.45301776  0.41442644  1  0.056129  0  0.101761  0.103276  0  0.998178  0
H  H36  1  0.70762121  0.78353929  0.01876049  1  0.062757  0  0.09077  0.049157  0  0.98289  0
H  H37  1  0.82968192  0.84030452  0.98978897  1  0.032258  0  0.094692  0.052102  0  0.982905  0
H  H38  1  0.49923079  0.87307271  0.96096773  1  0.033018  0  0.091009  0.12505  0  1.004477  0
H  H39  1  0.53219352  0.79014727  0.94217501  1  0.022851  0  0.094878  0.126994  0  0.993225  0
H  H40  1  0.36983691  0.82067429  0.99260232  1  0.063555  0  0.093124  0.128741  0  0.994019  0
H  H41  1  0.16765197  0.15778296  0.00992517  1  0.044427  0  0.094382  0.050554  0  0.9824  0
H  H42  1  0.29120334  0.21402530  0.98069241  1  0.046673  0  0.094897  0.052791  0  0.969354  0
H  H43  1  0.62811718  0.17622864  0.00676781  1  0.045235  0  0.0931  0.12801  0  0.995119  0
H  H44  1  0.46678288  0.20702079  0.05731485  1  0.030639  0  0.094696  0.1265  0  0.993533  0
H  H45  1  0.49781361  0.12402921  0.03840928  1  0.02886  0  0.091575  0.126153  0  1.004183  0
H  H46  1  0.90166277  0.65779466  0.42275753  1  0.047907  0  0.092743  0.055926  0  1.014168  0
H  H47  1  0.06471986  0.71306854  0.45866998  1  0.034507  0  0.098281  0.058014  0  0.971687  0
H  H48  1  0.94879018  0.67463297  0.53379601  1  0.020861  0  0.0918  0.124115  0  0.994131  0
H  H49  1  0.73849074  0.70014268  0.50363865  1  0.030078  0  0.092894  0.126573  0  0.993832  0
H  H50  1  0.79108141  0.61825514  0.49791423  1  0.062263  0  0.090868  0.130166  0  1.021173  0
H  H51  1  0.93035698  0.28653995  0.54256168  1  0.036261  0  0.097241  0.056045  0  0.972449  0
H  H52  1  0.08749357  0.34377935  0.57846834  1  0.043136  0  0.093159  0.056291  0  1.010984  0
H  H53  1  0.20094207  0.38155923  0.50272401  1  0.033092  0  0.090845  0.129674  0  1.021232  0
H  H54  1  0.25926415  0.30037027  0.49894265  1  0.033764  0  0.092653  0.126135  0  0.99467  0
H  H55  1  0.04987098  0.32299417  0.46697338  1  0.025383  0  0.091252  0.122826  0  0.99438  0
H  H56  1  0.44924733  0.71042801  0.19057944  1  0.632992  0  0.354066  0.436059  0  0.845679  0
H  H57  1  0.53916239  0.29067254  0.80963951  1  0.622006  0  0.347464  0.426608  0  0.865838  0
H  H58  1  0.93122871  0.74032961  0.30958727  1  0.625056  0  0.345069  0.423457  0  0.869271  0
H  H59  1  0.05505609  0.24313487  0.68626725  1  0.604688  0  0.355366  0.436343  0  0.843321  0
C  C60  1  0.44375167  0.68400320  0.31059477  1  1.591458  0  0.260923  0.650957  0  4.094791  0
C  C61  1  0.54336731  0.31644725  0.68895596  1  1.577318  0  0.258989  0.646023  0  4.106543  0
C  C62  1  0.95707166  0.82009686  0.19193046  1  1.577952  0  0.265004  0.647667  0  4.101207  0
C  C63  1  0.04142529  0.18240530  0.80921060  1  1.603316  0  0.265281  0.649817  0  4.093298  0
C  C64  1  0.44266263  0.84761630  0.31003823  1  1.620402  0  0.263801  0.644894  0  4.13649  0
C  C65  1  0.55723729  0.15308741  0.69021626  1  1.601808  0  0.261984  0.643405  0  4.134241  0
C  C66  1  0.94683229  0.65430973  0.18941725  1  1.609442  0  0.260015  0.646297  0  4.135368  0
C  C67  1  0.04006579  0.34730638  0.80983190  1  1.60964  0  0.264293  0.651029  0  4.113646  0
C  C68  1  0.05805411  0.40639784  0.84770876  1  0.004603  0  -0.018873  -0.077225  0  3.979385  0
C  C69  1  0.95852028  0.59363271  0.15266883  1  0.103426  0  -0.018068  -0.072233  0  3.982598  0
C  C70  1  0.57525777  0.09458815  0.65153166  1  0.055991  0  -0.017185  -0.07416  0  3.973303  0
C  C71  1  0.42602086  0.90649232  0.34848852  1  -0.005156  0  -0.016516  -0.072933  0  3.97337  0
C  C72  1  0.18571826  0.51219757  0.86585896  1  0.027631  0  -0.089431  -0.132265  0  4.007767  0
C  C73  1  0.98608060  0.48061326  0.13815201  1  -0.006097  0  -0.089282  -0.131578  0  4.009933  0
C  C74  1  0.70980130  0.98922456  0.62988634  1  -0.104448  0  -0.08963  -0.134598  0  4.00809  0
C  C75  1  0.29020603  0.01158158  0.37032372  1  -0.021817  0  -0.089719  -0.133106  0  4.008104  0
C  C76  1  0.16307047  0.45651881  0.83327522  1  -0.07485  0  -0.087772  -0.08635  0  4.007134  0
C  C77  1  0.97646004  0.53722927  0.17043020  1  -0.091  0  -0.086565  -0.086051  0  4.005733  0
C  C78  1  0.66475401  0.04132727  0.66505490  1  0.04188  0  -0.083861  -0.078655  0  3.994588  0
C  C79  1  0.33531054  0.95959699  0.33505688  1  -0.032647  0  -0.082393  -0.077938  0  3.993713  0
C  C80  1  0.99012320  0.41153294  0.89552149  1  -0.102843  0  -0.007347  0.04009  0  3.867942  0
C  C81  1  0.95823261  0.59247124  0.10297053  1  -0.139425  0  -0.006825  0.040005  0  3.863946  0
C  C82  1  0.52395572  0.09333832  0.60352544  1  -0.111777  0  -0.004052  0.0459  0  3.844534  0
C  C83  1  0.47921073  0.90774947  0.39635554  1  -0.067122  0  -0.003082  0.045745  0  3.84751  0
C  C84  1  0.03762087  0.46487363  0.93219715  1  0.024044  0  -0.0026  -0.009414  0  3.89881  0
C  C85  1  0.98992989  0.53555498  0.06810282  1  0.043617  0  -0.001239  -0.005746  0  3.90042  0
C  C86  1  0.54504819  0.03751572  0.56682582  1  -0.017203  0  -0.003257  -0.011642  0  3.903058  0
C  C87  1  0.45775508  0.96346133  0.43315554  1  -0.017425  0  -0.00355  -0.011963  0  3.901097  0
C  C88  1  0.12458267  0.51739770  0.91499166  1  -0.017114  0  -0.004894  0.089572  0  4.023465  0
C  C89  1  0.99251254  0.47866098  0.08750868  1  -0.028405  0  -0.005689  0.086942  0  4.022588  0
C  C90  1  0.65601423  0.98694863  0.58105583  1  0.014952  0  -0.005981  0.087297  0  4.025342  0
C  C91  1  0.34530106  0.01387413  0.41907318  1  0.055944  0  -0.005274  0.086653  0  4.025916  0
C  C92  1  0.01342449  0.46991809  0.98448855  1  0.039426  0  -0.002578  0.045101  0  3.928883  0
C  C93  1  0.02538627  0.53005778  0.01608905  1  -0.045213  0  -0.003129  0.044605  0  3.928095  0
C  C94  1  0.46997575  0.02757612  0.51752893  1  0.045836  0  -0.005423  0.041508  0  3.934696  0
C  C95  1  0.53316659  0.97345871  0.48243677  1  -0.013093  0  -0.003534  0.044007  0  3.930165  0
C  C96  1  0.10043291  0.58173574  0.99641358  1  0.087336  0  -0.101431  -0.132969  0  4.050453  0
C  C97  1  0.00819374  0.41505276  0.00575657  1  0.005938  0  -0.102564  -0.136884  0  4.05904  0
C  C98  1  0.67522547  0.93116354  0.49687641  1  -0.018157  0  -0.103338  -0.138447  0  4.055987  0
C  C99  1  0.32718660  0.06973473  0.50324152  1  -0.038775  0  -0.103211  -0.13844  0  4.059979  0
C  C100  1  0.15523483  0.57478098  0.94852431  1  -0.143225  0  -0.094454  -0.132364  0  4.027  0
C  C101  1  0.00599280  0.41946731  0.05495392  1  -0.070137  0  -0.094989  -0.13079  0  4.031978  0
C  C102  1  0.72519379  0.93594017  0.54442880  1  -0.054256  0  -0.092993  -0.129602  0  4.024224  0
C  C103  1  0.27603757  0.06480427  0.45576975  1  -0.074399  0  -0.093623  -0.129849  0  4.027718  0
C  C104  1  0.12796409  0.89974933  0.14731173  1  -0.105187  0  -0.009851  0.095621  0  3.93629  0
C  C105  1  0.86758218  0.10210667  0.85255888  1  -0.120802  0  -0.012444  0.088466  0  3.954057  0
C  C106  1  0.61528963  0.60268408  0.35233684  1  -0.109514  0  -0.024148  0.068244  0  3.974607  0
C  C107  1  0.37629584  0.39921865  0.64778949  1  -0.122502  0  -0.022395  0.071019  0  3.972786  0
C  C108  1  0.12715854  0.93237005  0.10909194  1  0.017791  0  -0.097719  -0.179426  0  3.993276  0
C  C109  1  0.86731912  0.06778893  0.88974811  1  -0.016625  0  -0.097352  -0.178884  0  4.000035  0
C  C110  1  0.61298864  0.56768460  0.38914678  1  -0.03237  0  -0.09882  -0.185427  0  4.021013  0
C  C111  1  0.37972568  0.43370782  0.61065202  1  0.018284  0  -0.099536  -0.185803  0  4.02583  0
C  C112  1  0.97055411  0.92632279  0.07553328  1  -0.000365  0  -0.006622  -0.003977  0  3.976762  0
C  C113  1  0.02427036  0.07227355  0.92315542  1  0.019366  0  -0.007645  -0.00628  0  3.978777  0
C  C114  1  0.45619645  0.57286138  0.42378807  1  0.013588  0  -0.008384  -0.00541  0  3.967306  0
C  C115  1  0.53528230  0.42742623  0.57562154  1  0.016796  0  -0.008635  -0.005655  0  3.965606  0
C  C116  1  0.80973087  0.88600475  0.08209542  1  0.476672  0  0.07633  0.191586  0  4.053312  0
C  C117  1  0.18606599  0.11261336  0.91742940  1  0.43271  0  0.076106  0.191233  0  4.050933  0
C  C118  1  0.29450345  0.61473764  0.41997003  1  0.525367  0  0.08376  0.205677  0  4.049855  0
C  C119  1  0.69525649  0.38492625  0.57942288  1  0.434252  0  0.085252  0.208077  0  4.046012  0
C  C120  1  0.80935202  0.85421601  0.12070197  1  0.019368  0  -0.092773  -0.201463  0  4.000115  0
C  C121  1  0.18785344  0.14576855  0.87959505  1  0.031354  0  -0.089816  -0.199223  0  3.998115  0
C  C122  1  0.29441732  0.64820076  0.38209649  1  -0.023111  0  -0.105996  -0.235579  0  4.025709  0
C  C123  1  0.69399661  0.35168562  0.61741115  1  0.036239  0  -0.106808  -0.236955  0  4.023222  0
C  C124  1  0.96757626  0.85966638  0.15386399  1  0.026956  0  -0.019816  -0.078924  0  3.967208  0
C  C125  1  0.02938280  0.14187568  0.84668384  1  0.052337  0  -0.01967  -0.074442  0  3.968365  0
C  C126  1  0.45425975  0.64345794  0.34804843  1  0.029665  0  -0.024131  -0.069744  0  3.982807  0
C  C127  1  0.53486875  0.35734997  0.65173115  1  0.01912  0  -0.024497  -0.071545  0  3.984465  0
C  C128  1  0.81075327  0.99232886  0.02130501  1  -0.019003  0  -0.091096  -0.124654  0  3.984116  0
C  C129  1  0.18313124  0.00476033  0.97649746  1  -0.024002  0  -0.090953  -0.124077  0  3.981482  0
C  C130  1  0.41538322  0.56094805  0.51119459  1  -0.086747  0  -0.089863  -0.122721  0  3.999447  0
C  C131  1  0.57725337  0.43926770  0.48812892  1  -0.01594  0  -0.088573  -0.120781  0  3.999718  0
C  C132  1  0.82694750  0.02815071  0.98523927  1  -0.101147  0  -0.093964  -0.138035  0  3.983589  0
C  C133  1  0.16698147  0.96898943  0.01258655  1  -0.105935  0  -0.094321  -0.137815  0  3.985741  0
C  C134  1  0.44267880  0.52608307  0.54735168  1  -0.105458  0  -0.090294  -0.128668  0  3.985781  0
C  C135  1  0.55013983  0.47417134  0.45197581  1  -0.016319  0  -0.091335  -0.130446  0  3.990248  0
C  C136  1  0.01309436  0.03522847  0.96218876  1  0.01506  0  -0.009555  0.078507  0  4.005917  0
C  C137  1  0.98106934  0.96220069  0.03580154  1  -0.01383  0  -0.009707  0.077432  0  4.007484  0
C  C138  1  0.52297889  0.46444959  0.53672162  1  0.069559  0  -0.007149  0.07904  0  4.000701  0
C  C139  1  0.46938691  0.53571967  0.46259198  1  -0.059274  0  -0.008237  0.07774  0  4.003215  0
C  C140  1  0.68796770  0.82942803  0.00753580  1  0.388313  0  -0.066413  0.092541  0  3.92153  0
C  C141  1  0.51166322  0.82845133  0.97395056  1  -0.060151  0  -0.24278  -0.393881  0  3.977941  0
C  C142  1  0.30961423  0.16817277  0.99203123  1  0.412319  0  -0.065852  0.093974  0  3.922594  0
C  C143  1  0.48619026  0.16871620  0.02548554  1  -0.062176  0  -0.243868  -0.395878  0  3.97782  0
C  C144  1  0.99067660  0.66698707  0.45615758  1  0.423262  0  -0.066724  0.085471  0  3.90415  0
C  C145  1  0.85996944  0.66479258  0.50053707  1  -0.047745  0  -0.244578  -0.394911  0  3.96923  0
C  C146  1  0.00159617  0.33299189  0.54462628  1  0.398009  0  -0.065591  0.088799  0  3.896143  0
C  C147  1  0.13535140  0.33466560  0.50066180  1  -0.006052  0  -0.244686  -0.393477  0  3.968441  0
Br  Br148  1  0.88946709  0.67217038  0.08602437  1  -0.076386  0  0.048897  -0.049042  0  1.499485  0
Br  Br149  1  0.81684484  0.34508295  0.90793769  1  -0.06808  0  0.049397  -0.04059  0  1.464739  0
Br  Br150  1  0.54212197  0.82554697  0.40972708  1  -0.078234  0  0.049525  -0.044788  0  1.495416  0
Br  Br151  1  0.46751050  0.17562176  0.58931451  1  -0.078314  0  0.046584  -0.050383  0  1.493449  0
Br  Br152  1  0.35154375  0.91616975  0.18952690  1  -0.040992  0  0.057854  -0.020679  0  1.493214  0
Br  Br153  1  0.64404378  0.08903484  0.81018070  1  -0.040485  0  0.06056  -0.018624  0  1.505791  0
Br  Br154  1  0.84757969  0.59153350  0.31041071  1  -0.066209  0  0.050329  -0.037066  0  1.536259  0
Br  Br155  1  0.14760510  0.41368580  0.69083056  1  -0.056009  0  0.050744  -0.030104  0  1.509939  0
O  O156  1  0.61479190  0.83095746  0.29159986  1  -1.249365  0  -0.22889  -0.571258  0  2.330832  0
O  O157  1  0.38256104  0.17301683  0.70473766  1  -1.244839  0  -0.230431  -0.580429  0  2.348427  0
O  O158  1  0.11662095  0.67773425  0.20293689  1  -1.256022  0  -0.233283  -0.590876  0  2.332316  0
O  O159  1  0.86887759  0.33019082  0.79294424  1  -1.254339  0  -0.235071  -0.591497  0  2.349919  0
O  O160  1  0.26972937  0.69440510  0.29507506  1  -1.251538  0  -0.239835  -0.592463  0  2.330141  0
O  O161  1  0.71758323  0.30127994  0.70165867  1  -1.252603  0  -0.239998  -0.593948  0  2.341153  0
O  O162  1  0.78321164  0.80163858  0.20284058  1  -1.25283  0  -0.233218  -0.586943  0  2.358649  0
O  O163  1  0.21684445  0.19347011  0.79391428  1  -1.253923  0  -0.233096  -0.57902  0  2.332569  0
O  O164  1  0.27683535  0.82038335  0.29851799  1  -1.249045  0  -0.226982  -0.57687  0  2.352849  0
O  O165  1  0.72334006  0.17664320  0.70607667  1  -1.249805  0  -0.227383  -0.577818  0  2.356937  0
O  O166  1  0.77400251  0.67539780  0.20457188  1  -1.250411  0  -0.235055  -0.5951  0  2.356408  0
O  O167  1  0.20829551  0.32000705  0.79735873  1  -1.253081  0  -0.23109  -0.58801  0  2.344461  0
O  O168  1  0.12168747  0.80565202  0.20935751  1  -1.246338  0  -0.230904  -0.583415  0  2.420728  0
O  O169  1  0.87745915  0.20479597  0.79698332  1  -1.252769  0  -0.233776  -0.595833  0  2.424307  0
O  O170  1  0.60869148  0.70647743  0.29824837  1  -1.258644  0  -0.239824  -0.616815  0  2.448161  0
O  O171  1  0.37608277  0.29846139  0.70387034  1  -1.253684  0  -0.240379  -0.612622  0  2.445037  0
O  O172  1  0.44652048  0.74177838  0.22046518  1  -1.434129  0  -0.448113  -0.984674  0  2.191372  0
O  O173  1  0.54459435  0.25981361  0.77947082  1  -1.424436  0  -0.448447  -0.987652  0  2.203974  0
O  O174  1  0.94122511  0.75659470  0.27975109  1  -1.428923  0  -0.447514  -0.98301  0  2.205208  0
O  O175  1  0.04912826  0.24264798  0.72069055  1  -1.406661  0  -0.449113  -0.992934  0  2.22289  0
O  O176  1  0.64954801  0.87748084  0.05051293  1  -1.077534  0  -0.207137  -0.248166  0  2.501391  0
O  O177  1  0.34599018  0.11989593  0.94913457  1  -1.074243  0  -0.208603  -0.251512  0  2.501011  0
O  O178  1  0.14319916  0.61868340  0.45387440  1  -1.085787  0  -0.177994  -0.197403  0  2.558208  0
O  O179  1  0.84632386  0.38013351  0.54537321  1  -1.067995  0  -0.179061  -0.19985  0  2.555168  0
