# generated using pymatgen
data_ZnPH6C2NO3
_symmetry_space_group_name_H-M   'P 1'
_cell_length_a   7.54253318
_cell_length_b   8.12827954
_cell_length_c   9.41920107
_cell_angle_alpha   90.00006162
_cell_angle_beta   89.99994779
_cell_angle_gamma   107.70935718
_symmetry_Int_Tables_number   1
_chemical_formula_structural   ZnPH6C2NO3
_chemical_formula_sum   'Zn4 P4 H24 C8 N4 O12'
_cell_volume   550.10537958
_cell_formula_units_Z   4
loop_
 _symmetry_equiv_pos_site_id
 _symmetry_equiv_pos_as_xyz
  1  'x, y, z'
loop_
 _atom_site_type_symbol
 _atom_site_label
 _atom_site_symmetry_multiplicity
 _atom_site_fract_x
 _atom_site_fract_y
 _atom_site_fract_z
 _atom_site_occupancy
 _atom_site_pbe_bader_spin_density
 _atom_site_pbe_cm5_charge
 _atom_site_pbe_ddec_charge
 _atom_site_pbe_ddec_spin_density
 _atom_site_pbe_ddec_sum_bond_order
 _atom_site_pbe_magmom
Zn  Zn0  1  0.35956938  0.79335100  0.66723304  1  0  0.718623  0.955072  0  2.303744  0
Zn  Zn1  1  0.64041663  0.70664802  0.16722553  1  0  0.718693  0.955058  0  2.303496  0
Zn  Zn2  1  0.64042137  0.20665220  0.33277332  1  0  0.718711  0.955081  0  2.303458  0
Zn  Zn3  1  0.35956929  0.29334875  0.83276490  1  0  0.718631  0.955086  0  2.303661  0
P  P4  1  0.27647239  0.64316771  0.97342352  1  0  0.274684  1.203283  0  5.531103  0
P  P5  1  0.72352876  0.85683794  0.47339910  1  0  0.274557  1.203125  0  5.531594  0
P  P6  1  0.72352586  0.35683412  0.02660408  1  0  0.274579  1.203299  0  5.531477  0
P  P7  1  0.27647476  0.14316772  0.52657541  1  0  0.274672  1.203205  0  5.531305  0
H  H8  1  0.94563666  0.66086378  0.64336770  1  0  0.104923  0.086414  0  0.995332  0
H  H9  1  0.05437227  0.83914015  0.14337133  1  0  0.104944  0.086464  0  0.995245  0
H  H10  1  0.05436950  0.33914574  0.35663441  1  0  0.104932  0.086369  0  0.995345  0
H  H11  1  0.94563173  0.16085125  0.85662866  1  0  0.104923  0.086421  0  0.995303  0
H  H12  1  0.00076901  0.51007704  0.75848494  1  0  0.108149  0.091537  0  1.025653  0
H  H13  1  0.99922702  0.98993622  0.25848911  1  0  0.108151  0.091527  0  1.025589  0
H  H14  1  0.99923141  0.48993513  0.24150868  1  0  0.108152  0.091488  0  1.025701  0
H  H15  1  0.00077652  0.01006166  0.74151300  1  0  0.108185  0.091574  0  1.025758  0
H  H16  1  0.22550462  0.47807556  0.59572264  1  0  0.291235  0.256772  0  0.992879  0
H  H17  1  0.77449330  0.02192637  0.09572124  1  0  0.291235  0.256754  0  0.992739  0
H  H18  1  0.77449229  0.52193406  0.40427205  1  0  0.291235  0.256783  0  0.992843  0
H  H19  1  0.22551200  0.97807279  0.90427875  1  0  0.291278  0.256772  0  0.99288  0
H  H20  1  0.29583687  0.62019280  0.37541418  1  0  0.111953  0.108948  0  0.996524  0
H  H21  1  0.70416967  0.87980492  0.87541410  1  0  0.111967  0.108989  0  0.996553  0
H  H22  1  0.70416222  0.37982327  0.62458368  1  0  0.111948  0.108939  0  0.996518  0
H  H23  1  0.29583917  0.12018902  0.12458589  1  0  0.111943  0.108945  0  0.996508  0
H  H24  1  0.12771299  0.72808797  0.40780451  1  0  0.104968  0.085913  0  0.991114  0
H  H25  1  0.87229528  0.77191106  0.90780421  1  0  0.104975  0.08593  0  0.991067  0
H  H26  1  0.87228171  0.27192297  0.59219867  1  0  0.104948  0.085795  0  0.99102  0
H  H27  1  0.12771003  0.22808421  0.09219684  1  0  0.104946  0.085861  0  0.991021  0
H  H28  1  0.09513634  0.63756093  0.01530304  1  0  0.082152  -0.132078  0  1.039618  0
H  H29  1  0.90486787  0.86243644  0.51529537  1  0  0.082144  -0.13203  0  1.039538  0
H  H30  1  0.90486851  0.36244083  0.98470545  1  0  0.082114  -0.132094  0  1.039503  0
H  H31  1  0.09513743  0.13756272  0.48469719  1  0  0.082124  -0.132087  0  1.039632  0
C  C32  1  0.98718061  0.54241764  0.64696879  1  0  -0.076749  -0.055954  0  3.873836  0
C  C33  1  0.01281950  0.95758769  0.14696406  1  0  -0.076719  -0.05603  0  3.873954  0
C  C34  1  0.01281763  0.45758807  0.35303120  1  0  -0.07671  -0.055805  0  3.873922  0
C  C35  1  0.98718405  0.04240631  0.85302956  1  0  -0.076707  -0.055929  0  3.873915  0
C  C36  1  0.15968833  0.60602530  0.42376333  1  0  -0.076576  -0.057855  0  3.866359  0
C  C37  1  0.84031730  0.89396989  0.92376742  1  0  -0.076584  -0.05794  0  3.866366  0
C  C38  1  0.84030595  0.39398046  0.57623029  1  0  -0.076502  -0.057621  0  3.866086  0
C  C39  1  0.15968758  0.10602020  0.07623682  1  0  -0.076534  -0.057768  0  3.866231  0
N  N40  1  0.17332340  0.58072938  0.57917777  1  0  -0.487072  -0.348215  0  3.499007  0
N  N41  1  0.82667856  0.91926549  0.07917775  1  0  -0.487106  -0.348082  0  3.498915  0
N  N42  1  0.82667529  0.41927374  0.42081903  1  0  -0.487121  -0.348253  0  3.499058  0
N  N43  1  0.17332676  0.08072589  0.92082011  1  0  -0.487177  -0.348251  0  3.498961  0
O  O44  1  0.34663165  0.80382105  0.87636650  1  0  -0.379908  -0.717003  0  2.32353  0
O  O45  1  0.65337355  0.69618446  0.37636640  1  0  -0.379872  -0.717026  0  2.323965  0
O  O46  1  0.65337894  0.19617417  0.12363243  1  0  -0.379838  -0.717031  0  2.323966  0
O  O47  1  0.34663174  0.30381859  0.62363253  1  0  -0.379882  -0.716974  0  2.323587  0
O  O48  1  0.38341481  0.66150490  0.11347688  1  0  -0.386201  -0.719108  0  2.370038  0
O  O49  1  0.61658181  0.83849783  0.61348744  1  0  -0.386336  -0.719328  0  2.369415  0
O  O50  1  0.61657948  0.33849308  0.88651780  1  0  -0.386307  -0.719321  0  2.369416  0
O  O51  1  0.38341599  0.16150270  0.38652423  1  0  -0.386191  -0.719089  0  2.370138  0
O  O52  1  0.25328966  0.47487667  0.89242826  1  0  -0.39022  -0.757725  0  2.441496  0
O  O53  1  0.74670582  0.02511523  0.39243113  1  0  -0.390055  -0.757491  0  2.442131  0
O  O54  1  0.74668751  0.52509816  0.10758235  1  0  -0.390082  -0.757625  0  2.442236  0
O  O55  1  0.25328849  0.97487498  0.60756886  1  0  -0.390226  -0.757693  0  2.441499  0
