# generated using pymatgen
data_ZnH9C13N4O3
_symmetry_space_group_name_H-M   'P 1'
_cell_length_a   5.03091755
_cell_length_b   13.79540859
_cell_length_c   18.21247150
_cell_angle_alpha   88.40709387
_cell_angle_beta   90.00302173
_cell_angle_gamma   90.00083852
_symmetry_Int_Tables_number   1
_chemical_formula_structural   ZnH9C13N4O3
_chemical_formula_sum   'Zn4 H36 C52 N16 O12'
_cell_volume   1263.52195696
_cell_formula_units_Z   4
loop_
 _symmetry_equiv_pos_site_id
 _symmetry_equiv_pos_as_xyz
  1  'x, y, z'
loop_
 _atom_site_type_symbol
 _atom_site_label
 _atom_site_symmetry_multiplicity
 _atom_site_fract_x
 _atom_site_fract_y
 _atom_site_fract_z
 _atom_site_occupancy
 _atom_site_pbe_bader_charge
 _atom_site_pbe_bader_spin_density
 _atom_site_pbe_cm5_charge
 _atom_site_pbe_ddec_charge
 _atom_site_pbe_ddec_spin_density
 _atom_site_pbe_ddec_sum_bond_order
 _atom_site_pbe_magmom
Zn  Zn0  1  0.54078448  0.48495921  0.22695663  1  1.264282  0  0.683521  0.809029  0  2.378533  0
Zn  Zn1  1  0.45924609  0.51553699  0.77309519  1  1.264328  0  0.683517  0.808679  0  2.378822  0
Zn  Zn2  1  0.04074280  0.01503392  0.27305788  1  1.264315  0  0.683565  0.809067  0  2.378451  0
Zn  Zn3  1  0.95936739  0.98447176  0.72689747  1  1.264413  0  0.683493  0.808682  0  2.379433  0
H  H4  1  0.68472798  0.06543487  0.08040218  1  0.141473  0  0.113504  0.133061  0  1.063973  0
H  H5  1  0.29519281  0.06993904  0.91301276  1  0.124114  0  0.112952  0.13058  0  1.06244  0
H  H6  1  0.18475870  0.43456995  0.41960746  1  0.141299  0  0.113395  0.132982  0  1.064114  0
H  H7  1  0.79539485  0.43005989  0.58696641  1  0.12344  0  0.11287  0.130419  0  1.062728  0
H  H8  1  0.31564048  0.93508181  0.91978619  1  0.140281  0  0.11327  0.132574  0  1.06436  0
H  H9  1  0.70457141  0.93060579  0.08699959  1  0.119599  0  0.113112  0.130848  0  1.062856  0
H  H10  1  0.81582260  0.56491317  0.58020809  1  0.141001  0  0.11333  0.132646  0  1.064421  0
H  H11  1  0.20466167  0.56939185  0.41300428  1  0.119685  0  0.113099  0.130837  0  1.062913  0
H  H12  1  0.95555713  0.33679306  0.98669118  1  0.032801  0  0.106746  0.115513  0  1.024696  0
H  H13  1  0.45565396  0.16321212  0.51329334  1  0.032965  0  0.106797  0.115611  0  1.024582  0
H  H14  1  0.04421503  0.66372212  0.01342635  1  0.041441  0  0.106926  0.116093  0  1.02466  0
H  H15  1  0.54427139  0.83627013  0.48660127  1  0.0417  0  0.106915  0.116132  0  1.024669  0
H  H16  1  0.85145546  0.38842621  0.09833851  1  0.151688  0  0.13581  0.107174  0  1.00645  0
H  H17  1  0.11590512  0.40117439  0.88954900  1  0.146225  0  0.135711  0.106525  0  1.008779  0
H  H18  1  0.35146742  0.11157807  0.40166479  1  0.151968  0  0.135826  0.107158  0  1.006418  0
H  H19  1  0.61618930  0.09880204  0.61036966  1  0.146805  0  0.135812  0.106625  0  1.008671  0
H  H20  1  0.14834455  0.61205279  0.90170304  1  0.156549  0  0.135814  0.107148  0  1.006465  0
H  H21  1  0.88408766  0.59944163  0.11060107  1  0.153619  0  0.135505  0.106018  0  1.009859  0
H  H22  1  0.64839628  0.88792701  0.59832076  1  0.156955  0  0.135782  0.107054  0  1.006505  0
H  H23  1  0.38407597  0.90055882  0.38943278  1  0.153659  0  0.135503  0.105987  0  1.00981  0
H  H24  1  0.14844863  0.29209286  0.20191234  1  0.129221  0  0.119482  0.120319  0  1.012118  0
H  H25  1  0.79919713  0.30483590  0.78041583  1  0.131474  0  0.116148  0.111222  0  1.025205  0
H  H26  1  0.64842705  0.20789847  0.29809174  1  0.129013  0  0.119496  0.120396  0  1.012173  0
H  H27  1  0.29930956  0.19516838  0.71959260  1  0.13085  0  0.116178  0.111254  0  1.025086  0
H  H28  1  0.85173698  0.70828397  0.79827297  1  0.129676  0  0.119691  0.12067  0  1.012144  0
H  H29  1  0.20041007  0.69568457  0.21961818  1  0.129199  0  0.116032  0.111234  0  1.025019  0
H  H30  1  0.35185608  0.79171613  0.70174615  1  0.129143  0  0.11966  0.12063  0  1.012182  0
H  H31  1  0.70042097  0.80430713  0.28038500  1  0.129293  0  0.116045  0.111244  0  1.025179  0
H  H32  1  0.33177410  0.14596596  0.11232761  1  0.200595  0  0.127647  0.141872  0  1.035751  0
H  H33  1  0.59784881  0.15023515  0.86387648  1  0.228605  0  0.126741  0.14598  0  1.048192  0
H  H34  1  0.83177823  0.35402826  0.38767258  1  0.200641  0  0.127649  0.141826  0  1.035847  0
H  H35  1  0.09794009  0.34976972  0.63614751  1  0.229335  0  0.126791  0.146181  0  1.047967  0
H  H36  1  0.66863412  0.85440885  0.88792198  1  0.200109  0  0.127537  0.141204  0  1.035898  0
H  H37  1  0.40164509  0.85028399  0.13611525  1  0.224559  0  0.126829  0.146507  0  1.04721  0
H  H38  1  0.16877126  0.64560055  0.61207128  1  0.198348  0  0.127332  0.140786  0  1.036217  0
H  H39  1  0.90167317  0.64970046  0.36387956  1  0.224402  0  0.126849  0.146551  0  1.047107  0
C  C40  1  0.99181847  0.05386975  0.99732028  1  0.016192  0  0.0155  0.128078  0  3.918805  0
C  C41  1  0.49193207  0.44612711  0.50267331  1  0.021165  0  0.015344  0.127805  0  3.919015  0
C  C42  1  0.00825980  0.94664650  0.00278022  1  -0.042831  0  0.015959  0.127744  0  3.918496  0
C  C43  1  0.50839479  0.55335379  0.49721694  1  -0.04245  0  0.016025  0.12793  0  3.918481  0
C  C44  1  0.81077067  0.10399044  0.04088113  1  0.091653  0  -0.077872  -0.195561  0  3.869918  0
C  C45  1  0.15858472  0.10690258  0.94913627  1  -0.004119  0  -0.076804  -0.1919  0  3.861125  0
C  C46  1  0.31085293  0.39602198  0.45911508  1  0.084902  0  -0.077508  -0.195033  0  3.86937  0
C  C47  1  0.65875855  0.39309876  0.55084471  1  -0.001609  0  -0.076827  -0.19171  0  3.861383  0
C  C48  1  0.18936325  0.89651584  0.95924693  1  0.046522  0  -0.077898  -0.19491  0  3.869362  0
C  C49  1  0.84124708  0.89361375  0.05092359  1  0.124197  0  -0.077525  -0.192494  0  3.862226  0
C  C50  1  0.68950574  0.60348044  0.54075025  1  0.045806  0  -0.077992  -0.195142  0  3.869984  0
C  C51  1  0.34134966  0.60638231  0.44907298  1  0.123703  0  -0.077582  -0.192633  0  3.862014  0
C  C52  1  0.80260800  0.20482938  0.03730697  1  0.261609  0  0.094179  0.182367  0  4.04273  0
C  C53  1  0.14362613  0.20772876  0.94517876  1  0.324603  0  0.093789  0.180672  0  4.037519  0
C  C54  1  0.30268657  0.29517192  0.46268729  1  0.260886  0  0.094164  0.182272  0  4.042919  0
C  C55  1  0.64378622  0.29226987  0.55480259  1  0.324833  0  0.093861  0.180603  0  4.037518  0
C  C56  1  0.19744244  0.79565735  0.96281963  1  0.266587  0  0.094214  0.182395  0  4.042712  0
C  C57  1  0.85615399  0.79281377  0.05487645  1  0.226303  0  0.094542  0.181848  0  4.036119  0
C  C58  1  0.69755482  0.70433615  0.53718513  1  0.268562  0  0.094226  0.182551  0  4.042817  0
C  C59  1  0.35620670  0.70718042  0.44513132  1  0.226516  0  0.094503  0.181638  0  4.036109  0
C  C60  1  0.96648671  0.25806680  0.98929143  1  0.027448  0  -0.099614  -0.283905  0  4.021923  0
C  C61  1  0.46659116  0.24193810  0.51069036  1  0.02728  0  -0.09981  -0.284097  0  4.021954  0
C  C62  1  0.03338881  0.74245168  0.01080630  1  0.03077  0  -0.100351  -0.285008  0  4.022811  0
C  C63  1  0.53346537  0.75754774  0.48920642  1  0.028585  0  -0.10033  -0.284889  0  4.022385  0
C  C64  1  0.67659293  0.34560607  0.11134025  1  0.946928  0  0.136228  0.086085  0  3.920457  0
C  C65  1  0.28105849  0.35578271  0.87410802  1  0.967155  0  0.136889  0.084166  0  3.919408  0
C  C66  1  0.17660051  0.15439282  0.38866135  1  0.946749  0  0.136292  0.086183  0  3.920593  0
C  C67  1  0.78130570  0.14420119  0.62583653  1  0.965962  0  0.137071  0.084536  0  3.91961  0
C  C68  1  0.32339988  0.65485492  0.88876847  1  0.940679  0  0.135811  0.085464  0  3.920159  0
C  C69  1  0.71882696  0.64479358  0.12599904  1  0.958485  0  0.13739  0.085911  0  3.920618  0
C  C70  1  0.82347192  0.84512818  0.61125322  1  0.940973  0  0.135954  0.085847  0  3.919842  0
C  C71  1  0.21882241  0.85521222  0.37402031  1  0.95845  0  0.137567  0.086039  0  3.920345  0
C  C72  1  0.31972694  0.29050319  0.16586354  1  0.396102  0  -0.002253  -0.030282  0  3.97635  0
C  C73  1  0.62921712  0.30221488  0.81698669  1  0.375646  0  -0.002411  -0.029709  0  3.979808  0
C  C74  1  0.81971250  0.20948915  0.33413716  1  0.396271  0  -0.002258  -0.030357  0  3.976025  0
C  C75  1  0.12938140  0.19778813  0.68300432  1  0.37497  0  -0.0026  -0.029761  0  3.979863  0
C  C76  1  0.68047059  0.70989029  0.83432272  1  0.400533  0  -0.002922  -0.032094  0  3.976707  0
C  C77  1  0.37048946  0.69834986  0.18304524  1  0.348331  0  -0.002321  -0.030356  0  3.979923  0
C  C78  1  0.18057461  0.79010606  0.66569158  1  0.400695  0  -0.00292  -0.032132  0  3.97717  0
C  C79  1  0.87049027  0.80165064  0.31696210  1  0.347543  0  -0.002267  -0.030335  0  3.980013  0
C  C80  1  0.40616984  0.21861919  0.12106768  1  0.265526  0  0.007599  -0.084986  0  3.867638  0
C  C81  1  0.53215661  0.22541469  0.85841275  1  0.250873  0  0.007132  -0.090057  0  3.855819  0
C  C82  1  0.90617443  0.28138270  0.37893348  1  0.265591  0  0.007741  -0.084765  0  3.867443  0
C  C83  1  0.03232026  0.27459118  0.64159087  1  0.250793  0  0.007023  -0.090262  0  3.855525  0
C  C84  1  0.59411316  0.78177373  0.87910980  1  0.258715  0  0.008217  -0.082748  0  3.865841  0
C  C85  1  0.46751220  0.77511257  0.14160801  1  0.282965  0  0.007221  -0.089282  0  3.855421  0
C  C86  1  0.09423988  0.71823275  0.62089836  1  0.260701  0  0.008601  -0.081904  0  3.86573  0
C  C87  1  0.96754345  0.72487766  0.35839449  1  0.283842  0  0.007088  -0.089538  0  3.855453  0
C  C88  1  0.02154190  0.48843453  0.28861439  1  2.138949  0  0.235636  0.784805  0  4.34112  0
C  C89  1  0.97821046  0.51168893  0.71126198  1  2.13949  0  0.235733  0.784076  0  4.341115  0
C  C90  1  0.52153316  0.01157548  0.21139239  1  2.138584  0  0.235912  0.785032  0  4.340774  0
C  C91  1  0.47836229  0.98835402  0.78875823  1  2.13864  0  0.235428  0.784259  0  4.341122  0
N  N92  1  0.63268083  0.25473284  0.08618978  1  -1.245686  0  -0.221653  0.016134  0  3.766575  0
N  N93  1  0.31058600  0.26053806  0.89494715  1  -1.252809  0  -0.219395  0.018189  0  3.763395  0
N  N94  1  0.13270357  0.24527610  0.41381223  1  -1.244997  0  -0.221834  0.015857  0  3.766515  0
N  N95  1  0.81081116  0.23945790  0.60502625  1  -1.252614  0  -0.219523  0.017789  0  3.763288  0
N  N96  1  0.36742526  0.74572081  0.91395965  1  -1.24468  0  -0.220932  0.015958  0  3.764807  0
N  N97  1  0.68911859  0.74000216  0.10511413  1  -1.250858  0  -0.219959  0.016003  0  3.765023  0
N  N98  1  0.86752391  0.75427493  0.58605098  1  -1.244854  0  -0.22118  0.01531  0  3.765786  0
N  N99  1  0.18914798  0.75999185  0.39489888  1  -1.251386  0  -0.219942  0.016283  0  3.764849  0
N  N100  1  0.49007899  0.36914072  0.15929849  1  -1.226028  0  -0.354328  -0.288934  0  3.595707  0
N  N101  1  0.47151701  0.38285313  0.82738220  1  -1.243572  0  -0.352825  -0.284307  0  3.591063  0
N  N102  1  0.99007165  0.13085596  0.34071248  1  -1.226189  0  -0.354333  -0.28889  0  3.596143  0
N  N103  1  0.97176179  0.11713506  0.67257420  1  -1.24274  0  -0.352717  -0.284287  0  3.591421  0
N  N104  1  0.50998338  0.63128543  0.84084845  1  -1.221029  0  -0.354269  -0.288187  0  3.594828  0
N  N105  1  0.52830484  0.61771972  0.17271556  1  -1.240779  0  -0.352935  -0.284683  0  3.589939  0
N  N106  1  0.01006438  0.86870111  0.65917484  1  -1.221836  0  -0.354354  -0.288345  0  3.59472  0
N  N107  1  0.02830072  0.88228515  0.32730509  1  -1.240039  0  -0.352972  -0.284692  0  3.589965  0
O  O108  1  0.27623911  0.48583397  0.30307991  1  -1.184706  0  -0.360027  -0.609388  0  2.349322  0
O  O109  1  0.72344564  0.51436029  0.69691769  1  -1.184483  0  -0.359839  -0.608813  0  2.349555  0
O  O110  1  0.77620426  0.01415664  0.19693122  1  -1.184541  0  -0.359915  -0.609254  0  2.349606  0
O  O111  1  0.22355208  0.98567783  0.80307697  1  -1.183521  0  -0.359894  -0.609205  0  2.349391  0
O  O112  1  0.85493758  0.50474155  0.33968549  1  -1.220451  0  -0.359208  -0.637919  0  2.116573  0
O  O113  1  0.14434375  0.49478511  0.66016311  1  -1.220795  0  -0.359515  -0.637715  0  2.114206  0
O  O114  1  0.35489078  0.99524961  0.16029041  1  -1.219914  0  -0.359591  -0.638294  0  2.115034  0
O  O115  1  0.64441427  0.00523920  0.83984054  1  -1.222105  0  -0.35922  -0.637388  0  2.115557  0
O  O116  1  0.93978916  0.47331092  0.22139067  1  -1.206667  0  -0.378774  -0.674674  0  2.270594  0
O  O117  1  0.06048792  0.52731098  0.77835683  1  -1.206561  0  -0.378833  -0.674201  0  2.271698  0
O  O118  1  0.43975160  0.02668884  0.27859520  1  -1.207232  0  -0.378826  -0.674721  0  2.271465  0
O  O119  1  0.56062292  0.97271975  0.72164829  1  -1.205259  0  -0.378868  -0.674398  0  2.271019  0
