# generated using pymatgen
data_ZnH6C12N5(OF)2
_symmetry_space_group_name_H-M   'P 1'
_cell_length_a   15.82770850
_cell_length_b   18.34284983
_cell_length_c   17.27983385
_cell_angle_alpha   90.03251612
_cell_angle_beta   89.09662883
_cell_angle_gamma   90.00150017
_symmetry_Int_Tables_number   1
_chemical_formula_structural   ZnH6C12N5(OF)2
_chemical_formula_sum   'Zn8 H48 C96 N40 O16 F16'
_cell_volume   5016.14824319
_cell_formula_units_Z   8
loop_
 _symmetry_equiv_pos_site_id
 _symmetry_equiv_pos_as_xyz
  1  'x, y, z'
loop_
 _atom_site_type_symbol
 _atom_site_label
 _atom_site_symmetry_multiplicity
 _atom_site_fract_x
 _atom_site_fract_y
 _atom_site_fract_z
 _atom_site_occupancy
 _atom_site_pbe_bader_charge
 _atom_site_pbe_bader_spin_density
 _atom_site_pbe_cm5_charge
 _atom_site_pbe_ddec_charge
 _atom_site_pbe_ddec_spin_density
 _atom_site_pbe_ddec_sum_bond_order
 _atom_site_pbe_magmom
Zn  Zn0  1  0.99324579  0.00979717  0.65507898  1  1.26582  0  0.722858  0.680971  0  2.443996  0
Zn  Zn1  1  0.00067222  0.00566713  0.34484611  1  1.267222  0  0.722697  0.681288  0  2.442199  0
Zn  Zn2  1  0.49969974  0.50545710  0.15566526  1  1.268057  0  0.722649  0.68161  0  2.440664  0
Zn  Zn3  1  0.50577884  0.50819995  0.84509364  1  1.268263  0  0.722941  0.680755  0  2.445463  0
Zn  Zn4  1  0.85591619  0.00251662  0.49062988  1  1.199093  0  0.749154  0.610385  0  2.484957  0
Zn  Zn5  1  0.13726849  0.00089024  0.50974240  1  1.200737  0  0.748889  0.614943  0  2.469621  0
Zn  Zn6  1  0.36257400  0.50035698  0.99112310  1  1.197629  0  0.748628  0.613283  0  2.471489  0
Zn  Zn7  1  0.64348439  0.50125439  0.00915971  1  1.197407  0  0.748741  0.610087  0  2.484209  0
H  H8  1  0.70724432  0.90529781  0.40006300  1  0.095836  0  0.116319  0.1053  0  1.000106  0
H  H9  1  0.19307822  0.16823079  0.51074133  1  0.09193  0  0.116101  0.104177  0  1.001464  0
H  H10  1  0.28274568  0.90071560  0.60061066  1  0.074237  0  0.116079  0.104964  0  1.0017  0
H  H11  1  0.80846001  0.17141248  0.48929496  1  0.086828  0  0.116379  0.105133  0  1.00075  0
H  H12  1  0.21523613  0.40167956  0.90033446  1  0.091537  0  0.115815  0.10412  0  1.001261  0
H  H13  1  0.69228667  0.67005098  0.01020413  1  0.084612  0  0.116311  0.104521  0  1.00131  0
H  H14  1  0.79269108  0.40431425  0.09925190  1  0.087437  0  0.116162  0.105176  0  1.000175  0
H  H15  1  0.30730580  0.66723801  0.98986052  1  0.083231  0  0.11613  0.104611  0  1.002  0
H  H16  1  0.14922819  0.83055551  0.52718000  1  0.139977  0  0.12468  0.117931  0  1.00443  0
H  H17  1  0.66618078  0.04924982  0.58950641  1  0.129208  0  0.12864  0.123626  0  0.984446  0
H  H18  1  0.84707023  0.83141983  0.47334418  1  0.144841  0  0.125206  0.118762  0  1.000351  0
H  H19  1  0.32659652  0.04835708  0.41163116  1  0.119858  0  0.128236  0.122794  0  0.985891  0
H  H20  1  0.65148048  0.33023519  0.02707303  1  0.158754  0  0.12528  0.119111  0  1.000977  0
H  H21  1  0.17379628  0.54917308  0.08945651  1  0.133133  0  0.12842  0.123089  0  0.98507  0
H  H22  1  0.34966238  0.32983060  0.97445004  1  0.144534  0  0.125106  0.11881  0  1.003471  0
H  H23  1  0.83251607  0.54867817  0.91024473  1  0.143606  0  0.128897  0.123294  0  0.985006  0
H  H24  1  0.83016563  0.20501914  0.24655689  1  0.063578  0  0.09504  0.084978  0  0.991475  0
H  H25  1  0.31873634  0.93687872  0.88333970  1  0.069744  0  0.095598  0.083691  0  0.997046  0
H  H26  1  0.17705184  0.20388241  0.75207126  1  0.053479  0  0.095111  0.085123  0  0.991666  0
H  H27  1  0.67795934  0.93779361  0.11448441  1  0.062624  0  0.095534  0.083434  0  0.996656  0
H  H28  1  0.32007991  0.70201584  0.74765598  1  0.030635  0  0.095241  0.08494  0  0.991986  0
H  H29  1  0.82598061  0.43913427  0.38368486  1  0.055959  0  0.095418  0.083275  0  0.997108  0
H  H30  1  0.66912494  0.70540138  0.25447882  1  0.062363  0  0.095007  0.084816  0  0.991662  0
H  H31  1  0.17993872  0.43881222  0.61676961  1  0.06182  0  0.095388  0.083096  0  0.997111  0
H  H32  1  0.39223004  0.83334406  0.68949960  1  0.041601  0  0.090158  0.073221  0  1.005125  0
H  H33  1  0.75195584  0.30868959  0.43916127  1  0.048288  0  0.092893  0.077878  0  0.999308  0
H  H34  1  0.59566068  0.83809381  0.30758438  1  0.032035  0  0.089623  0.072489  0  1.004871  0
H  H35  1  0.25276318  0.30852159  0.55946669  1  0.036479  0  0.092965  0.078094  0  0.999738  0
H  H36  1  0.90407417  0.33652688  0.19081159  1  0.016984  0  0.0899  0.073033  0  1.005573  0
H  H37  1  0.24657567  0.80656849  0.94111992  1  0.029149  0  0.092916  0.077841  0  0.999281  0
H  H38  1  0.10424768  0.33521696  0.80977863  1  0.053037  0  0.089946  0.072859  0  1.005531  0
H  H39  1  0.75153014  0.80615347  0.06167192  1  0.048469  0  0.093583  0.078817  0  0.999022  0
H  H40  1  0.46533269  0.85920740  0.83539914  1  0.022266  0  0.092392  0.078968  0  1.002581  0
H  H41  1  0.68180059  0.28424693  0.29084914  1  0.101126  0  0.09018  0.084309  0  1.023912  0
H  H42  1  0.52903253  0.86164834  0.15864975  1  0.056958  0  0.092462  0.078784  0  1.002572  0
H  H43  1  0.32492602  0.28312062  0.70673620  1  0.083885  0  0.090046  0.084087  0  1.027475  0
H  H44  1  0.97343349  0.36133604  0.33846645  1  0.066801  0  0.09249  0.07895  0  1.001848  0
H  H45  1  0.17268617  0.78124610  0.79456212  1  0.059261  0  0.090285  0.084489  0  1.025732  0
H  H46  1  0.03285274  0.36109757  0.66316861  1  0.057307  0  0.0921  0.078465  0  1.003297  0
H  H47  1  0.81893759  0.78295957  0.21120782  1  0.098592  0  0.090184  0.084049  0  1.025269  0
H  H48  1  0.72312191  0.11832422  0.85416874  1  0.189245  0  0.10927  0.135947  0  1.047947  0
H  H49  1  0.05598583  0.68740736  0.30774784  1  0.158564  0  0.107704  0.13421  0  1.049057  0
H  H50  1  0.27112433  0.11870094  0.14708019  1  0.163049  0  0.109283  0.135433  0  1.045676  0
H  H51  1  0.94750779  0.68905830  0.69090240  1  0.13153  0  0.108392  0.135357  0  1.0482  0
H  H52  1  0.22973719  0.61949253  0.35414424  1  0.159459  0  0.109386  0.136821  0  1.042906  0
H  H53  1  0.54954705  0.18771884  0.81006444  1  0.150674  0  0.10808  0.134661  0  1.047245  0
H  H54  1  0.77444366  0.61889778  0.64629616  1  0.162619  0  0.109082  0.135833  0  1.047369  0
H  H55  1  0.44479463  0.18688439  0.19330340  1  0.170746  0  0.107985  0.135249  0  1.047879  0
C  C56  1  0.96093974  0.84371688  0.62894048  1  0.769004  0  0.189306  0.121275  0  3.946696  0
C  C57  1  0.17510185  0.04766600  0.28498165  1  0.847322  0  0.189192  0.1075  0  3.966521  0
C  C58  1  0.03401073  0.84006281  0.37224410  1  0.764028  0  0.188997  0.120438  0  3.947227  0
C  C59  1  0.81905381  0.05162688  0.71482874  1  0.838178  0  0.189662  0.108476  0  3.962531  0
C  C60  1  0.46571792  0.33982128  0.12882975  1  0.767751  0  0.188743  0.120135  0  3.94701  0
C  C61  1  0.67981069  0.54958137  0.78474725  1  0.811903  0  0.189521  0.107843  0  3.965489  0
C  C62  1  0.53587125  0.34197104  0.87253581  1  0.788536  0  0.188763  0.120683  0  3.949335  0
C  C63  1  0.32566161  0.54839262  0.21576282  1  0.854488  0  0.189495  0.107824  0  3.967281  0
C  C64  1  0.75542819  0.92679172  0.36075776  1  0.398374  0  0.000518  -0.04985  0  4.039493  0
C  C65  1  0.13697600  0.16004944  0.54679020  1  0.389569  0  0.007324  -0.034281  0  3.988273  0
C  C66  1  0.23548268  0.92360735  0.63996909  1  0.349172  0  0.000268  -0.050896  0  4.043955  0
C  C67  1  0.86418446  0.16115996  0.45335891  1  0.418051  0  0.007753  -0.034636  0  3.987761  0
C  C68  1  0.26256773  0.42439796  0.86095529  1  0.393637  0  0.000263  -0.048699  0  4.039491  0
C  C69  1  0.63667880  0.66011246  0.04639335  1  0.407563  0  0.00735  -0.034896  0  3.988678  0
C  C70  1  0.74481204  0.42605274  0.13873561  1  0.402202  0  0.000424  -0.05016  0  4.040494  0
C  C71  1  0.36307718  0.65891296  0.95340431  1  0.397521  0  0.007109  -0.035366  0  3.989636  0
C  C72  1  0.83479823  0.96000767  0.26288504  1  1.050395  0  0.200523  0.339531  0  4.107462  0
C  C73  1  0.03101884  0.16686803  0.62799214  1  0.978686  0  0.197533  0.331623  0  4.083282  0
C  C74  1  0.15775466  0.95926528  0.73798342  1  1.028718  0  0.200289  0.338925  0  4.107458  0
C  C75  1  0.97038640  0.16393790  0.37218144  1  1.00662  0  0.196972  0.331275  0  4.083698  0
C  C76  1  0.34020199  0.46001324  0.76290423  1  1.026883  0  0.200802  0.339993  0  4.10645  0
C  C77  1  0.53096343  0.66348817  0.12807123  1  1.002215  0  0.197319  0.33073  0  4.084946  0
C  C78  1  0.66615947  0.45982834  0.23691416  1  1.046002  0  0.200805  0.340522  0  4.107577  0
C  C79  1  0.46813906  0.66537583  0.87121747  1  0.996327  0  0.197548  0.331432  0  4.084875  0
C  C80  1  0.10927089  0.84178682  0.47814345  1  0.417014  0  0.020722  -0.028153  0  3.923764  0
C  C81  1  0.72257103  0.04703383  0.62428157  1  0.449268  0  0.01941  -0.042809  0  3.927422  0
C  C82  1  0.88646822  0.84358007  0.52253822  1  0.425572  0  0.021185  -0.027139  0  3.924188  0
C  C83  1  0.27065102  0.04501120  0.37636153  1  0.448529  0  0.019529  -0.04262  0  3.929945  0
C  C84  1  0.61161856  0.34223668  0.97816626  1  0.392527  0  0.020807  -0.027049  0  3.924251  0
C  C85  1  0.22981706  0.54574374  0.12461163  1  0.400741  0  0.019331  -0.042971  0  3.93008  0
C  C86  1  0.38988120  0.34121544  0.02328029  1  0.426522  0  0.020266  -0.029555  0  3.926673  0
C  C87  1  0.77621223  0.54588593  0.87539444  1  0.381706  0  0.019399  -0.043043  0  3.927999  0
C  C88  1  0.91508724  0.79582605  0.58048869  1  0.07248  0  -0.023279  -0.120374  0  4.069357  0
C  C89  1  0.26262253  0.06186156  0.29710935  1  0.031054  0  -0.017196  -0.104679  0  4.070909  0
C  C90  1  0.08210586  0.79339756  0.42013588  1  0.091878  0  -0.023301  -0.120589  0  4.071014  0
C  C91  1  0.73093827  0.06378984  0.70354410  1  0.02958  0  -0.017118  -0.104486  0  4.069654  0
C  C92  1  0.41748290  0.29297377  0.08119473  1  0.088003  0  -0.022974  -0.120557  0  4.069824  0
C  C93  1  0.76771115  0.56269758  0.79618473  1  0.101847  0  -0.01666  -0.102886  0  4.069165  0
C  C94  1  0.58188233  0.29421306  0.92089880  1  0.094395  0  -0.022897  -0.121014  0  4.071076  0
C  C95  1  0.23813994  0.56274605  0.20381469  1  0.05416  0  -0.017336  -0.104627  0  4.070741  0
C  C96  1  0.76063314  0.92107440  0.27987490  1  0.037672  0  -0.045528  -0.161735  0  4.107178  0
C  C97  1  0.10059351  0.20753227  0.60184519  1  0.096543  0  -0.044363  -0.16202  0  4.092718  0
C  C98  1  0.23054339  0.91842054  0.72089676  1  0.098429  0  -0.045765  -0.160356  0  4.106106  0
C  C99  1  0.90282270  0.20712947  0.39818213  1  0.021367  0  -0.044717  -0.162738  0  4.092184  0
C  C100  1  0.26696131  0.41981777  0.77995691  1  0.03584  0  -0.045913  -0.161699  0  4.105903  0
C  C101  1  0.59869366  0.70632074  0.10176990  1  0.032948  0  -0.044591  -0.160835  0  4.091068  0
C  C102  1  0.74027890  0.42089230  0.21967252  1  0.061011  0  -0.045436  -0.162036  0  4.108285  0
C  C103  1  0.39851237  0.70593403  0.89749082  1  0.045544  0  -0.044602  -0.162006  0  4.096461  0
C  C104  1  0.35956425  0.82705759  0.74546658  1  -0.040205  0  -0.085611  -0.090459  0  3.672931  0
C  C105  1  0.78570581  0.31428938  0.38367670  1  -0.036846  0  -0.081804  -0.083846  0  3.654723  0
C  C106  1  0.63064004  0.83066387  0.25293505  1  -0.020894  0  -0.085474  -0.090285  0  3.673359  0
C  C107  1  0.21977226  0.31385835  0.61536831  1  -0.032154  0  -0.082134  -0.085241  0  3.656961  0
C  C108  1  0.86991825  0.32999121  0.24600944  1  -0.024315  0  -0.085121  -0.090609  0  3.673944  0
C  C109  1  0.27891510  0.81193657  0.88491458  1  -0.031991  0  -0.08211  -0.084567  0  3.65558  0
C  C110  1  0.13757640  0.32894011  0.75412535  1  -0.053738  0  -0.086066  -0.090602  0  3.673397  0
C  C111  1  0.71690511  0.81266029  0.11660885  1  -0.026861  0  -0.082287  -0.085276  0  3.656432  0
C  C112  1  0.82819959  0.25793227  0.27589663  1  -0.04066  0  -0.083006  -0.08636  0  3.651899  0
C  C113  1  0.31911462  0.88439498  0.85313464  1  -0.044209  0  -0.079466  -0.086663  0  3.644998  0
C  C114  1  0.17868353  0.25698560  0.72316831  1  -0.051523  0  -0.082327  -0.086452  0  3.652232  0
C  C115  1  0.67597932  0.88585057  0.14563648  1  -0.048133  0  -0.079315  -0.085763  0  3.642726  0
C  C116  1  0.31880328  0.75508675  0.77668499  1  -0.013914  0  -0.083098  -0.08635  0  3.651046  0
C  C117  1  0.82691173  0.38680899  0.35317581  1  -0.033562  0  -0.079078  -0.08626  0  3.642405  0
C  C118  1  0.67207548  0.75794297  0.22450918  1  -0.054519  0  -0.083034  -0.086619  0  3.652671  0
C  C119  1  0.17923889  0.38632464  0.64690947  1  -0.03607  0  -0.079213  -0.085326  0  3.643537  0
C  C120  1  0.86713743  0.27066320  0.35869626  1  0.049457  0  -0.002449  0.100971  0  3.703052  0
C  C121  1  0.27843175  0.87028182  0.77156933  1  0.053121  0  -0.00323  0.102422  0  3.711159  0
C  C122  1  0.13846159  0.27034669  0.64100242  1  0.030502  0  -0.002492  0.100628  0  3.705538  0
C  C123  1  0.71312864  0.87294303  0.22885098  1  0.046596  0  -0.003419  0.102241  0  3.711282  0
C  C124  1  0.35997870  0.76845478  0.85847346  1  0.085549  0  -0.00255  0.100241  0  3.705337  0
C  C125  1  0.78823458  0.37314251  0.27067275  1  0.040352  0  -0.003273  0.103854  0  3.710515  0
C  C126  1  0.63464140  0.76993907  0.14101914  1  0.059486  0  -0.002709  0.100211  0  3.703652  0
C  C127  1  0.21899928  0.37212763  0.72884355  1  0.047213  0  -0.003175  0.103495  0  3.709578  0
C  C128  1  0.40021233  0.84147082  0.82624536  1  -0.020392  0  -0.081462  -0.088659  0  3.653406  0
C  C129  1  0.74711474  0.30002802  0.30224199  1  -0.075871  0  -0.08327  -0.087494  0  3.634823  0
C  C130  1  0.59354200  0.84376239  0.17045500  1  -0.033689  0  -0.080894  -0.087783  0  3.650391  0
C  C131  1  0.25951495  0.29910415  0.69621100  1  -0.037529  0  -0.083706  -0.08685  0  3.633974  0
C  C132  1  0.90853852  0.34379605  0.32780162  1  -0.04704  0  -0.081111  -0.088184  0  3.649286  0
C  C133  1  0.23823795  0.79723899  0.80442764  1  -0.021223  0  -0.082991  -0.08574  0  3.633749  0
C  C134  1  0.09784927  0.34336744  0.67295346  1  -0.033909  0  -0.081076  -0.088168  0  3.653281  0
C  C135  1  0.75400220  0.79911224  0.19875367  1  -0.071744  0  -0.083011  -0.085949  0  3.635317  0
C  C136  1  0.11842207  0.72245344  0.40671511  1  0.40869  0  0.10249  0.262229  0  4.022476  0
C  C137  1  0.66391505  0.09439486  0.74992675  1  0.368606  0  0.097471  0.24707  0  4.039075  0
C  C138  1  0.88177748  0.72376751  0.59350105  1  0.420939  0  0.103116  0.262622  0  4.018595  0
C  C139  1  0.32943897  0.09382514  0.25158275  1  0.374046  0  0.097371  0.24768  0  4.037857  0
C  C140  1  0.61491246  0.22205444  0.90787122  1  0.391317  0  0.103035  0.262741  0  4.020272  0
C  C141  1  0.17145886  0.59478331  0.24948591  1  0.41002  0  0.096937  0.24736  0  4.038559  0
C  C142  1  0.38165023  0.22187108  0.09466272  1  0.368533  0  0.102836  0.26269  0  4.020599  0
C  C143  1  0.83427843  0.59427986  0.75005141  1  0.369789  0  0.096895  0.246437  0  4.041714  0
C  C144  1  0.10937584  0.67702503  0.34504015  1  0.076237  0  -0.109659  -0.200264  0  4.040492  0
C  C145  1  0.66568038  0.12569495  0.82143822  1  0.085971  0  -0.103342  -0.187691  0  4.03666  0
C  C146  1  0.89374312  0.67787678  0.65430818  1  0.109666  0  -0.109595  -0.200861  0  4.036769  0
C  C147  1  0.32816993  0.12585126  0.18046068  1  0.071197  0  -0.102948  -0.186998  0  4.037846  0
C  C148  1  0.60329386  0.17650304  0.84665967  1  0.069077  0  -0.109455  -0.199855  0  4.035079  0
C  C149  1  0.17271933  0.62665563  0.32073530  1  0.032915  0  -0.102674  -0.188284  0  4.036563  0
C  C150  1  0.39129676  0.17638927  0.15616864  1  0.079337  0  -0.109395  -0.200981  0  4.038996  0
C  C151  1  0.83187673  0.62638682  0.67901503  1  0.065402  0  -0.103311  -0.187824  0  4.038218  0
N  N152  1  0.95802312  0.91260418  0.60239819  1  -0.717194  0  -0.243307  -0.214568  0  3.545185  0
N  N153  1  0.13717281  0.02549418  0.35087907  1  -0.673724  0  -0.23839  -0.215985  0  3.495469  0
N  N154  1  0.03476361  0.90902331  0.39896860  1  -0.709764  0  -0.24385  -0.216258  0  3.547941  0
N  N155  1  0.85699671  0.03071784  0.64843042  1  -0.700436  0  -0.238656  -0.216671  0  3.494505  0
N  N156  1  0.46472683  0.40871710  0.10203155  1  -0.720409  0  -0.243622  -0.215527  0  3.547428  0
N  N157  1  0.64207916  0.52816109  0.85104698  1  -0.719327  0  -0.238034  -0.215595  0  3.494048  0
N  N158  1  0.53978380  0.41108192  0.89841208  1  -0.733621  0  -0.243944  -0.216238  0  3.547668  0
N  N159  1  0.36331344  0.52596447  0.14980397  1  -0.692335  0  -0.238628  -0.215881  0  3.496697  0
N  N160  1  0.82184573  0.96481541  0.38808482  1  -0.828655  0  -0.29559  -0.195549  0  3.626037  0
N  N161  1  0.09255978  0.09711148  0.54307359  1  -0.784183  0  -0.290641  -0.175313  0  3.622015  0
N  N162  1  0.17021691  0.96304694  0.61268972  1  -0.800037  0  -0.295984  -0.197977  0  3.630339  0
N  N163  1  0.90551350  0.09671870  0.45723999  1  -0.777163  0  -0.290897  -0.173697  0  3.624172  0
N  N164  1  0.32854522  0.46297372  0.88826321  1  -0.812649  0  -0.295332  -0.197461  0  3.626447  0
N  N165  1  0.59489260  0.59586651  0.04270951  1  -0.78576  0  -0.290768  -0.174287  0  3.624717  0
N  N166  1  0.67808689  0.46378329  0.11161401  1  -0.83443  0  -0.295449  -0.19528  0  3.626239  0
N  N167  1  0.40798614  0.59626205  0.95748330  1  -0.791881  0  -0.290205  -0.174028  0  3.61758  0
N  N168  1  0.87245199  0.98549419  0.32613142  1  -0.805519  0  -0.281946  -0.302251  0  3.488444  0
N  N169  1  0.02603204  0.10114119  0.59468106  1  -0.790926  0  -0.290647  -0.314256  0  3.57124  0
N  N170  1  0.12061920  0.98529435  0.67471153  1  -0.814413  0  -0.281742  -0.30287  0  3.485547  0
N  N171  1  0.97219879  0.09818807  0.40565550  1  -0.796257  0  -0.290666  -0.316466  0  3.570388  0
N  N172  1  0.37803047  0.48520423  0.82619015  1  -0.797621  0  -0.282539  -0.304066  0  3.489639  0
N  N173  1  0.52851342  0.59772869  0.09461492  1  -0.797635  0  -0.290591  -0.316006  0  3.57198  0
N  N174  1  0.62795384  0.48482396  0.17376852  1  -0.803526  0  -0.28144  -0.302267  0  3.489348  0
N  N175  1  0.47397992  0.60007633  0.90527035  1  -0.791761  0  -0.290812  -0.314805  0  3.568922  0
N  N176  1  0.08066468  0.90972403  0.46405011  1  -0.742594  0  -0.248021  -0.135096  0  3.563952  0
N  N177  1  0.79850082  0.02788802  0.59342982  1  -0.740037  0  -0.23674  -0.10484  0  3.545587  0
N  N178  1  0.91261961  0.91215735  0.53699873  1  -0.752316  0  -0.249426  -0.136202  0  3.570451  0
N  N179  1  0.19509771  0.02392090  0.40642599  1  -0.761733  0  -0.236809  -0.104841  0  3.542443  0
N  N180  1  0.58595911  0.41088034  0.96336466  1  -0.746686  0  -0.248375  -0.135001  0  3.56853  0
N  N181  1  0.30522208  0.52440299  0.09440524  1  -0.742383  0  -0.236771  -0.105047  0  3.544726  0
N  N182  1  0.41846725  0.40920628  0.03716709  1  -0.73602  0  -0.247877  -0.133898  0  3.567782  0
N  N183  1  0.70053951  0.52588554  0.90610091  1  -0.708189  0  -0.237009  -0.104513  0  3.544861  0
N  N184  1  0.00174543  0.83034259  0.70090390  1  0.330915  0  0.051919  0.498398  0  4.226223  0
N  N185  1  0.12173307  0.05222152  0.22012695  1  0.289666  0  0.054626  0.495732  0  4.189124  0
N  N186  1  0.99156032  0.82557047  0.30137504  1  0.324636  0  0.051769  0.499427  0  4.228115  0
N  N187  1  0.87276150  0.05655860  0.77942662  1  0.278984  0  0.054579  0.495034  0  4.184988  0
N  N188  1  0.50868535  0.32552846  0.19946944  1  0.318801  0  0.051779  0.499584  0  4.225234  0
N  N189  1  0.62610046  0.55405548  0.72013155  1  0.294587  0  0.054443  0.496118  0  4.186736  0
N  N190  1  0.49353269  0.32799719  0.80147863  1  0.322364  0  0.051624  0.499037  0  4.223586  0
N  N191  1  0.37926152  0.55302537  0.28045138  1  0.270162  0  0.055129  0.495705  0  4.189712  0
O  O192  1  0.03606134  0.76991975  0.71045309  1  -0.464154  0  -0.125799  -0.326224  0  1.920111  0
O  O193  1  0.00006451  0.88031899  0.74977508  1  -0.465449  0  -0.126597  -0.331992  0  1.964912  0
O  O194  1  0.04366823  0.03680899  0.23026516  1  -0.518352  0  -0.146532  -0.338607  0  2.073891  0
O  O195  1  0.15074570  0.07043032  0.15616598  1  -0.430064  0  -0.110495  -0.291572  0  1.908882  0
O  O196  1  0.96081264  0.76372071  0.29177061  1  -0.461872  0  -0.12784  -0.327713  0  1.914561  0
O  O197  1  0.98795769  0.87618179  0.25342550  1  -0.461233  0  -0.126331  -0.333066  0  1.974151  0
O  O198  1  0.95106762  0.04229974  0.76881207  1  -0.511634  0  -0.146742  -0.337486  0  2.078067  0
O  O199  1  0.84391437  0.07394757  0.84372147  1  -0.436773  0  -0.109642  -0.290511  0  1.911504  0
O  O200  1  0.53953116  0.26371743  0.20900065  1  -0.469123  0  -0.128023  -0.327917  0  1.914061  0
O  O201  1  0.51263377  0.37628216  0.24728162  1  -0.448346  0  -0.126477  -0.33336  0  1.970806  0
O  O202  1  0.54791105  0.53934167  0.73079287  1  -0.520136  0  -0.146638  -0.338301  0  2.076203  0
O  O203  1  0.65484600  0.57142951  0.65581264  1  -0.435655  0  -0.109974  -0.291389  0  1.911839  0
O  O204  1  0.45877996  0.26754913  0.79327105  1  -0.460182  0  -0.125876  -0.326263  0  1.917219  0
O  O205  1  0.49433300  0.37741171  0.75202534  1  -0.453749  0  -0.125938  -0.331832  0  1.962803  0
O  O206  1  0.45719110  0.53714258  0.27018822  1  -0.522826  0  -0.147077  -0.338484  0  2.073154  0
O  O207  1  0.35060998  0.57177074  0.34438842  1  -0.42004  0  -0.110669  -0.292095  0  1.909533  0
F  F208  1  0.86880077  0.97263321  0.19267530  1  -0.628059  0  -0.083657  -0.120186  0  1.352984  0
F  F209  1  0.97324272  0.18657873  0.68238145  1  -0.644694  0  -0.097533  -0.142679  0  1.328881  0
F  F210  1  0.12460442  0.97337816  0.80823153  1  -0.625174  0  -0.08485  -0.121764  0  1.352667  0
F  F211  1  0.02897010  0.18138013  0.31761895  1  -0.643501  0  -0.097049  -0.142158  0  1.330563  0
F  F212  1  0.37330047  0.47404000  0.69263535  1  -0.625005  0  -0.084784  -0.121759  0  1.352015  0
F  F213  1  0.47274424  0.68132709  0.18284248  1  -0.643803  0  -0.096965  -0.141991  0  1.330687  0
F  F214  1  0.63262758  0.47284926  0.30724856  1  -0.629063  0  -0.084112  -0.121013  0  1.35235  0
F  F215  1  0.52525320  0.68471130  0.81610404  1  -0.64174  0  -0.097919  -0.142972  0  1.328749  0
F  F216  1  0.59065802  0.10056464  0.70857611  1  -0.623006  0  -0.10249  -0.142628  0  1.308781  0
F  F217  1  0.18077611  0.70708048  0.45856606  1  -0.618768  0  -0.09879  -0.135548  0  1.304586  0
F  F218  1  0.40226516  0.10009281  0.29358992  1  -0.621926  0  -0.102477  -0.142752  0  1.308369  0
F  F219  1  0.81899486  0.70720836  0.54247773  1  -0.624319  0  -0.098677  -0.135523  0  1.303991  0
F  F220  1  0.09860735  0.60122488  0.20753279  1  -0.622587  0  -0.101819  -0.142122  0  1.309304  0
F  F221  1  0.67760347  0.20533743  0.95890650  1  -0.622635  0  -0.098009  -0.135103  0  1.30654  0
F  F222  1  0.90755962  0.60061016  0.79133143  1  -0.623826  0  -0.101959  -0.141967  0  1.309207  0
F  F223  1  0.31909593  0.20629378  0.04307573  1  -0.626155  0  -0.09864  -0.135331  0  1.304464  0
