# generated using pymatgen
data_CdH14C18SN2O9
_symmetry_space_group_name_H-M   'P 1'
_cell_length_a   7.56374862
_cell_length_b   9.44827200
_cell_length_c   12.76047170
_cell_angle_alpha   90.00004312
_cell_angle_beta   89.99973121
_cell_angle_gamma   100.64443611
_symmetry_Int_Tables_number   1
_chemical_formula_structural   CdH14C18SN2O9
_chemical_formula_sum   'Cd2 H28 C36 S2 N4 O18'
_cell_volume   896.22692600
_cell_formula_units_Z   2
loop_
 _symmetry_equiv_pos_site_id
 _symmetry_equiv_pos_as_xyz
  1  'x, y, z'
loop_
 _atom_site_type_symbol
 _atom_site_label
 _atom_site_symmetry_multiplicity
 _atom_site_fract_x
 _atom_site_fract_y
 _atom_site_fract_z
 _atom_site_occupancy
 _atom_site_hle17_bader_spin_density
 _atom_site_hle17_ddec_charge
 _atom_site_hle17_ddec_spin_density
 _atom_site_hle17_ddec_sum_bond_order
 _atom_site_hle17_magmom
 _atom_site_hse06_10hf_bader_spin_density
 _atom_site_hse06_10hf_ddec_charge
 _atom_site_hse06_10hf_ddec_spin_density
 _atom_site_hse06_10hf_ddec_sum_bond_order
 _atom_site_hse06_10hf_magmom
 _atom_site_hse06_bader_spin_density
 _atom_site_hse06_ddec_charge
 _atom_site_hse06_ddec_spin_density
 _atom_site_hse06_ddec_sum_bond_order
 _atom_site_hse06_magmom
 _atom_site_pbe_bader_spin_density
 _atom_site_pbe_cm5_charge
 _atom_site_pbe_ddec_charge
 _atom_site_pbe_ddec_spin_density
 _atom_site_pbe_ddec_sum_bond_order
 _atom_site_pbe_magmom
Cd  Cd0  1  0.23037462  0.38587833  0.63860705  1  0  1.209162  0  1.585295  0  0  1.019603  0  2.032886  0  0  1.076906  0  1.97702  0  0  0.7787  0.978763  0  2.071057  0
Cd  Cd1  1  0.76962634  0.61412456  0.13860682  1  0  1.209164  0  1.585259  0  0  1.019615  0  2.032842  0  0  1.076923  0  1.976972  0  0  0.778709  0.978779  0  2.071014  0
H  H2  1  0.34106891  0.46965675  0.91831915  1  0  0.084134  0  0.971792  0  0  0.08923  0  1.041031  0  0  0.092238  0  1.038035  0  0  0.117468  0.087039  0  1.043149  0
H  H3  1  0.65893185  0.53034294  0.41832075  1  0  0.084132  0  0.971749  0  0  0.089227  0  1.04099  0  0  0.092244  0  1.037979  0  0  0.117453  0.087035  0  1.043111  0
H  H4  1  0.32518403  0.67329225  0.03699366  1  0  0.126704  0  0.942487  0  0  0.135598  0  1.0004  0  0  0.13927  0  0.999291  0  0  0.114047  0.132911  0  1.001443  0
H  H5  1  0.67481509  0.32670417  0.53699418  1  0  0.126759  0  0.942463  0  0  0.135676  0  1.000361  0  0  0.139345  0  0.999255  0  0  0.114091  0.132989  0  1.001402  0
H  H6  1  0.20461636  0.88868576  0.97059260  1  0  0.102978  0  0.930488  0  0  0.11547  0  0.987311  0  0  0.118006  0  0.985026  0  0  0.11547  0.113709  0  0.988901  0
H  H7  1  0.79537823  0.11131167  0.47059202  1  0  0.102966  0  0.930498  0  0  0.115455  0  0.987309  0  0  0.117996  0  0.985027  0  0  0.115444  0.113693  0  0.988897  0
H  H8  1  0.95468128  0.96458454  0.53075595  1  0  0.103599  0  0.936951  0  0  0.114237  0  0.997126  0  0  0.117076  0  0.994387  0  0  0.114394  0.112112  0  0.999169  0
H  H9  1  0.04531457  0.03541504  0.03075351  1  0  0.103565  0  0.936945  0  0  0.114236  0  0.997106  0  0  0.117075  0  0.994366  0  0  0.114409  0.112112  0  0.999151  0
H  H10  1  0.94295631  0.78474837  0.38469862  1  0  0.12232  0  0.969423  0  0  0.127499  0  1.035402  0  0  0.13157  0  1.033475  0  0  0.110465  0.12456  0  1.036994  0
H  H11  1  0.05705377  0.21525684  0.88469690  1  0  0.122239  0  0.969459  0  0  0.12742  0  1.035435  0  0  0.131493  0  1.03351  0  0  0.110436  0.124475  0  1.03703  0
H  H12  1  0.06075787  0.55708435  0.41465715  1  0  0.093804  0  0.940673  0  0  0.099585  0  1.004813  0  0  0.102271  0  1.002548  0  0  0.120334  0.097449  0  1.006572  0
H  H13  1  0.93925065  0.44292083  0.91465857  1  0  0.093825  0  0.940807  0  0  0.099601  0  1.004915  0  0  0.102287  0  1.002652  0  0  0.120323  0.097456  0  1.006705  0
H  H14  1  0.63650305  0.04254798  0.96472130  1  0  0.108532  0  0.955193  0  0  0.11677  0  1.021143  0  0  0.119772  0  1.019254  0  0  0.107434  0.114747  0  1.022359  0
H  H15  1  0.36350198  0.95745500  0.46472238  1  0  0.108497  0  0.955154  0  0  0.11672  0  1.021124  0  0  0.119721  0  1.019237  0  0  0.10742  0.114703  0  1.022324  0
H  H16  1  0.56063234  0.84210912  0.60258532  1  0  0.124677  0  0.96042  0  0  0.134216  0  1.021231  0  0  0.138264  0  1.019459  0  0  0.104655  0.131426  0  1.022556  0
H  H17  1  0.43936273  0.15788937  0.10258733  1  0  0.124723  0  0.960428  0  0  0.134241  0  1.021253  0  0  0.13829  0  1.01948  0  0  0.104681  0.131452  0  1.022577  0
H  H18  1  0.48607966  0.08337425  0.64151403  1  0  0.112033  0  0.956961  0  0  0.120327  0  1.020743  0  0  0.124005  0  1.017576  0  0  0.106454  0.117733  0  1.023042  0
H  H19  1  0.51392084  0.91662649  0.14151546  1  0  0.112052  0  0.956942  0  0  0.12034  0  1.020721  0  0  0.12402  0  1.017553  0  0  0.10646  0.117749  0  1.02302  0
H  H20  1  0.72273651  0.64091301  0.81308431  1  0  0.393397  0  0.893758  0  0  0.358412  0  0.978493  0  0  0.371767  0  0.964745  0  0  0.295615  0.348696  0  0.988912  0
H  H21  1  0.27725270  0.35908432  0.31308531  1  0  0.393318  0  0.893861  0  0  0.358281  0  0.978698  0  0  0.371638  0  0.96495  0  0  0.295582  0.348564  0  0.989117  0
H  H22  1  0.57400634  0.57283557  0.64400219  1  0  0.427023  0  0.874023  0  0  0.393624  0  0.940684  0  0  0.404926  0  0.924392  0  0  0.291683  0.385217  0  0.952954  0
H  H23  1  0.42599371  0.42716302  0.14400360  1  0  0.42706  0  0.87399  0  0  0.393651  0  0.94066  0  0  0.404953  0  0.924369  0  0  0.291704  0.385245  0  0.952931  0
H  H24  1  0.48270198  0.59015786  0.53306050  1  0  0.429136  0  0.872184  0  0  0.39817  0  0.936751  0  0  0.408296  0  0.922041  0  0  0.292453  0.390911  0  0.947311  0
H  H25  1  0.51729917  0.40984182  0.03306164  1  0  0.429161  0  0.872141  0  0  0.398185  0  0.936718  0  0  0.408311  0  0.922008  0  0  0.292473  0.390927  0  0.947277  0
H  H26  1  0.96894760  0.15605141  0.70464348  1  0  0.422117  0  0.878081  0  0  0.389286  0  0.944707  0  0  0.400162  0  0.928986  0  0  0.292655  0.381493  0  0.955997  0
H  H27  1  0.03105218  0.84394825  0.20464230  1  0  0.422152  0  0.878041  0  0  0.389319  0  0.944663  0  0  0.400195  0  0.928946  0  0  0.29269  0.381528  0  0.955953  0
H  H28  1  0.85562378  0.28343044  0.71247411  1  0  0.432049  0  0.866521  0  0  0.400099  0  0.931212  0  0  0.410541  0  0.916316  0  0  0.290116  0.392711  0  0.941746  0
H  H29  1  0.14437882  0.71657034  0.21247411  1  0  0.432048  0  0.866516  0  0  0.400097  0  0.931206  0  0  0.410538  0  0.916312  0  0  0.290112  0.39271  0  0.94174  0
C  C30  1  0.28852561  0.56226942  0.89031872  1  0  0.156851  0  3.646982  0  0  0.122828  0  3.909218  0  0  0.13121  0  3.925294  0  0  0.058138  0.117204  0  3.898196  0
C  C31  1  0.71147206  0.43772699  0.39032012  1  0  0.156812  0  3.647015  0  0  0.122797  0  3.909295  0  0  0.131174  0  3.925368  0  0  0.058111  0.117169  0  3.898279  0
C  C32  1  0.27884235  0.67829001  0.95659139  1  0  -0.10804  0  3.650921  0  0  -0.123185  0  3.908831  0  0  -0.131719  0  3.929836  0  0  -0.073111  -0.117766  0  3.89487  0
C  C33  1  0.72115611  0.32170642  0.45659192  1  0  -0.108127  0  3.651071  0  0  -0.123326  0  3.909034  0  0  -0.131861  0  3.930047  0  0  -0.0732  -0.117907  0  3.895074  0
C  C34  1  0.21198584  0.79782767  0.91935856  1  0  0.034737  0  3.636486  0  0  0.005448  0  3.89025  0  0  0.011807  0  3.90619  0  0  -0.041945  0.001379  0  3.879277  0
C  C35  1  0.78801005  0.20216763  0.41935806  1  0  0.034806  0  3.63665  0  0  0.005541  0  3.890401  0  0  0.011894  0  3.906348  0  0  -0.041911  0.001471  0  3.879427  0
C  C36  1  0.15810772  0.79405514  0.81527628  1  0  -0.119202  0  3.728539  0  0  -0.108539  0  3.972243  0  0  -0.119478  0  3.995795  0  0  -0.011378  -0.101051  0  3.956173  0
C  C37  1  0.84188634  0.20594013  0.31527562  1  0  -0.119349  0  3.728631  0  0  -0.108674  0  3.972351  0  0  -0.11963  0  3.995893  0  0  -0.011376  -0.101186  0  3.956279  0
C  C38  1  0.08302568  0.89594097  0.74515205  1  0  0.435875  0  3.689746  0  0  0.405246  0  3.961124  0  0  0.428734  0  3.964032  0  0  0.183038  0.389297  0  3.959256  0
C  C39  1  0.91696827  0.10405108  0.24515426  1  0  0.436024  0  3.689975  0  0  0.405319  0  3.961462  0  0  0.428865  0  3.964278  0  0  0.183008  0.389373  0  3.959593  0
C  C40  1  0.05943897  0.82460715  0.63967947  1  0  -0.115995  0  3.724867  0  0  -0.105615  0  3.969246  0  0  -0.116171  0  3.991237  0  0  -0.010016  -0.098964  0  3.954675  0
C  C41  1  0.94055470  0.17539240  0.13967931  1  0  -0.116152  0  3.724782  0  0  -0.105783  0  3.969245  0  0  -0.116357  0  3.991223  0  0  -0.010041  -0.09912  0  3.954685  0
C  C42  1  0.99623086  0.86158697  0.54323659  1  0  0.034631  0  3.632764  0  0  0.004939  0  3.886728  0  0  0.011961  0  3.901466  0  0  -0.042072  0.000573  0  3.876642  0
C  C43  1  0.00377043  0.13841378  0.04323511  1  0  0.034632  0  3.632608  0  0  0.004903  0  3.886597  0  0  0.011927  0  3.901332  0  0  -0.04211  0.000536  0  3.876508  0
C  C44  1  0.99244960  0.76152220  0.46160479  1  0  -0.115123  0  3.645573  0  0  -0.13074  0  3.906199  0  0  -0.139507  0  3.926367  0  0  -0.074472  -0.125154  0  3.892747  0
C  C45  1  0.00755722  0.23848296  0.96160479  1  0  -0.114853  0  3.645498  0  0  -0.130462  0  3.906074  0  0  -0.139231  0  3.926246  0  0  -0.074416  -0.124867  0  3.892619  0
C  C46  1  0.05253232  0.63201233  0.47836956  1  0  0.168811  0  3.640157  0  0  0.13442  0  3.903173  0  0  0.143463  0  3.919328  0  0  0.064244  0.12864  0  3.892056  0
C  C47  1  0.94747436  0.36799283  0.97837091  1  0  0.168624  0  3.640381  0  0  0.134283  0  3.903327  0  0  0.143325  0  3.919489  0  0  0.064272  0.128504  0  3.892191  0
C  C48  1  0.11073885  0.68984475  0.64890786  1  0  0.172363  0  3.821398  0  0  0.161475  0  4.060807  0  0  0.169308  0  4.080469  0  0  0.130183  0.156346  0  4.047223  0
C  C49  1  0.88925674  0.31015161  0.14890713  1  0  0.172407  0  3.821539  0  0  0.161514  0  4.060955  0  0  0.169348  0  4.080619  0  0  0.13018  0.156341  0  4.047432  0
C  C50  1  0.17191954  0.67155272  0.75584974  1  0  0.161174  0  3.837805  0  0  0.151479  0  4.078652  0  0  0.158966  0  4.098496  0  0  0.127891  0.146573  0  4.064917  0
C  C51  1  0.82807941  0.32844478  0.25584841  1  0  0.161274  0  3.837899  0  0  0.151595  0  4.078715  0  0  0.159082  0  4.09856  0  0  0.12795  0.1467  0  4.06499  0
C  C52  1  0.56264232  0.07858425  0.80499847  1  0  -0.167438  0  3.780782  0  0  -0.141067  0  4.035397  0  0  -0.152666  0  4.058552  0  0  -0.037098  -0.133995  0  4.020619  0
C  C53  1  0.43736264  0.92141873  0.30500247  1  0  -0.167613  0  3.780786  0  0  -0.141314  0  4.035495  0  0  -0.152917  0  4.058648  0  0  -0.0372  -0.134246  0  4.020724  0
C  C54  1  0.62079950  0.99927405  0.88552779  1  0  -0.038498  0  3.756649  0  0  -0.077686  0  4.010032  0  0  -0.071053  0  4.028232  0  0  -0.080435  -0.081778  0  3.997649  0
C  C55  1  0.37920328  0.00072782  0.38552832  1  0  -0.038338  0  3.756512  0  0  -0.077487  0  4.009891  0  0  -0.070852  0  4.028088  0  0  -0.080348  -0.081584  0  3.997506  0
C  C56  1  0.66029343  0.86289539  0.86543754  1  0  -0.214067  0  3.77572  0  0  -0.193052  0  4.017784  0  0  -0.208135  0  4.041272  0  0  -0.041003  -0.182765  0  4.001566  0
C  C57  1  0.33970707  0.13710750  0.36543825  1  0  -0.214191  0  3.775788  0  0  -0.193155  0  4.017858  0  0  -0.208241  0  4.041345  0  0  -0.041024  -0.182844  0  4.00161  0
C  C58  1  0.64188406  0.80795159  0.76180345  1  0  0.340331  0  3.792558  0  0  0.318097  0  4.056375  0  0  0.334386  0  4.071042  0  0  0.088645  0.306768  0  4.04623  0
C  C59  1  0.35811638  0.19204701  0.26180335  1  0  0.340511  0  3.79244  0  0  0.318229  0  4.05632  0  0  0.33452  0  4.070982  0  0  0.088687  0.306891  0  4.046176  0
C  C60  1  0.57832522  0.88741890  0.68139744  1  0  -0.203938  0  3.707965  0  0  -0.222639  0  3.970435  0  0  -0.231776  0  3.989471  0  0  -0.110052  -0.216648  0  3.957582  0
C  C61  1  0.42167187  0.11257964  0.18139791  1  0  -0.204033  0  3.708064  0  0  -0.222702  0  3.970534  0  0  -0.231839  0  3.989567  0  0  -0.110089  -0.21671  0  3.957683  0
C  C62  1  0.53852597  0.02205707  0.70299678  1  0  -0.027485  0  3.74404  0  0  -0.05605  0  3.999372  0  0  -0.050452  0  4.016299  0  0  -0.082358  -0.059508  0  3.988006  0
C  C63  1  0.46147516  0.97794261  0.20299838  1  0  -0.027481  0  3.744032  0  0  -0.05601  0  3.999341  0  0  -0.050415  0  4.016275  0  0  -0.08236  -0.059469  0  3.98798  0
C  C64  1  0.71779436  0.77361180  0.95063726  1  0  0.637527  0  3.925992  0  0  0.586656  0  4.216938  0  0  0.621651  0  4.211672  0  0  0.195384  0.563056  0  4.219296  0
C  C65  1  0.28220216  0.22638781  0.45063818  1  0  0.637452  0  3.926216  0  0  0.586582  0  4.217152  0  0  0.62158  0  4.211885  0  0  0.195394  0.562976  0  4.21951  0
S  S66  1  0.53180741  0.25771421  0.82712157  1  0  1.327162  0  5.617889  0  0  1.223853  0  6.139709  0  0  1.272697  0  6.11575  0  0  0.515764  1.189664  0  6.156116  0
S  S67  1  0.46819849  0.74228771  0.32712382  1  0  1.327367  0  5.61751  0  0  1.224105  0  6.139307  0  0  1.272948  0  6.11534  0  0  0.515868  1.189918  0  6.15572  0
N  N68  1  0.23311651  0.55693206  0.78932096  1  0  -0.353477  0  3.177844  0  0  -0.292558  0  3.442722  0  0  -0.310515  0  3.45797  0  0  -0.312157  -0.279682  0  3.431653  0
N  N69  1  0.76688483  0.44306549  0.28932299  1  0  -0.353489  0  3.177927  0  0  -0.292559  0  3.44279  0  0  -0.310517  0  3.458039  0  0  -0.312164  -0.279686  0  3.431724  0
N  N70  1  0.10833378  0.59354857  0.57308619  1  0  -0.345015  0  3.174001  0  0  -0.278503  0  3.433428  0  0  -0.297327  0  3.448901  0  0  -0.308483  -0.265671  0  3.422411  0
N  N71  1  0.89166903  0.40645436  0.07308629  1  0  -0.34499  0  3.174023  0  0  -0.278503  0  3.433458  0  0  -0.297329  0  3.44893  0  0  -0.30852  -0.265656  0  3.422452  0
O  O72  1  0.04410217  0.01162953  0.77127707  1  0  -0.430918  0  2.01434  0  0  -0.370495  0  2.219204  0  0  -0.390448  0  2.216487  0  0  -0.21801  -0.357021  0  2.221183  0
O  O73  1  0.95588625  0.98836886  0.27127182  1  0  -0.430935  0  2.014795  0  0  -0.370443  0  2.219648  0  0  -0.390414  0  2.216894  0  0  -0.217931  -0.356974  0  2.221635  0
O  O74  1  0.72061720  0.81640898  0.04524440  1  0  -0.622721  0  1.977715  0  0  -0.555614  0  2.218647  0  0  -0.585331  0  2.210701  0  0  -0.320974  -0.534773  0  2.223369  0
O  O75  1  0.27938915  0.18359723  0.54524439  1  0  -0.622729  0  1.977951  0  0  -0.555617  0  2.218873  0  0  -0.585331  0  2.210925  0  0  -0.321019  -0.534779  0  2.223598  0
O  O76  1  0.76016333  0.65225144  0.92479721  1  0  -0.624875  0  1.983013  0  0  -0.566064  0  2.214399  0  0  -0.592874  0  2.206479  0  0  -0.319319  -0.547248  0  2.219655  0
O  O77  1  0.23983073  0.34774812  0.42479518  1  0  -0.624773  0  1.983055  0  0  -0.565916  0  2.21443  0  0  -0.592731  0  2.206523  0  0  -0.319268  -0.547089  0  2.219649  0
O  O78  1  0.68535652  0.67896169  0.73983473  1  0  -0.540333  0  2.168454  0  0  -0.474715  0  2.384742  0  0  -0.498096  0  2.376955  0  0  -0.333028  -0.458073  0  2.390993  0
O  O79  1  0.31463304  0.32103457  0.23983561  1  0  -0.540292  0  2.168357  0  0  -0.474658  0  2.384751  0  0  -0.498048  0  2.376982  0  0  -0.333005  -0.458017  0  2.391008  0
O  O80  1  0.68416140  0.35069556  0.77423619  1  0  -0.669374  0  1.924159  0  0  -0.608647  0  2.157687  0  0  -0.629866  0  2.143519  0  0  -0.340228  -0.592837  0  2.168485  0
O  O81  1  0.31584492  0.64930636  0.27423803  1  0  -0.669462  0  1.924037  0  0  -0.608705  0  2.157499  0  0  -0.629933  0  2.143357  0  0  -0.34028  -0.592891  0  2.16829  0
O  O82  1  0.53236762  0.27622313  0.94170198  1  0  -0.68353  0  1.989931  0  0  -0.627145  0  2.239026  0  0  -0.648533  0  2.22507  0  0  -0.340505  -0.611938  0  2.248458  0
O  O83  1  0.46763471  0.72377873  0.44170500  1  0  -0.683527  0  1.989816  0  0  -0.627194  0  2.238914  0  0  -0.648581  0  2.224957  0  0  -0.340493  -0.611988  0  2.248348  0
O  O84  1  0.35708430  0.26936721  0.78007889  1  0  -0.696882  0  2.044309  0  0  -0.634864  0  2.326702  0  0  -0.659373  0  2.310327  0  0  -0.348644  -0.61775  0  2.337024  0
O  O85  1  0.64292329  0.73063474  0.28008064  1  0  -0.696974  0  2.044367  0  0  -0.634952  0  2.326722  0  0  -0.659459  0  2.310343  0  0  -0.348686  -0.617837  0  2.337049  0
O  O86  1  0.50287453  0.51865298  0.58654985  1  0  -0.838462  0  1.897317  0  0  -0.776496  0  2.101739  0  0  -0.799728  0  2.068971  0  0  -0.583762  -0.760054  0  2.125038  0
O  O87  1  0.49712708  0.48134457  0.08655109  1  0  -0.8385  0  1.897239  0  0  -0.776522  0  2.101708  0  0  -0.799754  0  2.068937  0  0  -0.583795  -0.76008  0  2.125007  0
O  O88  1  0.94965557  0.24658482  0.67146843  1  0  -0.84576  0  1.863621  0  0  -0.782917  0  2.065629  0  0  -0.806226  0  2.032185  0  0  -0.586192  -0.766331  0  2.088886  0
O  O89  1  0.05034714  0.75341489  0.17146636  1  0  -0.845757  0  1.863558  0  0  -0.782924  0  2.065574  0  0  -0.806232  0  2.032128  0  0  -0.586213  -0.766339  0  2.08883  0
