# generated using pymatgen
data_GdP4H20Ru2(CO5)4
_symmetry_space_group_name_H-M   'P 1'
_cell_length_a   9.52330932
_cell_length_b   9.52620725
_cell_length_c   15.54800000
_cell_angle_alpha   92.95649720
_cell_angle_beta   92.95739766
_cell_angle_gamma   99.06843663
_symmetry_Int_Tables_number   1
_chemical_formula_structural   GdP4H20Ru2(CO5)4
_chemical_formula_sum   'Gd2 P8 H40 Ru4 C8 O40'
_cell_volume   1388.49277074
_cell_formula_units_Z   2
loop_
 _symmetry_equiv_pos_site_id
 _symmetry_equiv_pos_as_xyz
  1  'x, y, z'
loop_
 _atom_site_type_symbol
 _atom_site_label
 _atom_site_symmetry_multiplicity
 _atom_site_fract_x
 _atom_site_fract_y
 _atom_site_fract_z
 _atom_site_occupancy
 _atom_site_hle17_bader_charge
 _atom_site_hle17_bader_spin_density
 _atom_site_hle17_ddec_charge
 _atom_site_hle17_ddec_spin_density
 _atom_site_hle17_ddec_sum_bond_order
 _atom_site_hle17_magmom
 _atom_site_hse06_10hf_ddec_charge
 _atom_site_hse06_10hf_ddec_spin_density
 _atom_site_hse06_10hf_ddec_sum_bond_order
 _atom_site_hse06_10hf_magmom
 _atom_site_hse06_ddec_charge
 _atom_site_hse06_ddec_spin_density
 _atom_site_hse06_ddec_sum_bond_order
 _atom_site_hse06_magmom
 _atom_site_pbe_bader_charge
 _atom_site_pbe_bader_spin_density
 _atom_site_pbe_cm5_charge
 _atom_site_pbe_ddec_charge
 _atom_site_pbe_ddec_spin_density
 _atom_site_pbe_ddec_sum_bond_order
 _atom_site_pbe_magmom
Gd  Gd0  1  0.99262394  0.00738135  0.74995322  1  2.312211  -0.000203  2.304567  -0.000442  1.716112  0.0  2.22395  -0.00045  2.061795  0.0  2.261099  -0.000386  2.022664  0.0  2.226467  -0.000192  1.49032  2.19565  -0.000457  2.09318  0.0
Gd  Gd1  1  0.00738341  0.99261557  0.25004370  1  2.312025  -0.000204  2.31632  -0.000441  1.695504  0.0  2.224005  -0.00045  2.061935  0.0  2.261067  -0.000457  2.022881  0.0  2.226428  -0.000192  1.490372  2.195711  -0.000458  2.093303  0.0
P  P2  1  0.05891327  0.34393947  0.64033044  1  3.246283  0.001283  1.350438  -0.001081  4.918157  0.003  1.195008  0.00028  5.430522  0.004  1.244026  -0.001316  5.399143  0.003  3.2798  0.003075  0.319785  1.160898  0.00239  5.452067  0.005
P  P3  1  0.65609640  0.94113674  0.85965169  1  3.246559  0.001265  1.351274  -0.001096  4.918035  0.003  1.195771  0.000302  5.430402  0.004  1.245793  -0.000534  5.395379  0.003  3.280951  0.003072  0.319902  1.161485  0.002388  5.451843  0.005
P  P4  1  0.94109482  0.65604893  0.35966302  1  3.244963  0.001276  1.350757  -0.001084  4.918173  0.003  1.195085  0.000288  5.430338  0.004  1.245045  -0.000587  5.395417  0.003  3.2801  0.003076  0.319844  1.16092  0.002391  5.451922  0.005
P  P5  1  0.34391364  0.05889000  0.14035461  1  3.246719  0.001266  1.351681  -0.001095  4.91838  0.003  1.196095  0.000293  5.430426  0.004  1.245249  -0.001295  5.39886  0.003  3.279953  0.003069  0.320074  1.161809  0.002386  5.451832  0.005
P  P6  1  0.99670223  0.64849505  0.65917747  1  3.260289  0.001383  1.363831  -0.000926  4.904549  0.003  1.211319  0.000541  5.414012  0.004  1.260491  -0.000936  5.380427  0.003  3.287679  0.003228  0.325768  1.177892  0.002603  5.434315  0.005
P  P7  1  0.35148208  0.00333231  0.84081133  1  3.260713  0.001389  1.36428  -0.000925  4.90446  0.003  1.211956  0.000538  5.413667  0.004  1.260555  -0.000582  5.383225  0.004  3.28822  0.003226  0.325828  1.178017  0.002601  5.434347  0.005
P  P8  1  0.00329498  0.35149761  0.34082221  1  3.260239  0.001397  1.364254  -0.00091  4.904883  0.003  1.211515  0.000544  5.414006  0.004  1.260117  -0.000598  5.383594  0.004  3.287942  0.003226  0.325809  1.178059  0.002602  5.434242  0.005
P  P9  1  0.64852845  0.99670402  0.15919080  1  3.260197  0.001379  1.364821  -0.000937  4.903984  0.003  1.212434  0.000534  5.412758  0.004  1.261721  -0.000903  5.379043  0.003  3.288609  0.003224  0.326012  1.178469  0.0026  5.433496  0.005
H  H10  1  0.82590550  0.44152007  0.72173378  1  0.617299  6.1e-05  0.383277  3.2e-05  0.823196  0.0  0.367695  0.000155  0.877067  0.0  0.375054  5.6e-05  0.869173  0.0  0.608329  0.000321  0.331836  0.361628  0.000258  0.883825  0.0
H  H11  1  0.55849387  0.17406295  0.77825665  1  0.61781  5.5e-05  0.383336  2.7e-05  0.823222  0.0  0.367679  0.000147  0.877192  0.0  0.376467  -7.6e-05  0.86798  0.0  0.608732  0.000321  0.331913  0.361634  0.000259  0.883938  0.0
H  H12  1  0.17409619  0.55844810  0.27824918  1  0.617216  5.7e-05  0.383165  2.9e-05  0.823257  0.0  0.367623  0.000152  0.877106  0.0  0.376433  -7.5e-05  0.867866  0.0  0.608526  0.000321  0.331772  0.361532  0.000259  0.883891  0.0
H  H13  1  0.44151743  0.82595847  0.22174374  1  0.617799  5.8e-05  0.38326  2.9e-05  0.823309  0.0  0.367576  0.00015  0.877337  0.0  0.37489  5.6e-05  0.869503  0.0  0.608949  0.000321  0.331904  0.361547  0.000259  0.884069  0.0
H  H14  1  0.39322830  0.51314187  0.53747916  1  0.646176  0.000292  0.436499  -2e-05  0.808164  0.0  0.414635  0.0001  0.872739  0.0  0.425437  0.000159  0.859078  0.001  0.63486  0.000582  0.3231  0.40788  0.00017  0.880659  0.0
H  H15  1  0.48689296  0.60698333  0.96253506  1  0.646154  0.000227  0.436143  -5.1e-05  0.809177  0.0  0.413535  -5e-06  0.875174  0.0  0.421813  -0.000218  0.866683  0.0  0.635295  0.000582  0.32312  0.407897  0.00017  0.880623  0.0
H  H16  1  0.60675861  0.48683908  0.46252369  1  0.646279  0.000286  0.436419  -2.5e-05  0.808258  0.0  0.414589  9.6e-05  0.872804  0.0  0.422666  -0.00014  0.864598  0.0  0.635054  0.000581  0.323143  0.407868  0.000169  0.880645  0.0
H  H17  1  0.51310904  0.39303915  0.03746442  1  0.646  0.00023  0.436135  -4.8e-05  0.809172  0.0  0.413477  -1e-06  0.875208  0.0  0.424416  8.3e-05  0.861346  0.001  0.635013  0.000582  0.323074  0.407806  0.00017  0.880733  0.0
H  H18  1  0.41424047  0.67818021  0.54673849  1  0.619215  0.000359  0.424948  -3.3e-05  0.815637  0.0  0.413003  6e-05  0.864937  0.001  0.420138  -1.1e-05  0.857132  0.001  0.611916  0.000572  0.331939  0.407594  0.000114  0.870541  0.001
H  H19  1  0.32179207  0.58593301  0.95327963  1  0.619641  0.00035  0.425264  -4.3e-05  0.815463  0.0  0.413266  4e-05  0.864726  0.001  0.421274  0.0  0.857246  0.0  0.611257  0.000575  0.331957  0.407591  0.000115  0.870817  0.001
H  H20  1  0.58577150  0.32179968  0.45326512  1  0.618883  0.000355  0.424819  -3.2e-05  0.815651  0.0  0.412909  6e-05  0.864901  0.001  0.420834  2.3e-05  0.857454  0.0  0.611844  0.000572  0.331939  0.407484  0.000114  0.870491  0.001
H  H21  1  0.67820851  0.41409373  0.04672895  1  0.61891  0.000354  0.425175  -4.4e-05  0.815437  0.0  0.413177  3.9e-05  0.864703  0.001  0.420375  -2.7e-05  0.856868  0.001  0.611077  0.000575  0.331918  0.407524  0.000115  0.870791  0.001
H  H22  1  0.82581465  0.14385596  0.62029766  1  0.661178  -0.00012  0.441144  -0.000354  0.852324  0.0  0.414188  -0.000209  0.908083  0.0  0.424054  -0.000281  0.893224  0.0  0.647781  6.8e-05  0.300265  0.406968  -0.000135  0.918693  0.0
H  H23  1  0.85623428  0.17417264  0.87965656  1  0.661734  -0.000108  0.44081  -0.000337  0.852765  0.0  0.414086  -0.000186  0.908189  0.0  0.42537  -0.000182  0.891857  0.0  0.64893  6.8e-05  0.300138  0.406744  -0.000135  0.918984  0.0
H  H24  1  0.17418255  0.85613671  0.37970202  1  0.661143  -0.000118  0.441197  -0.000351  0.852267  0.0  0.414207  -0.000208  0.908051  0.0  0.425475  -0.000194  0.891731  0.0  0.647635  6.8e-05  0.300259  0.406963  -0.000135  0.918685  0.0
H  H25  1  0.14378447  0.82582322  0.12034905  1  0.661568  -0.000108  0.440751  -0.000339  0.852847  0.0  0.414004  -0.000187  0.90828  0.0  0.423867  -0.000274  0.893434  0.0  0.648739  6.8e-05  0.300127  0.406681  -0.000135  0.919053  0.0
H  H26  1  0.71058999  0.07623741  0.68342551  1  0.64899  3e-06  0.423884  -5e-06  0.879277  0.0  0.392305  6e-06  0.944028  0.0  0.403252  8e-06  0.927878  0.0  0.638033  2.6e-05  0.2947  0.384904  1.6e-05  0.954938  0.0
H  H27  1  0.92380508  0.28934452  0.81649852  1  0.649555  7e-06  0.423259  -2e-06  0.880155  0.0  0.391614  1.3e-05  0.945084  0.0  0.401885  -8e-06  0.929936  0.0  0.637639  2.6e-05  0.294612  0.384546  1.6e-05  0.95542  0.0
H  H28  1  0.28941191  0.92376484  0.31657591  1  0.648967  3e-06  0.423926  -5e-06  0.879251  0.0  0.392322  6e-06  0.944009  0.0  0.402607  -1e-05  0.928844  0.0  0.63794  2.6e-05  0.294708  0.38493  1.6e-05  0.954906  0.0
H  H29  1  0.07620076  0.71063643  0.18349656  1  0.649408  7e-06  0.423281  -1e-06  0.880178  0.0  0.391656  1.3e-05  0.945021  0.0  0.402584  9e-06  0.928891  0.0  0.637448  2.6e-05  0.294628  0.384577  1.6e-05  0.955372  0.0
H  H30  1  0.12457336  0.90405213  0.91662689  1  0.659161  7e-05  0.442454  -9.1e-05  0.845945  0.0  0.414651  -0.000122  0.903178  0.0  0.425028  0.00016  0.887283  0.0  0.645787  0.000153  0.309141  0.40728  -7.7e-05  0.914139  0.0
H  H31  1  0.09601214  0.87536060  0.58334669  1  0.658393  3.8e-05  0.443029  -0.000119  0.845099  0.0  0.415017  -0.000169  0.902676  0.0  0.426017  -0.000322  0.886618  0.0  0.645035  0.000153  0.309222  0.407596  -7.7e-05  0.913741  0.0
H  H32  1  0.87542385  0.09594053  0.08337408  1  0.659174  6.4e-05  0.442554  -9.7e-05  0.845829  0.0  0.414695  -0.000128  0.903123  0.0  0.425718  -0.000311  0.887039  0.0  0.64581  0.000152  0.309177  0.407314  -7.7e-05  0.914089  0.0
H  H33  1  0.90398071  0.12462461  0.41665198  1  0.658467  4.6e-05  0.442866  -0.000111  0.845331  0.0  0.414881  -0.000163  0.902807  0.0  0.425259  0.000139  0.886907  0.0  0.645103  0.000152  0.309178  0.407478  -7.7e-05  0.913855  0.0
H  H34  1  0.95781064  0.88703806  0.92773270  1  0.633933  -7e-06  0.44859  -9e-06  0.798637  0.0  0.432118  -4e-05  0.848787  0.0  0.440669  5e-05  0.836145  0.0  0.613291  -1.2e-05  0.334989  0.426059  -2.3e-05  0.856822  0.0
H  H35  1  0.11299670  0.04204421  0.57213454  1  0.635689  -5e-06  0.448674  -1.2e-05  0.797936  0.0  0.432242  -7.1e-05  0.848434  0.0  0.440793  -7.9e-05  0.835941  0.0  0.623766  -1.2e-05  0.334857  0.425904  -2.3e-05  0.856467  0.0
H  H36  1  0.04217696  0.11290135  0.07223798  1  0.633899  -8e-06  0.448655  -1e-05  0.798439  0.0  0.432112  -4.2e-05  0.848762  0.0  0.44075  -4.2e-05  0.836139  0.0  0.613765  -1.2e-05  0.335063  0.426051  -2.3e-05  0.856631  0.0
H  H37  1  0.88695992  0.95793142  0.42783502  1  0.634938  -2e-06  0.44874  -1e-05  0.798337  0.0  0.432258  -6.7e-05  0.848472  0.0  0.440922  9.7e-05  0.835645  0.0  0.623313  -1.2e-05  0.334962  0.425918  -2.3e-05  0.856774  0.0
H  H38  1  0.17016884  0.43647315  0.82042497  1  -0.019792  0.000153  0.126289  5.9e-05  0.925844  0.0  0.148049  8.4e-05  0.983088  0.0  0.150773  3.6e-05  0.981198  0.0  0.058001  0.000298  0.103251  0.146367  0.000119  0.983977  0.0
H  H39  1  0.56351281  0.82990421  0.67957882  1  -0.020422  0.00016  0.126191  6.3e-05  0.925897  0.0  0.147869  9.2e-05  0.983232  0.0  0.149234  1.2e-05  0.983158  0.0  0.05709  0.000298  0.103264  0.1463  0.000119  0.98404  0.0
H  H40  1  0.82982156  0.56350993  0.17957033  1  -0.019733  0.000152  0.126152  5.8e-05  0.925676  0.0  0.147851  8.3e-05  0.983074  0.0  0.149179  2e-06  0.983027  0.0  0.05795  0.000298  0.103146  0.146192  0.000119  0.983936  0.0
H  H41  1  0.43647278  0.17010124  0.32043054  1  -0.020199  0.000162  0.12616  6.4e-05  0.925798  0.0  0.147882  9.3e-05  0.983107  0.0  0.150606  4.7e-05  0.981217  0.0  0.057654  0.000298  0.103233  0.146264  0.000119  0.983977  0.0
H  H42  1  0.14340158  0.62035411  0.82624156  1  -0.018903  1.9e-05  0.127485  -3.1e-05  0.933301  0.0  0.146229  6e-06  0.995744  0.0  0.147767  -6.8e-05  0.995157  0.0  0.071773  0.000165  0.099313  0.144256  2.4e-05  0.996913  0.0
H  H43  1  0.37956787  0.85665535  0.67376228  1  -0.0193  1.9e-05  0.127321  -3.1e-05  0.933179  0.0  0.146044  6e-06  0.995711  0.0  0.14926  3e-06  0.993854  0.0  0.071138  0.000165  0.099305  0.144252  2.4e-05  0.996683  0.0
H  H44  1  0.85658323  0.37962683  0.17375672  1  -0.019051  1.9e-05  0.127351  -3e-05  0.933399  0.0  0.146219  7e-06  0.995741  0.0  0.149384  3e-06  0.993942  0.0  0.071001  0.000165  0.099302  0.14422  2.4e-05  0.996931  0.0
H  H45  1  0.62042589  0.14336820  0.32624920  1  -0.019349  1.8e-05  0.127334  -3.2e-05  0.933287  0.0  0.146042  6e-06  0.995862  0.0  0.147646  -6.5e-05  0.995184  0.0  0.072036  0.000165  0.099298  0.144276  2.4e-05  0.99681  0.0
H  H46  1  0.25829396  0.55945770  0.75062928  1  -0.057228  7.8e-05  0.115967  1.5e-05  0.94209  0.0  0.137913  0.000102  1.002327  0.0  0.13918  -5e-06  1.00236  0.0  0.069777  0.000293  0.09879  0.137095  0.000146  1.002321  0.0
H  H47  1  0.44048888  0.74182852  0.74939348  1  -0.05606  7.9e-05  0.11569  1.7e-05  0.942194  0.0  0.137541  0.000102  1.002596  0.0  0.137988  5.4e-05  1.003482  0.0  0.071312  0.000293  0.098701  0.136827  0.000146  1.002512  0.0
H  H48  1  0.74170956  0.44053497  0.24937510  1  -0.057295  8.1e-05  0.115984  1.7e-05  0.942068  0.0  0.137942  0.000103  1.002322  0.0  0.138404  5.3e-05  1.003181  0.0  0.069602  0.000293  0.09884  0.137136  0.000146  1.002308  0.0
H  H49  1  0.55949825  0.25818650  0.25062009  1  -0.056193  7.7e-05  0.115773  1.6e-05  0.942176  0.0  0.13759  0.000101  1.00261  0.0  0.138856  -4e-06  1.002664  0.0  0.07086  0.000293  0.098751  0.136865  0.000146  1.002538  0.0
Ru  Ru50  1  0.12143001  0.54193351  0.49749917  1  1.320122  1.385082  0.988205  1.447026  3.190796  1.361  0.929241  1.417045  3.761355  1.336  0.977014  1.341531  3.710343  1.277  1.269439  1.331963  0.780374  0.889114  1.401912  3.800271  1.312
Ru  Ru51  1  0.45803951  0.87862901  0.00249542  1  1.317649  1.389247  0.988264  1.451731  3.191273  1.366  0.929468  1.420702  3.761581  1.339  1.010653  1.543293  3.675099  1.46  1.269569  1.332025  0.780435  0.889203  1.402007  3.800627  1.312
Ru  Ru52  1  0.87856877  0.45806235  0.50249745  1  1.318503  1.389296  0.988888  1.451892  3.190136  1.366  0.93015  1.420362  3.76041  1.339  1.010957  1.541618  3.674322  1.458  1.272783  1.332053  0.780401  0.889198  1.401899  3.800164  1.312
Ru  Ru53  1  0.54196926  0.12140945  0.99750865  1  1.319715  1.385958  0.987206  1.447986  3.191783  1.362  0.928297  1.417485  3.762388  1.336  0.97586  1.341011  3.711687  1.276  1.273048  1.331961  0.78037  0.888958  1.401823  3.800684  1.312
C  C54  1  0.03431532  0.49271669  0.71695279  1  -0.378312  -0.001288  -0.181753  -0.001823  3.667057  -0.002  -0.142707  -0.001137  3.92164  -0.001  -0.150323  -0.000178  3.934542  0.0  -0.406234  4.5e-05  0.05218  -0.137555  -0.000905  3.91304  -0.001
C  C55  1  0.50727339  0.96572385  0.78303785  1  -0.379284  -0.001318  -0.182644  -0.001859  3.667203  -0.002  -0.143143  -0.001189  3.920841  -0.001  -0.151427  -0.000519  3.935634  0.0  -0.407238  4.7e-05  0.052203  -0.137918  -0.000904  3.912704  -0.001
C  C56  1  0.96568577  0.50726746  0.28303903  1  -0.377003  -0.001299  -0.182744  -0.001839  3.66823  -0.002  -0.143186  -0.001145  3.922327  -0.001  -0.151466  -0.000569  3.937154  0.0  -0.406181  4.5e-05  0.05221  -0.137848  -0.000905  3.913381  -0.001
C  C57  1  0.49272651  0.03429863  0.21696865  1  -0.379342  -0.001308  -0.183116  -0.001847  3.668168  -0.002  -0.143589  -0.001181  3.921973  -0.001  -0.151504  -0.000157  3.935281  0.0  -0.406614  4.7e-05  0.052115  -0.138311  -0.000903  3.913738  -0.001
C  C58  1  0.15955618  0.52978958  0.78330609  1  0.218204  0.000781  -0.299491  0.000585  3.696464  0.001  -0.387846  0.00079  3.942745  0.001  -0.388027  0.000373  3.950321  0.0  -0.098699  0.001226  -0.234585  -0.386654  0.000907  3.936832  0.001
C  C59  1  0.47016965  0.84051883  0.71669306  1  0.218338  0.00077  -0.298832  0.00058  3.69626  0.001  -0.387271  0.000791  3.942561  0.001  -0.389933  0.000232  3.954309  0.0  -0.097768  0.001226  -0.234406  -0.386112  0.000908  3.936365  0.001
C  C60  1  0.84043548  0.47018817  0.21669358  1  0.218155  0.000767  -0.298998  0.000576  3.696469  0.001  -0.38756  0.000785  3.942762  0.001  -0.390207  0.000229  3.954528  0.0  -0.097711  0.001226  -0.234488  -0.386372  0.000907  3.936735  0.001
C  C61  1  0.52982694  0.15949620  0.28331438  1  0.218188  0.000779  -0.298741  0.000586  3.696591  0.001  -0.387214  0.000794  3.942978  0.001  -0.387311  0.000378  3.950607  0.0  -0.099072  0.001226  -0.234399  -0.386087  0.000908  3.936847  0.001
O  O62  1  0.17915001  0.39878896  0.58057850  1  -1.350476  0.023594  -0.733879  0.012373  2.041955  0.015  -0.672487  0.019339  2.313628  0.021  -0.71515  0.004483  2.31153  0.006  -1.341243  0.037165  -0.369599  -0.652267  0.022405  2.323932  0.023
O  O63  1  0.60123751  0.82094030  0.91941233  1  -1.350097  0.02448  -0.734171  0.013006  2.042062  0.016  -0.672906  0.019821  2.314028  0.022  -0.690831  0.025515  2.281093  0.029  -1.341833  0.037152  -0.369727  -0.652618  0.022397  2.324225  0.023
O  O64  1  0.82085265  0.60119838  0.41941347  1  -1.349783  0.024389  -0.73317  0.012917  2.041241  0.016  -0.672041  0.019699  2.313166  0.021  -0.689989  0.025395  2.280274  0.029  -1.34115  0.037173  -0.369565  -0.652175  0.02241  2.323947  0.023
O  O65  1  0.39878126  0.17909496  0.08060096  1  -1.350701  0.023947  -0.734605  0.012631  2.042234  0.015  -0.673269  0.019487  2.314231  0.021  -0.715956  0.004548  2.312201  0.006  -1.341284  0.037136  -0.369808  -0.652667  0.022385  2.324022  0.023
O  O66  1  0.91288140  0.30556518  0.58514224  1  -1.357807  0.030749  -0.770234  0.01757  2.117414  0.022  -0.702636  0.020842  2.390675  0.022  -0.724889  0.023094  2.362296  0.025  -1.349807  0.037146  -0.367367  -0.681866  0.023084  2.400496  0.023
O  O67  1  0.69451471  0.08710442  0.91486048  1  -1.359012  0.030215  -0.770731  0.017203  2.117398  0.021  -0.703269  0.020441  2.390675  0.021  -0.74495  0.00763  2.385541  0.009  -1.350063  0.037152  -0.367406  -0.681945  0.02308  2.400076  0.023
O  O68  1  0.08711933  0.69442323  0.41485099  1  -1.358329  0.030255  -0.770653  0.017242  2.117831  0.021  -0.70288  0.020566  2.391083  0.022  -0.744591  0.007631  2.385824  0.009  -1.350062  0.037147  -0.367346  -0.681836  0.023083  2.400559  0.023
O  O69  1  0.30548567  0.91292764  0.08514312  1  -1.358647  0.03054  -0.770507  0.017423  2.117016  0.021  -0.70311  0.020692  2.390342  0.022  -0.7253  0.023028  2.361842  0.025  -1.350066  0.037164  -0.36741  -0.682046  0.023081  2.400069  0.023
O  O70  1  0.08956463  0.22108485  0.69118437  1  -1.462158  -0.002776  -0.8624  -0.003499  2.009647  -0.003  -0.796254  -0.002056  2.269649  -0.002  -0.820679  -0.001251  2.250354  -0.001  -1.449047  -0.001081  -0.435397  -0.778726  -0.001785  2.281602  -0.001
O  O71  1  0.77892826  0.91047181  0.80876189  1  -1.46265  -0.002794  -0.863381  -0.003522  2.010092  -0.003  -0.797402  -0.001988  2.270096  -0.002  -0.824001  -0.001511  2.252004  -0.001  -1.449142  -0.001079  -0.435435  -0.778793  -0.001784  2.2821  -0.001
O  O72  1  0.91043678  0.77890781  0.30880966  1  -1.461924  -0.002781  -0.864041  -0.003507  2.008539  -0.003  -0.796324  -0.002055  2.269457  -0.002  -0.822722  -0.001151  2.251327  -0.001  -1.448805  -0.001082  -0.43544  -0.778742  -0.001787  2.281356  -0.001
O  O73  1  0.22107112  0.08954748  0.19124449  1  -1.462657  -0.002788  -0.865072  -0.003513  2.009322  -0.003  -0.797558  -0.001984  2.27021  -0.002  -0.821983  -0.001291  2.250799  -0.001  -1.448905  -0.001081  -0.435516  -0.778949  -0.001785  2.282172  -0.001
O  O74  1  0.12121790  0.68961486  0.59808236  1  -1.358368  0.024105  -0.764459  0.013103  2.092993  0.016  -0.698221  0.018234  2.365618  0.019  -0.73924  0.007041  2.362206  0.008  -1.346075  0.034012  -0.362015  -0.676826  0.020794  2.373654  0.021
O  O75  1  0.31031423  0.87885798  0.90190879  1  -1.358116  0.024568  -0.764484  0.013414  2.092555  0.016  -0.698637  0.018493  2.36529  0.019  -0.722793  0.020614  2.340348  0.023  -1.34618  0.034047  -0.362166  -0.676853  0.020817  2.373247  0.021
O  O76  1  0.87878021  0.31037035  0.40191840  1  -1.357857  0.024588  -0.764021  0.013421  2.092293  0.016  -0.69803  0.01847  2.365188  0.019  -0.722311  0.02055  2.340369  0.023  -1.346173  0.034012  -0.362045  -0.676873  0.020792  2.373556  0.021
O  O77  1  0.68969071  0.12117622  0.09810081  1  -1.358502  0.024191  -0.764889  0.013173  2.092616  0.016  -0.698963  0.018256  2.365377  0.019  -0.739879  0.007117  2.361966  0.008  -1.346215  0.034021  -0.362293  -0.676964  0.020796  2.373054  0.021
O  O78  1  0.85466609  0.59348476  0.60444073  1  -1.33617  0.032503  -0.724385  0.018212  2.011635  0.023  -0.668734  0.022606  2.28288  0.025  -0.687489  0.027477  2.252213  0.032  -1.32821  0.041411  -0.368427  -0.648451  0.025218  2.292641  0.027
O  O79  1  0.40649884  0.14531071  0.89556574  1  -1.336677  0.03191  -0.725086  0.01784  2.012138  0.022  -0.669233  0.022312  2.283163  0.025  -0.711392  0.007265  2.28057  0.009  -1.328268  0.041387  -0.368429  -0.64845  0.025204  2.292581  0.027
O  O80  1  0.14533182  0.40650578  0.39555891  1  -1.336484  0.031771  -0.724979  0.017738  2.012042  0.022  -0.669087  0.022247  2.283249  0.025  -0.711215  0.007208  2.280484  0.009  -1.328595  0.041411  -0.368461  -0.648467  0.025215  2.292589  0.027
O  O81  1  0.59350559  0.85472029  0.10443924  1  -1.336239  0.032416  -0.724753  0.018175  2.011045  0.023  -0.669022  0.022648  2.282141  0.025  -0.68777  0.027466  2.251425  0.032  -1.32856  0.041411  -0.368443  -0.648549  0.025218  2.29195  0.027
O  O82  1  0.98432366  0.76750085  0.72421800  1  -1.45548  -0.002841  -0.862443  -0.003606  2.009055  -0.003  -0.802999  -0.002126  2.275321  -0.002  -0.82827  -0.001659  2.25644  -0.001  -1.441288  -0.001209  -0.44939  -0.785785  -0.001946  2.287767  -0.002
O  O83  1  0.23249963  0.01572225  0.77574745  1  -1.455884  -0.002848  -0.862574  -0.003616  2.009583  -0.003  -0.80379  -0.002117  2.276335  -0.002  -0.827575  -0.001772  2.255948  -0.001  -1.441717  -0.001206  -0.449572  -0.785706  -0.001943  2.288593  -0.002
O  O84  1  0.01567445  0.23248436  0.27578340  1  -1.455102  -0.002835  -0.864258  -0.003601  2.007974  -0.003  -0.803032  -0.002128  2.275326  -0.002  -0.826702  -0.001729  2.25496  -0.001  -1.441287  -0.001207  -0.449436  -0.785852  -0.001945  2.287814  -0.002
O  O85  1  0.76750749  0.98429278  0.22425904  1  -1.455366  -0.002853  -0.864538  -0.003622  2.008465  -0.003  -0.80389  -0.002117  2.276141  -0.002  -0.829225  -0.001709  2.25713  -0.001  -1.441823  -0.001206  -0.449566  -0.785785  -0.001943  2.288382  -0.002
O  O86  1  0.90766186  0.44426345  0.76305602  1  -1.105678  0.002198  -0.491825  0.001388  2.052092  0.002  -0.437371  0.001873  2.238619  0.002  -0.452898  0.000738  2.2305  0.001  -1.082976  0.003635  -0.358321  -0.427447  0.002239  2.245848  0.003
O  O87  1  0.55571496  0.09234198  0.73692734  1  -1.106382  0.002219  -0.491569  0.001404  2.051965  0.002  -0.437229  0.001877  2.238403  0.002  -0.450867  0.000703  2.227621  0.001  -1.083201  0.003634  -0.358285  -0.42735  0.002239  2.245838  0.003
O  O88  1  0.09233615  0.55570152  0.23692995  1  -1.105665  0.002213  -0.491228  0.001398  2.052056  0.002  -0.437083  0.001875  2.238563  0.002  -0.450783  0.000701  2.227821  0.001  -1.083175  0.003635  -0.358231  -0.427233  0.002239  2.245778  0.003
O  O89  1  0.44428408  0.90767518  0.26307703  1  -1.106394  0.002209  -0.491365  0.001397  2.05211  0.002  -0.437086  0.001874  2.238708  0.002  -0.45252  0.000738  2.230655  0.001  -1.083563  0.003635  -0.358276  -0.427192  0.002239  2.246088  0.003
O  O90  1  0.38090010  0.59715999  0.50585285  1  -1.211478  0.002189  -0.746673  -0.000956  1.803393  -0.004  -0.705803  0.002117  1.968728  -0.002  -0.720678  0.001055  1.939624  -0.004  -1.188245  0.006216  -0.551574  -0.692832  0.002431  1.985572  -0.002
O  O91  1  0.40284729  0.61930831  0.99415526  1  -1.210215  0.001739  -0.745604  -0.001407  1.805376  -0.004  -0.704162  0.001783  1.971864  -0.002  -0.728204  0.001083  1.953516  -0.001  -1.187794  0.006228  -0.551533  -0.692736  0.002444  1.986247  -0.002
O  O92  1  0.61911483  0.40282522  0.49414587  1  -1.211292  0.002175  -0.746656  -0.000925  1.80362  -0.003  -0.705869  0.002122  1.96885  -0.002  -0.729671  0.001516  1.950659  -0.001  -1.188301  0.006213  -0.55162  -0.692704  0.00243  1.985533  -0.002
O  O93  1  0.59716043  0.38073015  0.00584685  1  -1.209426  0.001754  -0.745354  -0.001429  1.805187  -0.004  -0.703773  0.001779  1.971784  -0.002  -0.718754  0.000669  1.942523  -0.004  -1.187425  0.006229  -0.551462  -0.692528  0.002443  1.98632  -0.002
O  O94  1  0.79843845  0.06095393  0.65525752  1  -1.302927  -0.000242  -0.912877  -0.000325  1.836119  0.0  -0.875133  -3.3e-05  2.006836  0.0  -0.89231  -0.000329  1.974704  0.0  -1.28218  0.000303  -0.643112  -0.862382  0.00011  2.029068  0.0
O  O95  1  0.93912226  0.20153082  0.84466738  1  -1.304136  -0.000227  -0.912363  -0.000313  1.837373  0.0  -0.874844  8e-06  2.007715  0.0  -0.892541  7e-05  1.974228  0.0  -1.28255  0.000302  -0.642911  -0.861757  0.000109  2.029431  0.0
O  O96  1  0.20156015  0.93904087  0.34474292  1  -1.302895  -0.000233  -0.914515  -0.000315  1.834989  0.0  -0.875157  -2.9e-05  2.006824  0.0  -0.892847  5.8e-05  1.973267  0.0  -1.282005  0.000302  -0.643126  -0.862403  0.000109  2.029075  0.0
O  O97  1  0.06089808  0.79846184  0.15533817  1  -1.303782  -0.000233  -0.913948  -0.00032  1.83649  0.0  -0.874839  4e-06  2.00794  0.0  -0.89202  -0.000324  1.975909  0.0  -1.282333  0.000303  -0.642953  -0.861765  0.000109  2.029646  0.0
O  O98  1  0.03716937  0.94372463  0.90215092  1  -1.270843  0.000339  -0.87428  0.000161  1.841478  0.0  -0.83687  0.000132  2.017715  0.0  -0.851122  0.000645  1.985887  0.001  -1.238018  0.0005  -0.610824  -0.825195  0.000211  2.038863  0.0
O  O99  1  0.05635304  0.96276428  0.59779734  1  -1.271706  0.000342  -0.874735  0.000158  1.840533  0.0  -0.837363  8e-05  2.017467  0.0  -0.855277  -0.0001  1.985031  0.0  -1.247317  0.000499  -0.610728  -0.825333  0.000211  2.037992  0.0
O  O100  1  0.96282332  0.05625951  0.09785028  1  -1.270857  0.000324  -0.87577  0.000152  1.840351  0.0  -0.836935  0.000121  2.017665  0.0  -0.854944  -0.00015  1.985249  0.0  -1.238535  0.000499  -0.610941  -0.825212  0.000211  2.038656  0.0
O  O101  1  0.94364788  0.03721880  0.40220665  1  -1.271022  0.000363  -0.875943  0.00017  1.840158  0.0  -0.837179  9.1e-05  2.017779  0.0  -0.851437  0.00063  1.985674  0.001  -1.247114  0.000498  -0.610808  -0.825214  0.000211  2.038555  0.0
