# generated using pymatgen
data_Cu2PH9C2SO9
_symmetry_space_group_name_H-M   'P 1'
_cell_length_a   7.13528190
_cell_length_b   10.30579268
_cell_length_c   15.20134945
_cell_angle_alpha   102.16422724
_cell_angle_beta   90.09539806
_cell_angle_gamma   89.84871632
_symmetry_Int_Tables_number   1
_chemical_formula_structural   Cu2PH9C2SO9
_chemical_formula_sum   'Cu8 P4 H36 C8 S4 O36'
_cell_volume   1092.72485297
_cell_formula_units_Z   4
loop_
 _symmetry_equiv_pos_site_id
 _symmetry_equiv_pos_as_xyz
  1  'x, y, z'
loop_
 _atom_site_type_symbol
 _atom_site_label
 _atom_site_symmetry_multiplicity
 _atom_site_fract_x
 _atom_site_fract_y
 _atom_site_fract_z
 _atom_site_occupancy
 _atom_site_pbe_bader_charge
 _atom_site_pbe_bader_spin_density
 _atom_site_pbe_cm5_charge
 _atom_site_pbe_ddec_charge
 _atom_site_pbe_ddec_spin_density
 _atom_site_pbe_ddec_sum_bond_order
 _atom_site_pbe_magmom
Cu  Cu0  1  0.31865262  0.15913596  0.40384960  1  1.150315  0.616205  0.708105  1.030652  0.748269  2.03542  0.615
Cu  Cu1  1  0.81911885  0.34018644  0.09651225  1  1.151168  0.613398  0.707185  1.029697  0.745627  2.035968  0.612
Cu  Cu2  1  0.67908213  0.84109601  0.59603909  1  1.151268  -0.61093  0.706409  1.028442  -0.747341  2.035328  -0.61
Cu  Cu3  1  0.18086469  0.65974274  0.90350507  1  1.149883  0.611791  0.706646  1.029124  0.743726  2.035685  0.611
Cu  Cu4  1  0.56971235  0.24925961  0.25196865  1  1.15257  -0.509841  0.719405  1.057842  -0.628802  2.138196  -0.509
Cu  Cu5  1  0.06942199  0.24961753  0.24847916  1  1.14442  0.572265  0.711233  1.043338  0.70265  2.129798  0.571
Cu  Cu6  1  0.43082721  0.75109430  0.74751409  1  1.148354  -0.536613  0.716401  1.052156  -0.662567  2.13366  -0.536
Cu  Cu7  1  0.93087547  0.75014536  0.75213772  1  1.149706  0.535631  0.715719  1.050858  0.656858  2.135154  0.535
P  P8  1  0.31376275  0.43756111  0.37863709  1  3.287604  0.002207  0.312491  1.322435  0.004282  5.303821  -0.001
P  P9  1  0.81418845  0.06150848  0.12142610  1  3.290764  0.002867  0.311678  1.323066  0.004938  5.306705  0.0
P  P10  1  0.68669937  0.56259233  0.62120867  1  3.287698  -0.00272  0.313376  1.324391  -0.004554  5.301459  0.0
P  P11  1  0.18611319  0.93841352  0.87856126  1  3.287746  0.002673  0.31266  1.325664  0.004485  5.302151  0.0
H  H12  1  0.45729771  0.62712303  0.46898948  1  0.151884  0.0017  0.107857  0.158249  0.000742  1.027067  0.001
H  H13  1  0.95806419  0.87187008  0.03109409  1  0.147189  -0.001829  0.108041  0.157978  -0.000863  1.026975  -0.001
H  H14  1  0.54262701  0.37290330  0.53115967  1  0.151283  0.001774  0.108255  0.159049  0.000807  1.026523  0.001
H  H15  1  0.04139452  0.12811482  0.96860350  1  0.147837  -0.001841  0.108072  0.158438  -0.000869  1.026638  -0.001
H  H16  1  0.30394167  0.66735723  0.38566451  1  0.067192  0.002442  0.10985  0.148737  0.001224  0.969257  0.001
H  H17  1  0.80507135  0.83165367  0.11417084  1  0.065911  0.002367  0.109741  0.148289  0.001095  0.970156  0.001
H  H18  1  0.69612841  0.33284889  0.61444869  1  0.068283  -0.002361  0.109985  0.148882  -0.00111  0.968918  -0.001
H  H19  1  0.19505638  0.16821516  0.88568826  1  0.066319  0.00242  0.109645  0.148546  0.001129  0.9695  0.001
H  H20  1  0.18881021  0.59662350  0.56601125  1  0.104586  0.000462  0.112911  0.146607  0.000351  0.975568  0.0
H  H21  1  0.68950326  0.90288476  0.93376450  1  0.100457  3.6e-05  0.113081  0.146351  3e-06  0.975448  0.0
H  H22  1  0.81065517  0.40292366  0.43381638  1  0.101659  -4.1e-05  0.113087  0.14631  -1.4e-05  0.976187  0.0
H  H23  1  0.30908429  0.09717815  0.06634056  1  0.09623  0.000378  0.113118  0.147016  0.000306  0.975752  0.0
H  H24  1  0.02291397  0.62209196  0.48348562  1  0.116372  0.000354  0.108999  0.138424  0.00016  0.991515  0.0
H  H25  1  0.52364765  0.87774322  0.01603994  1  0.085055  -0.000275  0.108841  0.138318  -0.000176  0.991369  0.0
H  H26  1  0.97691799  0.37768973  0.51624901  1  0.080562  0.000227  0.108604  0.1378  0.00014  0.991887  0.0
H  H27  1  0.47570491  0.12183496  0.98420843  1  0.086538  -0.000283  0.10905  0.13821  -0.000178  0.99194  0.0
H  H28  1  0.32130673  0.08016668  0.23961194  1  0.642979  -0.00065  0.314689  0.419465  0.000119  0.858327  0.0
H  H29  1  0.82030860  0.41865515  0.26076297  1  0.647036  -0.000648  0.314976  0.419926  0.000221  0.858038  0.0
H  H30  1  0.67894740  0.91974968  0.76045083  1  0.643205  0.000636  0.314558  0.419156  -0.000281  0.858548  0.0
H  H31  1  0.18018170  0.58148080  0.73915308  1  0.646712  -0.00061  0.315239  0.420057  0.000259  0.857775  0.0
H  H32  1  0.20125266  0.05576083  0.52717770  1  0.650101  -0.000191  0.300076  0.383765  0.000194  0.957809  0.0
H  H33  1  0.70114490  0.44468731  0.97357753  1  0.650499  -0.000181  0.29896  0.383878  0.000217  0.958423  0.0
H  H34  1  0.79981091  0.94376031  0.47289584  1  0.651021  0.000194  0.299783  0.383882  -0.000205  0.957669  0.0
H  H35  1  0.29981300  0.55613730  0.02680246  1  0.650804  -0.000178  0.299459  0.384276  0.000218  0.957097  0.0
H  H36  1  0.28407569  0.91658973  0.40238372  1  0.648815  -2e-06  0.298666  0.398536  0.000427  0.933894  0.0
H  H37  1  0.78483753  0.58309236  0.09793201  1  0.655503  -3.2e-05  0.298197  0.397527  0.000419  0.935595  0.0
H  H38  1  0.71608028  0.08327299  0.59759024  1  0.649331  2.9e-05  0.298912  0.398426  -0.000428  0.93407  0.0
H  H39  1  0.21541767  0.41707277  0.90220702  1  0.655334  -3.6e-05  0.297886  0.397344  0.000412  0.935943  0.0
H  H40  1  0.21591090  0.20962760  0.56632661  1  0.63933  -0.000211  0.337341  0.427997  0.000157  0.83461  0.0
H  H41  1  0.71248541  0.29053771  0.93477067  1  0.631461  -0.000246  0.336437  0.426886  0.000134  0.83626  0.0
H  H42  1  0.78439244  0.78984164  0.43412926  1  0.636804  0.000266  0.337007  0.427515  -0.000124  0.835632  0.0
H  H43  1  0.28658294  0.71028261  0.06540850  1  0.632013  -0.000251  0.336768  0.427464  0.000139  0.836199  0.0
H  H44  1  0.49349754  0.94922538  0.37865793  1  0.641697  -0.000295  0.312869  0.411312  0.0002  0.887806  0.0
H  H45  1  0.99334735  0.54909811  0.12312698  1  0.642074  0.000118  0.313624  0.411948  0.000626  0.885286  0.0
H  H46  1  0.50585142  0.05212810  0.62069379  1  0.635893  0.000262  0.312487  0.410815  -0.000236  0.888407  0.0
H  H47  1  0.00662038  0.45058578  0.87719365  1  0.639526  0.000128  0.313101  0.411299  0.000638  0.886249  0.0
C  C48  1  0.31785777  0.60887008  0.43807097  1  -0.549542  0.009529  -0.171889  -0.412318  0.00581  3.89221  0.006
C  C49  1  0.81859210  0.89026316  0.06184877  1  -0.551851  0.006921  -0.172246  -0.412051  0.004241  3.893251  0.004
C  C50  1  0.68218017  0.39120069  0.56194840  1  -0.551055  -0.005441  -0.172626  -0.4141  -0.003401  3.892924  -0.003
C  C51  1  0.18104645  0.10966406  0.93803518  1  -0.553187  0.00547  -0.172077  -0.412788  0.003367  3.891863  0.003
C  C52  1  0.16577357  0.64481786  0.50899185  1  -0.163925  -0.001265  -0.148597  -0.283753  -0.000653  3.877499  -0.001
C  C53  1  0.66658928  0.85467752  0.99073901  1  -0.143577  0.00215  -0.148714  -0.283166  0.001408  3.877964  0.002
C  C54  1  0.83396062  0.35494512  0.49090626  1  -0.125351  -0.002176  -0.14872  -0.282962  -0.001452  3.877936  -0.002
C  C55  1  0.33273444  0.14515842  0.00933368  1  -0.138232  0.002288  -0.14867  -0.283725  0.001544  3.878317  0.002
S  S56  1  0.16680957  0.81913601  0.55614549  1  3.106201  -6.1e-05  0.512398  1.256302  7.3e-05  6.055855  0.0
S  S57  1  0.66785012  0.68041902  0.94353915  1  3.125762  8.5e-05  0.51131  1.254399  2.1e-05  6.057599  0.0
S  S58  1  0.83294761  0.18055824  0.44400100  1  3.105204  -0.001097  0.511229  1.254903  -0.000788  6.054264  -0.001
S  S59  1  0.33189488  0.31949968  0.05630138  1  3.12304  3.5e-05  0.511106  1.254332  6.3e-05  6.057729  0.0
O  O60  1  0.50454284  0.41593578  0.32915147  1  -1.377191  -0.068358  -0.4014  -0.752375  -0.041974  2.252984  -0.058
O  O61  1  0.00428268  0.08232833  0.17148234  1  -1.3843  0.07407  -0.402165  -0.756073  0.044575  2.257095  0.063
O  O62  1  0.49627475  0.58395882  0.67092125  1  -1.378276  -0.069875  -0.402138  -0.75367  -0.04222  2.255087  -0.059
O  O63  1  0.99558000  0.91722682  0.82872836  1  -1.379505  0.070204  -0.402046  -0.754472  0.042132  2.254312  0.059
O  O64  1  0.14046045  0.42253410  0.31594610  1  -1.381884  0.077785  -0.405154  -0.760808  0.04685  2.255658  0.066
O  O65  1  0.64025803  0.07707523  0.18385021  1  -1.375007  -0.071177  -0.403557  -0.757497  -0.043727  2.247223  -0.06
O  O66  1  0.86040455  0.57793408  0.68382334  1  -1.378642  0.07428  -0.404947  -0.759897  0.045347  2.251414  0.063
O  O67  1  0.35964343  0.92315194  0.81603990  1  -1.377791  -0.074615  -0.404835  -0.760655  -0.0459  2.250189  -0.064
O  O68  1  0.29555132  0.34872949  0.44964934  1  -1.366498  0.102276  -0.395478  -0.767834  0.061204  2.27556  0.086
O  O69  1  0.79553371  0.15049349  0.05056477  1  -1.365134  0.100478  -0.394925  -0.7675  0.060102  2.278218  0.084
O  O70  1  0.70472313  0.65136666  0.55021227  1  -1.369324  -0.099689  -0.395772  -0.768659  -0.06016  2.275802  -0.084
O  O71  1  0.20497673  0.84945458  0.94944259  1  -1.365472  0.099922  -0.395053  -0.768432  0.059815  2.276984  0.084
O  O72  1  0.01163239  0.84948634  0.62029514  1  -1.327266  -0.000782  -0.347177  -0.674495  -0.000533  2.390405  -0.001
O  O73  1  0.51266114  0.65049936  0.87924061  1  -1.327656  0.001208  -0.347121  -0.674591  0.000781  2.391533  0.001
O  O74  1  0.98793921  0.15031258  0.37963426  1  -1.326723  -0.003527  -0.347966  -0.676922  -0.002502  2.39486  -0.001
O  O75  1  0.48706183  0.34926554  0.12065977  1  -1.326673  0.001649  -0.347136  -0.675672  0.001082  2.392722  0.002
O  O76  1  0.35034255  0.85268964  0.59852491  1  -1.347583  0.001916  -0.351147  -0.686271  0.00148  2.385867  0.0
O  O77  1  0.85142548  0.64639783  0.90135525  1  -1.344674  -0.001038  -0.349733  -0.68482  -0.001009  2.381191  0.001
O  O78  1  0.64932201  0.14658500  0.40188935  1  -1.344342  0.000365  -0.349274  -0.682972  0.000327  2.377761  0.001
O  O79  1  0.14835639  0.35393437  0.09839024  1  -1.344737  -0.001018  -0.349629  -0.683534  -0.001003  2.379554  0.001
O  O80  1  0.13637042  0.88540909  0.47851208  1  -1.340003  0.001281  -0.34784  -0.636703  0.000609  2.226218  0.001
O  O81  1  0.63748927  0.61428763  0.02118968  1  -1.342275  0.001147  -0.347052  -0.635954  0.000478  2.227478  0.001
O  O82  1  0.86441355  0.11461595  0.52170959  1  -1.340914  -0.001361  -0.347465  -0.636245  -0.000677  2.224574  -0.001
O  O83  1  0.36288118  0.38536455  0.97858257  1  -1.341006  0.001226  -0.347405  -0.636321  0.000516  2.226032  0.001
O  O84  1  0.32063608  0.17276097  0.27289234  1  -1.095029  0.103923  -0.552718  -0.854471  0.064849  2.363089  0.093
O  O85  1  0.81815613  0.32616153  0.22729865  1  -1.099562  0.114529  -0.553209  -0.855375  0.071276  2.364618  0.102
O  O86  1  0.68143516  0.82726976  0.72694384  1  -1.093686  -0.114802  -0.551033  -0.852278  -0.071922  2.361438  -0.103
O  O87  1  0.18210460  0.67392914  0.77271738  1  -1.097519  0.114732  -0.55252  -0.854663  0.071086  2.362744  0.103
O  O88  1  0.28873313  0.13290505  0.53609083  1  -1.209093  0.056381  -0.556821  -0.737968  0.035666  2.121437  0.049
O  O89  1  0.78703642  0.36633944  0.96468305  1  -1.202536  0.057572  -0.558308  -0.738559  0.036404  2.119629  0.05
O  O90  1  0.71182936  0.86696155  0.46393326  1  -1.207513  -0.05602  -0.55727  -0.738094  -0.0357  2.121712  -0.049
O  O91  1  0.21309941  0.63393798  0.03544411  1  -1.202995  0.057277  -0.558386  -0.738847  0.036235  2.120134  0.05
O  O92  1  0.36208785  0.96212750  0.36307771  1  -1.198435  0.066317  -0.572104  -0.725329  0.041525  2.09083  0.057
O  O93  1  0.86139981  0.53730540  0.13784314  1  -1.20541  0.066026  -0.571356  -0.72427  0.041277  2.089227  0.057
O  O94  1  0.63672278  0.03820267  0.63666311  1  -1.194757  -0.065109  -0.572859  -0.725496  -0.04109  2.090803  -0.056
O  O95  1  0.13840731  0.46268992  0.86233856  1  -1.203056  0.065808  -0.570984  -0.723692  0.041143  2.089977  0.057
