# generated using pymatgen
data_ZnH3C7NO4
_symmetry_space_group_name_H-M   'P 1'
_cell_length_a   6.56731498
_cell_length_b   8.50457437
_cell_length_c   12.94144099
_cell_angle_alpha   90.00028451
_cell_angle_beta   89.99984548
_cell_angle_gamma   89.99981605
_symmetry_Int_Tables_number   1
_chemical_formula_structural   ZnH3C7NO4
_chemical_formula_sum   'Zn4 H12 C28 N4 O16'
_cell_volume   722.80819249
_cell_formula_units_Z   4
loop_
 _symmetry_equiv_pos_site_id
 _symmetry_equiv_pos_as_xyz
  1  'x, y, z'
loop_
 _atom_site_type_symbol
 _atom_site_label
 _atom_site_symmetry_multiplicity
 _atom_site_fract_x
 _atom_site_fract_y
 _atom_site_fract_z
 _atom_site_occupancy
 _atom_site_hle17_bader_spin_density
 _atom_site_hle17_ddec_charge
 _atom_site_hle17_ddec_spin_density
 _atom_site_hle17_ddec_sum_bond_order
 _atom_site_hle17_magmom
 _atom_site_hse06_10hf_bader_spin_density
 _atom_site_hse06_10hf_ddec_charge
 _atom_site_hse06_10hf_ddec_spin_density
 _atom_site_hse06_10hf_ddec_sum_bond_order
 _atom_site_hse06_10hf_magmom
 _atom_site_hse06_bader_spin_density
 _atom_site_hse06_ddec_charge
 _atom_site_hse06_ddec_spin_density
 _atom_site_hse06_ddec_sum_bond_order
 _atom_site_hse06_magmom
 _atom_site_pbe_bader_spin_density
 _atom_site_pbe_cm5_charge
 _atom_site_pbe_ddec_charge
 _atom_site_pbe_ddec_spin_density
 _atom_site_pbe_ddec_sum_bond_order
 _atom_site_pbe_magmom
Zn  Zn0  1  0.05784069  0.66288719  0.74879015  1  0  1.111363  0  1.771288  0  0  0.935496  0  2.241501  0  0  0.984332  0  2.182027  0  0  0.704741  0.901235  0  2.2823  0
Zn  Zn1  1  0.94216299  0.33710893  0.24879059  1  0  1.111359  0  1.771259  0  0  0.935495  0  2.241477  0  0  0.984333  0  2.182001  0  0  0.704744  0.901228  0  2.282283  0
Zn  Zn2  1  0.44216165  0.16288991  0.74878752  1  0  1.111429  0  1.771146  0  0  0.93556  0  2.241354  0  0  0.984396  0  2.181878  0  0  0.704755  0.901293  0  2.282161  0
Zn  Zn3  1  0.55784051  0.83710974  0.24878703  1  0  1.111392  0  1.771223  0  0  0.935538  0  2.241425  0  0  0.984374  0  2.18195  0  0  0.704767  0.901278  0  2.282232  0
H  H4  1  0.86222767  0.72933436  0.54452110  1  0  0.100077  0  0.917143  0  0  0.108393  0  0.97855  0  0  0.111973  0  0.97497  0  0  0.12699  0.105734  0  0.981186  0
H  H5  1  0.13776948  0.27066727  0.04451703  1  0  0.100081  0  0.917165  0  0  0.108399  0  0.978569  0  0  0.111981  0  0.974992  0  0  0.126999  0.105735  0  0.981207  0
H  H6  1  0.63776406  0.22932726  0.54451194  1  0  0.100108  0  0.917229  0  0  0.108414  0  0.978649  0  0  0.111987  0  0.975072  0  0  0.127029  0.105752  0  0.98128  0
H  H7  1  0.36223004  0.77066968  0.04451305  1  0  0.100071  0  0.917214  0  0  0.108388  0  0.978629  0  0  0.111964  0  0.975052  0  0  0.127012  0.105728  0  0.981265  0
H  H8  1  0.53500329  0.51833033  0.45354348  1  0  0.123864  0  0.943366  0  0  0.132016  0  1.003768  0  0  0.135717  0  1.002801  0  0  0.112708  0.129323  0  1.004691  0
H  H9  1  0.46499018  0.48166851  0.95354652  1  0  0.123853  0  0.943344  0  0  0.132016  0  1.003727  0  0  0.135717  0  1.002763  0  0  0.112688  0.129324  0  1.004656  0
H  H10  1  0.96498522  0.01833182  0.45354237  1  0  0.123942  0  0.943248  0  0  0.132057  0  1.003746  0  0  0.135761  0  1.002775  0  0  0.112728  0.129366  0  1.004669  0
H  H11  1  0.03501129  0.98167055  0.95354532  1  0  0.123879  0  0.943249  0  0  0.132039  0  1.003675  0  0  0.135741  0  1.002706  0  0  0.112709  0.129345  0  1.004596  0
H  H12  1  0.43364468  0.57242792  0.63602641  1  0  0.102952  0  0.958427  0  0  0.105889  0  1.026787  0  0  0.110186  0  1.021982  0  0  0.12117  0.102676  0  1.030345  0
H  H13  1  0.56635046  0.42756735  0.13602766  1  0  0.102988  0  0.958455  0  0  0.105917  0  1.026816  0  0  0.110216  0  1.022008  0  0  0.121159  0.1027  0  1.030374  0
H  H14  1  0.06634645  0.07243628  0.63602430  1  0  0.102937  0  0.958317  0  0  0.105879  0  1.026689  0  0  0.110176  0  1.021883  0  0  0.121139  0.102668  0  1.030239  0
H  H15  1  0.93364413  0.92756840  0.13602668  1  0  0.103028  0  0.958371  0  0  0.105968  0  1.026737  0  0  0.110268  0  1.021926  0  0  0.121186  0.102754  0  1.030296  0
C  C16  1  0.00875270  0.68022412  0.52144767  1  0  0.1356  0  3.65422  0  0  0.092638  0  3.905688  0  0  0.102183  0  3.921311  0  0  0.061072  0.086468  0  3.895205  0
C  C17  1  0.99124609  0.31977852  0.02144645  1  0  0.135524  0  3.654319  0  0  0.09256  0  3.905794  0  0  0.102099  0  3.92142  0  0  0.061022  0.086387  0  3.895311  0
C  C18  1  0.49124163  0.18021966  0.52144266  1  0  0.135436  0  3.654202  0  0  0.092445  0  3.90572  0  0  0.101995  0  3.921335  0  0  0.060936  0.086272  0  3.895239  0
C  C19  1  0.50875411  0.81977827  0.02144373  1  0  0.13555  0  3.654049  0  0  0.092527  0  3.905567  0  0  0.102073  0  3.921183  0  0  0.06096  0.086361  0  3.895089  0
C  C20  1  0.04958860  0.64796927  0.41767012  1  0  -0.132406  0  3.72251  0  0  -0.11432  0  3.959199  0  0  -0.126277  0  3.980973  0  0  -0.009479  -0.106912  0  3.945042  0
C  C21  1  0.95041114  0.35203400  0.91767053  1  0  -0.13209  0  3.722513  0  0  -0.114037  0  3.959195  0  0  -0.125991  0  3.980972  0  0  -0.009353  -0.106623  0  3.945023  0
C  C22  1  0.45040489  0.14796844  0.41766671  1  0  -0.13209  0  3.72255  0  0  -0.114062  0  3.959178  0  0  -0.126021  0  3.980953  0  0  -0.009365  -0.106657  0  3.945023  0
C  C23  1  0.54959638  0.85203013  0.91766544  1  0  -0.132178  0  3.722675  0  0  -0.11417  0  3.959262  0  0  -0.126118  0  3.981045  0  0  -0.00936  -0.106764  0  3.94511  0
C  C24  1  0.24140387  0.58529678  0.39188142  1  0  -0.006003  0  3.69288  0  0  0.002127  0  3.927675  0  0  0.005159  0  3.943987  0  0  0.016328  9.5e-05  0  3.916957  0
C  C25  1  0.75859753  0.41470865  0.89188306  1  0  -0.006194  0  3.693009  0  0  0.001982  0  3.927763  0  0  0.005007  0  3.944074  0  0  0.016256  -5.3e-05  0  3.917041  0
C  C26  1  0.25859306  0.08529290  0.39187827  1  0  -0.006372  0  3.69317  0  0  0.002009  0  3.927799  0  0  0.005041  0  3.944108  0  0  0.016277  -3.1e-05  0  3.917088  0
C  C27  1  0.74140987  0.91470430  0.89187848  1  0  -0.006334  0  3.693294  0  0  0.002103  0  3.927761  0  0  0.005103  0  3.944112  0  0  0.016318  6.9e-05  0  3.917042  0
C  C28  1  0.38390487  0.56420120  0.47107262  1  0  -0.135874  0  3.692781  0  0  -0.156188  0  3.944649  0  0  -0.164452  0  3.964562  0  0  -0.078493  -0.15102  0  3.93161  0
C  C29  1  0.61609307  0.43580013  0.97107298  1  0  -0.13572  0  3.692789  0  0  -0.15606  0  3.944618  0  0  -0.164322  0  3.964532  0  0  -0.078398  -0.150896  0  3.931587  0
C  C30  1  0.11609021  0.06420238  0.47106890  1  0  -0.135768  0  3.692705  0  0  -0.156115  0  3.944527  0  0  -0.164381  0  3.964442  0  0  -0.078475  -0.15095  0  3.931493  0
C  C31  1  0.88390773  0.93579895  0.97107053  1  0  -0.135674  0  3.692639  0  0  -0.156089  0  3.944454  0  0  -0.164343  0  3.964374  0  0  -0.078468  -0.150916  0  3.931406  0
C  C32  1  0.32895666  0.59560828  0.57255213  1  0  0.164088  0  3.633588  0  0  0.129595  0  3.88755  0  0  0.139899  0  3.900347  0  0  0.058793  0.122841  0  3.878983  0
C  C33  1  0.67104186  0.40439004  0.07255394  1  0  0.163876  0  3.633586  0  0  0.129404  0  3.887514  0  0  0.139708  0  3.900308  0  0  0.058714  0.122649  0  3.878945  0
C  C34  1  0.17104080  0.09561167  0.57254911  1  0  0.163995  0  3.633407  0  0  0.129458  0  3.887408  0  0  0.139762  0  3.900206  0  0  0.058762  0.122697  0  3.87884  0
C  C35  1  0.82895468  0.90438900  0.07255156  1  0  0.16392  0  3.633484  0  0  0.129376  0  3.887502  0  0  0.139681  0  3.900295  0  0  0.058738  0.122619  0  3.878933  0
C  C36  1  0.88956216  0.67971202  0.33762828  1  0  0.674118  0  3.883195  0  0  0.619886  0  4.179963  0  0  0.655535  0  4.172355  0  0  0.215045  0.595634  0  4.184547  0
C  C37  1  0.11043496  0.32028948  0.83762664  1  0  0.673966  0  3.883291  0  0  0.619726  0  4.180067  0  0  0.655374  0  4.172458  0  0  0.214941  0.59548  0  4.184636  0
C  C38  1  0.61043086  0.17970851  0.33762302  1  0  0.673977  0  3.883531  0  0  0.619765  0  4.180267  0  0  0.655415  0  4.172661  0  0  0.215026  0.595522  0  4.184836  0
C  C39  1  0.38957083  0.82028711  0.83762341  1  0  0.674028  0  3.883528  0  0  0.619824  0  4.180229  0  0  0.655475  0  4.172622  0  0  0.215056  0.595572  0  4.184815  0
C  C40  1  0.30440413  0.53409209  0.28486539  1  0  0.690351  0  3.864326  0  0  0.636415  0  4.158848  0  0  0.672373  0  4.147378  0  0  0.227619  0.611764  0  4.165978  0
C  C41  1  0.69559784  0.46591136  0.78486188  1  0  0.690283  0  3.864564  0  0  0.636352  0  4.159055  0  0  0.672322  0  4.147569  0  0  0.227551  0.611708  0  4.166174  0
C  C42  1  0.19559814  0.03408837  0.28485846  1  0  0.690567  0  3.864327  0  0  0.636329  0  4.159224  0  0  0.672295  0  4.147741  0  0  0.227503  0.611691  0  4.166339  0
C  C43  1  0.80441144  0.96590920  0.78486339  1  0  0.690476  0  3.864403  0  0  0.636355  0  4.159066  0  0  0.672331  0  4.147584  0  0  0.227537  0.611711  0  4.166184  0
N  N44  1  0.14271142  0.65055785  0.59743289  1  0  -0.320516  0  3.285917  0  0  -0.23909  0  3.56587  0  0  -0.257882  0  3.577213  0  0  -0.324855  -0.22659  0  3.558134  0
N  N45  1  0.85729154  0.34944183  0.09743194  1  0  -0.320474  0  3.285832  0  0  -0.239038  0  3.565752  0  0  -0.25783  0  3.577097  0  0  -0.324845  -0.226541  0  3.558016  0
N  N46  1  0.35728720  0.15055961  0.59742883  1  0  -0.320506  0  3.285898  0  0  -0.239014  0  3.565811  0  0  -0.257804  0  3.577152  0  0  -0.324845  -0.226517  0  3.558079  0
N  N47  1  0.64270966  0.84944008  0.09743059  1  0  -0.320563  0  3.285866  0  0  -0.239062  0  3.565781  0  0  -0.257853  0  3.577124  0  0  -0.324849  -0.226565  0  3.558047  0
O  O48  1  0.77084060  0.79727838  0.35582513  1  0  -0.640249  0  2.011619  0  0  -0.572841  0  2.282579  0  0  -0.602501  0  2.268291  0  0  -0.318045  -0.552092  0  2.291769  0
O  O49  1  0.22916099  0.20272914  0.85582295  1  0  -0.640216  0  2.011626  0  0  -0.572795  0  2.28258  0  0  -0.602454  0  2.268296  0  0  -0.317988  -0.552052  0  2.291767  0
O  O50  1  0.72916098  0.29726516  0.35582357  1  0  -0.640215  0  2.011654  0  0  -0.572795  0  2.28258  0  0  -0.602454  0  2.268296  0  0  -0.318032  -0.552052  0  2.291765  0
O  O51  1  0.27085128  0.70272706  0.85581988  1  0  -0.640182  0  2.011781  0  0  -0.572766  0  2.282692  0  0  -0.602423  0  2.268409  0  0  -0.318041  -0.55202  0  2.291881  0
O  O52  1  0.87921129  0.59345580  0.25877757  1  0  -0.623783  0  2.031697  0  0  -0.564811  0  2.286108  0  0  -0.591861  0  2.2753  0  0  -0.303171  -0.545962  0  2.293024  0
O  O53  1  0.12078016  0.40654157  0.75877234  1  0  -0.62381  0  2.031787  0  0  -0.564822  0  2.286177  0  0  -0.591873  0  2.275366  0  0  -0.303185  -0.545976  0  2.293091  0
O  O54  1  0.62077794  0.09345932  0.25876844  1  0  -0.623766  0  2.031852  0  0  -0.564789  0  2.28622  0  0  -0.59184  0  2.275407  0  0  -0.303217  -0.545949  0  2.293141  0
O  O55  1  0.37922112  0.90654629  0.75876835  1  0  -0.623816  0  2.031676  0  0  -0.564854  0  2.286049  0  0  -0.591905  0  2.275234  0  0  -0.303233  -0.545999  0  2.292965  0
O  O56  1  0.23632339  0.40268512  0.25250174  1  0  -0.642141  0  2.069917  0  0  -0.580247  0  2.343817  0  0  -0.610925  0  2.329798  0  0  -0.31897  -0.558327  0  2.352456  0
O  O57  1  0.76367875  0.59731455  0.75249780  1  0  -0.642112  0  2.070148  0  0  -0.580221  0  2.344006  0  0  -0.610901  0  2.32998  0  0  -0.318942  -0.558317  0  2.352669  0
O  O58  1  0.26367753  0.90268542  0.25249636  1  0  -0.642149  0  2.070096  0  0  -0.580149  0  2.344075  0  0  -0.610827  0  2.33005  0  0  -0.318881  -0.558247  0  2.352736  0
O  O59  1  0.73632613  0.09731543  0.75250009  1  0  -0.64216  0  2.069896  0  0  -0.580218  0  2.343825  0  0  -0.610898  0  2.329798  0  0  -0.318961  -0.558308  0  2.352476  0
O  O60  1  0.43506024  0.61210270  0.23578665  1  0  -0.601431  0  2.091359  0  0  -0.53499  0  2.354051  0  0  -0.563496  0  2.340105  0  0  -0.291443  -0.514876  0  2.362934  0
O  O61  1  0.56494504  0.38789685  0.73578616  1  0  -0.601354  0  2.091434  0  0  -0.534904  0  2.354073  0  0  -0.563411  0  2.340121  0  0  -0.291378  -0.514793  0  2.362958  0
O  O62  1  0.06494350  0.11210401  0.23577836  1  0  -0.601487  0  2.091295  0  0  -0.534949  0  2.35412  0  0  -0.56346  0  2.340173  0  0  -0.291365  -0.514835  0  2.362999  0
O  O63  1  0.93506330  0.88789672  0.73578286  1  0  -0.601446  0  2.091431  0  0  -0.534944  0  2.354154  0  0  -0.563451  0  2.3402  0  0  -0.291343  -0.514834  0  2.363037  0
