# generated using pymatgen
data_ZnH10C9(NO2)2
_symmetry_space_group_name_H-M   'P 1'
_cell_length_a   6.55187735
_cell_length_b   8.03980026
_cell_length_c   19.83100000
_cell_angle_alpha   98.80506558
_cell_angle_beta   90.00000000
_cell_angle_gamma   90.00000000
_symmetry_Int_Tables_number   1
_chemical_formula_structural   ZnH10C9(NO2)2
_chemical_formula_sum   'Zn4 H40 C36 N8 O16'
_cell_volume   1032.30257111
_cell_formula_units_Z   4
loop_
 _symmetry_equiv_pos_site_id
 _symmetry_equiv_pos_as_xyz
  1  'x, y, z'
loop_
 _atom_site_type_symbol
 _atom_site_label
 _atom_site_symmetry_multiplicity
 _atom_site_fract_x
 _atom_site_fract_y
 _atom_site_fract_z
 _atom_site_occupancy
 _atom_site_hle17_bader_spin_density
 _atom_site_hle17_ddec_charge
 _atom_site_hle17_ddec_spin_density
 _atom_site_hle17_ddec_sum_bond_order
 _atom_site_hle17_magmom
 _atom_site_hse06_10hf_bader_spin_density
 _atom_site_hse06_10hf_ddec_charge
 _atom_site_hse06_10hf_ddec_spin_density
 _atom_site_hse06_10hf_ddec_sum_bond_order
 _atom_site_hse06_10hf_magmom
 _atom_site_hse06_bader_spin_density
 _atom_site_hse06_ddec_charge
 _atom_site_hse06_ddec_spin_density
 _atom_site_hse06_ddec_sum_bond_order
 _atom_site_hse06_magmom
 _atom_site_pbe_bader_charge
 _atom_site_pbe_bader_spin_density
 _atom_site_pbe_cm5_charge
 _atom_site_pbe_ddec_charge
 _atom_site_pbe_ddec_spin_density
 _atom_site_pbe_ddec_sum_bond_order
 _atom_site_pbe_magmom
Zn  Zn0  1  0.88362002  0.99999874  0.74999982  1  0  1.002262  0  1.739231  0  0  0.822959  0  2.175576  0  0  0.86808  0  2.125176  0  1.224487  0  0.705323  0.791599  0  2.210188  0
Zn  Zn1  1  0.11637886  0.99999874  0.24999982  1  0  1.002275  0  1.739236  0  0  0.822945  0  2.175567  0  0  0.868065  0  2.125165  0  1.224481  0  0.705326  0.791581  0  2.210184  0
Zn  Zn2  1  0.00000000  0.99999874  0.99999982  1  0  1.025444  0  1.870325  0  0  0.850887  0  2.324645  0  0  0.898013  0  2.271525  0  1.317915  0  0.685568  0.817943  0  2.360966  0
Zn  Zn3  1  0.00000153  0.00000126  0.49999957  1  0  1.025417  0  1.870348  0  0  0.850865  0  2.324666  0  0  0.897991  0  2.27155  0  1.317904  0  0.685578  0.817904  0  2.360988  0
H  H4  1  0.10422814  0.61912260  0.99180881  1  0  0.083625  0  0.929036  0  0  0.093389  0  0.990918  0  0  0.096289  0  0.988078  0  0.089903  0  0.120374  0.091232  0  0.993101  0
H  H5  1  0.10422509  0.38087866  0.50819167  1  0  0.083607  0  0.929033  0  0  0.09337  0  0.990922  0  0  0.096271  0  0.988082  0  0.089977  0  0.120343  0.091214  0  0.993105  0
H  H6  1  0.89577226  0.38087488  0.00819093  1  0  0.08364  0  0.929009  0  0  0.093405  0  0.990888  0  0  0.096305  0  0.988049  0  0.09009  0  0.120376  0.091248  0  0.993071  0
H  H7  1  0.89577532  0.61912134  0.49180873  1  0  0.083612  0  0.929037  0  0  0.093381  0  0.990916  0  0  0.096283  0  0.988076  0  0.089938  0  0.120355  0.091224  0  0.9931  0
H  H8  1  0.38388539  0.42918043  0.93375992  1  0  0.121003  0  0.986676  0  0  0.121678  0  1.057485  0  0  0.126705  0  1.054385  0  0.190413  0  0.106576  0.118015  0  1.059858  0
H  H9  1  0.38388081  0.57081957  0.56624149  1  0  0.121002  0  0.986668  0  0  0.121691  0  1.057475  0  0  0.126717  0  1.054375  0  0.190181  0  0.106587  0.118028  0  1.059847  0
H  H10  1  0.61611654  0.57081831  0.06623990  1  0  0.120991  0  0.986697  0  0  0.121674  0  1.057515  0  0  0.126703  0  1.054416  0  0.190198  0  0.106574  0.118011  0  1.059887  0
H  H11  1  0.61611654  0.42918169  0.43375949  1  0  0.120998  0  0.986677  0  0  0.121693  0  1.05748  0  0  0.126718  0  1.054379  0  0.190199  0  0.10659  0.118032  0  1.059855  0
H  H12  1  0.66560007  0.56304617  0.87677064  1  0  0.095476  0  0.955879  0  0  0.111318  0  1.011885  0  0  0.113562  0  1.010773  0  0.087938  0  0.111005  0.109658  0  1.012769  0
H  H13  1  0.66559549  0.43695508  0.62322984  1  0  0.095478  0  0.955848  0  0  0.111325  0  1.011839  0  0  0.113567  0  1.01073  0  0.08796  0  0.111012  0.109665  0  1.012723  0
H  H14  1  0.33440034  0.43695383  0.12322876  1  0  0.095488  0  0.955872  0  0  0.111328  0  1.011876  0  0  0.113573  0  1.010762  0  0.08795  0  0.111008  0.109668  0  1.01276  0
H  H15  1  0.33440186  0.56304743  0.37677173  1  0  0.09549  0  0.955851  0  0  0.111332  0  1.011847  0  0  0.113576  0  1.010735  0  0.087972  0  0.11101  0.109672  0  1.012732  0
H  H16  1  0.99657391  0.56576862  0.63957133  1  0  0.076782  0  0.9524  0  0  0.09476  0  1.023652  0  0  0.094896  0  1.024405  0  0.02542  0  0.092468  0.094607  0  1.023139  0
H  H17  1  0.99657238  0.43422886  0.86042741  1  0  0.076816  0  0.952421  0  0  0.094796  0  1.023676  0  0  0.094934  0  1.02443  0  0.025205  0  0.092488  0.094646  0  1.023158  0
H  H18  1  0.00342803  0.43422886  0.36042791  1  0  0.076816  0  0.952394  0  0  0.094789  0  1.023656  0  0  0.094928  0  1.024407  0  0.025172  0  0.09249  0.094639  0  1.023138  0
H  H19  1  0.00342650  0.56576988  0.13957241  1  0  0.076814  0  0.952384  0  0  0.094783  0  1.023656  0  0  0.094922  0  1.024405  0  0.025191  0  0.092484  0.094633  0  1.023138  0
H  H20  1  0.79715473  0.71890170  0.63649471  1  0  0.121183  0  0.944099  0  0  0.140704  0  1.004815  0  0  0.142137  0  1.004365  0  0.118051  0  0.109851  0.139515  0  1.005355  0
H  H21  1  0.79715473  0.28109703  0.86350461  1  0  0.121091  0  0.944203  0  0  0.14067  0  1.004855  0  0  0.142064  0  1.004454  0  0.118052  0  0.109834  0.139481  0  1.005395  0
H  H22  1  0.20284568  0.28109703  0.36350461  1  0  0.121088  0  0.944198  0  0  0.140668  0  1.004852  0  0  0.142062  0  1.004451  0  0.118054  0  0.109835  0.139479  0  1.005392  0
H  H23  1  0.20284568  0.71890170  0.13649521  1  0  0.121083  0  0.944201  0  0  0.140666  0  1.004847  0  0  0.14206  0  1.004447  0  0.118055  0  0.109836  0.139478  0  1.005388  0
H  H24  1  0.83107783  0.62475252  0.71148702  1  0  0.089103  0  0.945221  0  0  0.110019  0  1.007793  0  0  0.110912  0  1.007636  0  0.076656  0  0.098695  0.109303  0  1.007959  0
H  H25  1  0.83107630  0.37524622  0.78851179  1  0  0.089095  0  0.945224  0  0  0.110021  0  1.007799  0  0  0.110916  0  1.007632  0  0.076502  0  0.098686  0.109304  0  1.007965  0
H  H26  1  0.16892410  0.37524748  0.28851187  1  0  0.089095  0  0.945213  0  0  0.110018  0  1.00779  0  0  0.110915  0  1.007622  0  0.076501  0  0.098687  0.109302  0  1.007955  0
H  H27  1  0.16892410  0.62475252  0.21148803  1  0  0.0891  0  0.945212  0  0  0.110025  0  1.007787  0  0  0.11092  0  1.00762  0  0.076625  0  0.098689  0.109307  0  1.007954  0
H  H28  1  0.14777139  0.71448889  0.78593141  1  0  0.087872  0  0.938012  0  0  0.108706  0  1.001421  0  0  0.109061  0  1.00239  0  0.03662  0  0.097032  0.108325  0  1.000876  0
H  H29  1  0.14777139  0.28550985  0.71406841  1  0  0.087852  0  0.938028  0  0  0.10868  0  1.001444  0  0  0.109035  0  1.002414  0  0.036621  0  0.097013  0.108301  0  1.0009  0
H  H30  1  0.85222749  0.28550985  0.21406892  1  0  0.087849  0  0.938063  0  0  0.10868  0  1.001478  0  0  0.109037  0  1.002446  0  0.036632  0  0.097013  0.108301  0  1.000932  0
H  H31  1  0.85222597  0.71449015  0.28593098  1  0  0.08786  0  0.938052  0  0  0.108687  0  1.001466  0  0  0.109042  0  1.002437  0  0.036642  0  0.097017  0.108307  0  1.000921  0
H  H32  1  0.32962308  0.84640625  0.75256485  1  0  0.114384  0  0.947045  0  0  0.131151  0  1.011967  0  0  0.132836  0  1.011355  0  0.098122  0  0.10466  0.129825  0  1.012524  0
H  H33  1  0.32962308  0.15359375  0.74743505  1  0  0.114448  0  0.947042  0  0  0.131232  0  1.01193  0  0  0.132917  0  1.011316  0  0.097953  0  0.104687  0.129906  0  1.012489  0
H  H34  1  0.67037580  0.15359249  0.24743547  1  0  0.114412  0  0.947056  0  0  0.131182  0  1.011966  0  0  0.132867  0  1.011357  0  0.09811  0  0.104663  0.129856  0  1.012524  0
H  H35  1  0.67037580  0.84640877  0.25256400  1  0  0.114409  0  0.94709  0  0  0.131182  0  1.011996  0  0  0.132868  0  1.011384  0  0.097939  0  0.104673  0.129855  0  1.012555  0
H  H36  1  0.29181865  0.63702179  0.71081230  1  0  0.087487  0  0.938713  0  0  0.110149  0  0.999342  0  0  0.110586  0  1.000115  0  0.046634  0  0.097062  0.109772  0  0.998841  0
H  H37  1  0.29181865  0.36297821  0.78918710  1  0  0.087501  0  0.938739  0  0  0.110142  0  0.999401  0  0  0.110577  0  1.000178  0  0.046508  0  0.097076  0.109769  0  0.998893  0
H  H38  1  0.70818023  0.36297695  0.28918803  1  0  0.087501  0  0.938714  0  0  0.110162  0  0.999349  0  0  0.110599  0  1.000122  0  0.046499  0  0.097059  0.109785  0  0.998847  0
H  H39  1  0.70818023  0.63702431  0.21081195  1  0  0.087479  0  0.93876  0  0  0.110134  0  0.999406  0  0  0.11057  0  1.000183  0  0.046641  0  0.097051  0.109758  0  0.998903  0
H  H40  1  0.11476863  0.85065921  0.65598798  1  0  0.26227  0  0.912505  0  0  0.255469  0  0.962096  0  0  0.260237  0  0.960075  0  0.435013  0  0.300642  0.252024  0  0.963688  0
H  H41  1  0.11476863  0.14934078  0.84401142  1  0  0.262269  0  0.91248  0  0  0.255444  0  0.96207  0  0  0.260213  0  0.96005  0  0.435022  0  0.300645  0.251999  0  0.963662  0
H  H42  1  0.88523177  0.14934078  0.34401192  1  0  0.262294  0  0.912482  0  0  0.255472  0  0.962064  0  0  0.260241  0  0.960044  0  0.435017  0  0.300654  0.252027  0  0.963656  0
H  H43  1  0.88523177  0.85065921  0.15598798  1  0  0.262277  0  0.912496  0  0  0.255455  0  0.962079  0  0  0.260224  0  0.960059  0  0.435012  0  0.300644  0.25201  0  0.963671  0
C  C44  1  0.23098876  0.66816194  0.96511634  1  0  0.139444  0  3.67968  0  0  0.103233  0  3.937352  0  0  0.110556  0  3.952482  0  0.455359  0  0.054597  0.098322  0  3.927194  0
C  C45  1  0.23098723  0.33183806  0.53488356  1  0  0.139463  0  3.679696  0  0  0.103266  0  3.937367  0  0  0.110588  0  3.9525  0  0.455277  0  0.054649  0.098342  0  3.927203  0
C  C46  1  0.76901317  0.33183680  0.03488449  1  0  0.139425  0  3.679657  0  0  0.103232  0  3.937342  0  0  0.110555  0  3.952471  0  0.455199  0  0.054596  0.098319  0  3.927186  0
C  C47  1  0.76901165  0.66816194  0.46511685  1  0  0.139493  0  3.679658  0  0  0.1033  0  3.937346  0  0  0.110622  0  3.952479  0  0.455253  0  0.054654  0.098376  0  3.927182  0
C  C48  1  0.38547578  0.56494547  0.93375452  1  0  -0.107456  0  3.714832  0  0  -0.119527  0  3.973683  0  0  -0.124402  0  3.9911  0  -0.049449  0  -0.077138  -0.116381  0  3.962145  0
C  C49  1  0.38547272  0.43505327  0.56624530  1  0  -0.107469  0  3.714929  0  0  -0.119587  0  3.973833  0  0  -0.124462  0  3.991249  0  -0.049194  0  -0.077175  -0.116442  0  3.962298  0
C  C50  1  0.61452616  0.43505327  0.06624580  1  0  -0.107441  0  3.714887  0  0  -0.11957  0  3.973801  0  0  -0.12445  0  3.991223  0  -0.049189  0  -0.077164  -0.116424  0  3.962263  0
C  C51  1  0.61452616  0.56494673  0.43375460  1  0  -0.107464  0  3.714872  0  0  -0.119591  0  3.973784  0  0  -0.124463  0  3.991201  0  -0.049175  0  -0.077177  -0.116449  0  3.962251  0
C  C52  1  0.54205075  0.63962719  0.90161843  1  0  -0.016553  0  3.669329  0  0  -0.043837  0  3.910815  0  0  -0.040563  0  3.927509  0  0.019372  0  -0.059381  -0.045861  0  3.899598  0
C  C53  1  0.54204769  0.36037281  0.59838197  1  0  -0.016542  0  3.669341  0  0  -0.043809  0  3.910826  0  0  -0.040534  0  3.92752  0  0.019379  0  -0.059374  -0.045834  0  3.899609  0
C  C54  1  0.45795119  0.36037281  0.09838197  1  0  -0.016562  0  3.669307  0  0  -0.043815  0  3.910799  0  0  -0.040543  0  3.927493  0  0.019381  0  -0.059345  -0.045839  0  3.899582  0
C  C55  1  0.45794966  0.63962971  0.40161808  1  0  -0.016584  0  3.669326  0  0  -0.043838  0  3.910821  0  0  -0.040567  0  3.927517  0  0.01938  0  -0.059367  -0.045863  0  3.899606  0
C  C56  1  0.54112124  0.81313900  0.90044286  1  0  -0.072893  0  3.699831  0  0  -0.055878  0  3.935399  0  0  -0.062576  0  3.954311  0  -0.018773  0  0.007058  -0.051832  0  3.923131  0
C  C57  1  0.54111819  0.18686226  0.59955813  1  0  -0.073021  0  3.699742  0  0  -0.055942  0  3.935331  0  0  -0.062641  0  3.954244  0  -0.018599  0  0.00704  -0.051896  0  3.923066  0
C  C58  1  0.45888069  0.18686226  0.09955863  1  0  -0.072868  0  3.699711  0  0  -0.05587  0  3.935284  0  0  -0.062561  0  3.954192  0  -0.018773  0  0.007055  -0.051823  0  3.923016  0
C  C59  1  0.45888222  0.81313900  0.40044084  1  0  -0.072894  0  3.699811  0  0  -0.055881  0  3.935383  0  0  -0.062576  0  3.954295  0  -0.018843  0  0.007037  -0.051837  0  3.92312  0
C  C60  1  0.37794053  0.90721644  0.93178313  1  0  0.070708  0  3.711957  0  0  0.064071  0  3.951724  0  0  0.065342  0  3.971024  0  0.468348  0  0.111202  0.062995  0  3.939111  0
C  C61  1  0.37793900  0.09278607  0.56821642  1  0  0.070966  0  3.711768  0  0  0.064139  0  3.951736  0  0  0.065412  0  3.97104  0  0.468345  0  0.11118  0.063051  0  3.939116  0
C  C62  1  0.62205987  0.09278356  0.06821677  1  0  0.070767  0  3.712002  0  0  0.064121  0  3.951773  0  0  0.065392  0  3.971074  0  0.468333  0  0.11119  0.063045  0  3.93916  0
C  C63  1  0.62205835  0.90721644  0.43178414  1  0  0.070798  0  3.71188  0  0  0.064126  0  3.951693  0  0  0.065398  0  3.970999  0  0.46834  0  0.111191  0.063035  0  3.939075  0
C  C64  1  0.35314458  0.09402584  0.92889494  1  0  0.586727  0  3.970107  0  0  0.536795  0  4.275735  0  0  0.569007  0  4.269471  0  1.604713  0  0.194429  0.514983  0  4.279287  0
C  C65  1  0.35314458  0.90597668  0.57110360  1  0  0.586457  0  3.970226  0  0  0.536595  0  4.275836  0  0  0.568798  0  4.269591  0  1.604704  0  0.194397  0.514784  0  4.279386  0
C  C66  1  0.64685582  0.90597542  0.07110403  1  0  0.58659  0  3.970246  0  0  0.536664  0  4.275865  0  0  0.568869  0  4.269618  0  1.604693  0  0.194415  0.514853  0  4.279415  0
C  C67  1  0.64685735  0.09402458  0.42889637  1  0  0.586577  0  3.970154  0  0  0.536681  0  4.275754  0  0  0.568884  0  4.269509  0  1.604704  0  0.194421  0.514874  0  4.279299  0
C  C68  1  0.70976603  0.88815929  0.86338904  1  0  0.676457  0  3.919851  0  0  0.617571  0  4.227468  0  0  0.65444  0  4.215294  0  1.633864  0  0.21377  0.592333  0  4.235219  0
C  C69  1  0.70975993  0.11184196  0.63661295  1  0  0.676381  0  3.919817  0  0  0.617488  0  4.227447  0  0  0.654356  0  4.215277  0  1.633664  0  0.21373  0.59225  0  4.235195  0
C  C70  1  0.29023895  0.11184196  0.13661295  1  0  0.676415  0  3.919688  0  0  0.617535  0  4.227296  0  0  0.654397  0  4.215128  0  1.633833  0  0.213737  0.592297  0  4.235045  0
C  C71  1  0.29023742  0.88815803  0.36338745  1  0  0.676373  0  3.919867  0  0  0.6175  0  4.227465  0  0  0.654367  0  4.215299  0  1.633872  0  0.213725  0.592263  0  4.235214  0
C  C72  1  0.91073286  0.67022611  0.66915196  1  0  -0.153997  0  3.651104  0  0  -0.24985  0  3.905024  0  0  -0.246915  0  3.914259  0  0.177674  0  -0.152405  -0.251606  0  3.898796  0
C  C73  1  0.91072981  0.32977262  0.83084685  1  0  -0.15394  0  3.651151  0  0  -0.24989  0  3.905029  0  0  -0.24693  0  3.914287  0  0.177932  0  -0.152404  -0.251646  0  3.898803  0
C  C74  1  0.08926907  0.32977262  0.33084685  1  0  -0.15392  0  3.651101  0  0  -0.24986  0  3.904987  0  0  -0.246898  0  3.914245  0  0.177963  0  -0.152406  -0.251616  0  3.898761  0
C  C75  1  0.08926907  0.67022737  0.16915305  1  0  -0.153937  0  3.651111  0  0  -0.249877  0  3.904999  0  0  -0.246915  0  3.914256  0  0.17794  0  -0.152415  -0.251633  0  3.898774  0
C  C76  1  0.21469877  0.74798019  0.73901582  1  0  -0.146238  0  3.642551  0  0  -0.242085  0  3.897176  0  0  -0.239607  0  3.907086  0  0.221779  0  -0.150756  -0.243538  0  3.890451  0
C  C77  1  0.21469877  0.25201729  0.76098392  1  0  -0.146308  0  3.642636  0  0  -0.242189  0  3.897235  0  0  -0.239709  0  3.907146  0  0.221765  0  -0.150781  -0.243643  0  3.89051  0
C  C78  1  0.78530011  0.25201855  0.26098400  1  0  -0.146237  0  3.642606  0  0  -0.242118  0  3.897197  0  0  -0.23964  0  3.907108  0  0.221766  0  -0.150729  -0.24357  0  3.890471  0
C  C79  1  0.78529858  0.74798145  0.23901590  1  0  -0.146215  0  3.642633  0  0  -0.242088  0  3.897227  0  0  -0.239613  0  3.907143  0  0.221761  0  -0.150724  -0.243541  0  3.890505  0
N  N80  1  0.22886723  0.83394063  0.96360155  1  0  -0.313829  0  3.340357  0  0  -0.238791  0  3.603872  0  0  -0.254938  0  3.61962  0  -1.229129  0  -0.319392  -0.227878  0  3.593343  0
N  N81  1  0.22886723  0.16605937  0.53639784  1  0  -0.313829  0  3.340283  0  0  -0.238724  0  3.603829  0  0  -0.25487  0  3.619579  0  -1.229172  0  -0.319348  -0.227775  0  3.593268  0
N  N82  1  0.77113318  0.16605811  0.03639827  1  0  -0.313858  0  3.340377  0  0  -0.238805  0  3.603871  0  0  -0.254948  0  3.619615  0  -1.229143  0  -0.319378  -0.227891  0  3.593342  0
N  N83  1  0.77112860  0.83394189  0.46360314  1  0  -0.313872  0  3.340307  0  0  -0.23885  0  3.603874  0  0  -0.255001  0  3.619628  0  -1.229079  0  -0.319397  -0.227901  0  3.593314  0
N  N84  1  0.05079002  0.80777591  0.69729071  1  0  -0.349918  0  3.299418  0  0  -0.254847  0  3.560531  0  0  -0.273497  0  3.57049  0  -1.074259  0  -0.492314  -0.242101  0  3.553659  0
N  N85  1  0.05079002  0.19222283  0.80270861  1  0  -0.349916  0  3.299334  0  0  -0.254707  0  3.560299  0  0  -0.273359  0  3.570255  0  -1.074271  0  -0.492314  -0.241963  0  3.553428  0
N  N86  1  0.94921038  0.19222157  0.30270853  1  0  -0.349993  0  3.299349  0  0  -0.254803  0  3.560349  0  0  -0.273456  0  3.570305  0  -1.074265  0  -0.492336  -0.24206  0  3.55348  0
N  N87  1  0.94921038  0.80777717  0.19729079  1  0  -0.349965  0  3.299346  0  0  -0.254785  0  3.560358  0  0  -0.273435  0  3.570311  0  -1.074251  0  -0.49233  -0.242041  0  3.553489  0
O  O88  1  0.48594774  0.16400274  0.89759037  1  0  -0.57353  0  1.924205  0  0  -0.526603  0  2.14192  0  0  -0.549883  0  2.137153  0  -1.154487  0  -0.308259  -0.510147  0  2.144601  0
O  O89  1  0.48594774  0.83600229  0.60240934  1  0  -0.573447  0  1.924275  0  0  -0.526535  0  2.141972  0  0  -0.549816  0  2.137216  0  -1.154422  0  -0.30824  -0.510077  0  2.144648  0
O  O90  1  0.51405266  0.83599851  0.10240911  1  0  -0.573505  0  1.924222  0  0  -0.526588  0  2.141939  0  0  -0.549865  0  2.137177  0  -1.154458  0  -0.308271  -0.510132  0  2.144621  0
O  O91  1  0.51405266  0.16399771  0.39759056  1  0  -0.573458  0  1.924251  0  0  -0.52657  0  2.141988  0  0  -0.549847  0  2.137224  0  -1.154437  0  -0.30825  -0.510116  0  2.144664  0
O  O92  1  0.19171299  0.16522237  0.95702363  1  0  -0.637136  0  2.008541  0  0  -0.576163  0  2.26663  0  0  -0.603011  0  2.254815  0  -1.180014  0  -0.331947  -0.557279  0  2.273966  0
O  O93  1  0.19171299  0.83477637  0.54297619  1  0  -0.637044  0  2.008543  0  0  -0.576042  0  2.266562  0  0  -0.602884  0  2.254748  0  -1.180023  0  -0.331917  -0.557158  0  2.273896  0
O  O94  1  0.80828741  0.83477637  0.04297619  1  0  -0.637067  0  2.008528  0  0  -0.576067  0  2.266575  0  0  -0.602904  0  2.254748  0  -1.180036  0  -0.331919  -0.557182  0  2.273908  0
O  O95  1  0.80828894  0.16522489  0.45702378  1  0  -0.637098  0  2.008486  0  0  -0.576098  0  2.266519  0  0  -0.602934  0  2.254692  0  -1.18006  0  -0.33195  -0.557216  0  2.273853  0
O  O96  1  0.87167230  0.94048370  0.89333229  1  0  -0.631264  0  2.045938  0  0  -0.579794  0  2.313357  0  0  -0.607016  0  2.30159  0  -1.183797  0  -0.306573  -0.56053  0  2.320622  0
O  O97  1  0.87166925  0.05951756  0.60666920  1  0  -0.631205  0  2.045781  0  0  -0.579748  0  2.313212  0  0  -0.606976  0  2.301461  0  -1.18369  0  -0.306543  -0.560484  0  2.320476  0
O  O98  1  0.12832963  0.05951630  0.10666963  1  0  -0.631226  0  2.045707  0  0  -0.579767  0  2.313137  0  0  -0.606999  0  2.301399  0  -1.183691  0  -0.306539  -0.560503  0  2.320401  0
O  O99  1  0.12832963  0.94048370  0.39333128  1  0  -0.631244  0  2.045743  0  0  -0.579783  0  2.313156  0  0  -0.607015  0  2.301411  0  -1.183721  0  -0.306564  -0.560521  0  2.320421  0
O  O100  1  0.68071940  0.87782833  0.79882124  1  0  -0.623553  0  2.036985  0  0  -0.548595  0  2.298199  0  0  -0.577235  0  2.283608  0  -1.166969  0  -0.316713  -0.528563  0  2.307536  0
O  O101  1  0.68071634  0.12217292  0.70118025  1  0  -0.623546  0  2.037061  0  0  -0.548565  0  2.298263  0  0  -0.577198  0  2.283665  0  -1.167074  0  -0.316718  -0.528535  0  2.307599  0
O  O102  1  0.31928559  0.12217167  0.20118017  1  0  -0.623548  0  2.037004  0  0  -0.548558  0  2.298177  0  0  -0.577198  0  2.283597  0  -1.167088  0  -0.316699  -0.528528  0  2.307513  0
O  O103  1  0.31928101  0.87782581  0.29882008  1  0  -0.623484  0  2.037099  0  0  -0.548513  0  2.298307  0  0  -0.577135  0  2.283685  0  -1.167042  0  -0.316664  -0.528469  0  2.307611  0
