# generated using pymatgen
data_ZnH6C10(N4O)2
_symmetry_space_group_name_H-M   'P 1'
_cell_length_a   7.55292544
_cell_length_b   7.55290978
_cell_length_c   12.18188115
_cell_angle_alpha   86.65241242
_cell_angle_beta   86.65233287
_cell_angle_gamma   61.78467243
_symmetry_Int_Tables_number   1
_chemical_formula_structural   ZnH6C10(N4O)2
_chemical_formula_sum   'Zn2 H12 C20 N16 O4'
_cell_volume   610.94087094
_cell_formula_units_Z   2
loop_
 _symmetry_equiv_pos_site_id
 _symmetry_equiv_pos_as_xyz
  1  'x, y, z'
loop_
 _atom_site_type_symbol
 _atom_site_label
 _atom_site_symmetry_multiplicity
 _atom_site_fract_x
 _atom_site_fract_y
 _atom_site_fract_z
 _atom_site_occupancy
 _atom_site_hle17_bader_spin_density
 _atom_site_hle17_ddec_charge
 _atom_site_hle17_ddec_spin_density
 _atom_site_hle17_ddec_sum_bond_order
 _atom_site_hle17_magmom
 _atom_site_hse06_10hf_bader_spin_density
 _atom_site_hse06_10hf_ddec_charge
 _atom_site_hse06_10hf_ddec_spin_density
 _atom_site_hse06_10hf_ddec_sum_bond_order
 _atom_site_hse06_10hf_magmom
 _atom_site_hse06_bader_spin_density
 _atom_site_hse06_ddec_charge
 _atom_site_hse06_ddec_spin_density
 _atom_site_hse06_ddec_sum_bond_order
 _atom_site_hse06_magmom
 _atom_site_pbe_bader_spin_density
 _atom_site_pbe_cm5_charge
 _atom_site_pbe_ddec_charge
 _atom_site_pbe_ddec_spin_density
 _atom_site_pbe_ddec_sum_bond_order
 _atom_site_pbe_magmom
Zn  Zn0  1  0.09143787  0.90856583  0.25000135  1  0  1.107697  0  1.842906  0  0  0.939266  0  2.300326  0  0  0.980021  0  2.248507  0  0  0.709739  0.911037  0  2.335842  0
Zn  Zn1  1  0.90855710  0.09143681  0.75000021  1  0  1.107681  0  1.842918  0  0  0.939234  0  2.300343  0  0  0.979989  0  2.248528  0  0  0.709749  0.911007  0  2.335847  0
H  H2  1  0.46327293  0.60321499  0.30508810  1  0  0.431619  0  0.868035  0  0  0.397053  0  0.937591  0  0  0.407466  0  0.922324  0  0  0.29346  0.389672  0  0.948423  0
H  H3  1  0.39678682  0.53672655  0.19490959  1  0  0.431678  0  0.867954  0  0  0.397122  0  0.937493  0  0  0.407534  0  0.922226  0  0  0.293473  0.389738  0  0.948327  0
H  H4  1  0.53672659  0.39678917  0.69490912  1  0  0.431656  0  0.867974  0  0  0.39709  0  0.937533  0  0  0.407505  0  0.92226  0  0  0.293485  0.389709  0  0.948363  0
H  H5  1  0.60320886  0.46327457  0.80509118  1  0  0.431631  0  0.868016  0  0  0.397074  0  0.937559  0  0  0.407484  0  0.922295  0  0  0.293465  0.38969  0  0.948393  0
H  H6  1  0.69406773  0.18271319  0.27554310  1  0  0.406081  0  0.905765  0  0  0.364218  0  0.987193  0  0  0.375476  0  0.971124  0  0  0.27888  0.356302  0  0.998458  0
H  H7  1  0.81728835  0.30593638  0.22445904  1  0  0.406045  0  0.905815  0  0  0.36419  0  0.987233  0  0  0.375449  0  0.971163  0  0  0.27886  0.356273  0  0.9985  0
H  H8  1  0.30592999  0.81728643  0.72445436  1  0  0.406089  0  0.90575  0  0  0.364225  0  0.987182  0  0  0.375484  0  0.971112  0  0  0.27888  0.356309  0  0.998447  0
H  H9  1  0.18271143  0.69406177  0.77554415  1  0  0.406025  0  0.905835  0  0  0.364166  0  0.98726  0  0  0.375426  0  0.971189  0  0  0.278858  0.356253  0  0.998522  0
H  H10  1  0.99961428  0.53678754  0.31440201  1  0  0.0767  0  0.951654  0  0  0.082597  0  1.021903  0  0  0.083399  0  1.02183  0  0  0.125168  0.081995  0  1.021968  0
H  H11  1  0.46321386  0.00038519  0.18559787  1  0  0.076702  0  0.951541  0  0  0.082599  0  1.021795  0  0  0.083406  0  1.021701  0  0  0.125167  0.082  0  1.021863  0
H  H12  1  0.00038537  0.46321361  0.68559860  1  0  0.076714  0  0.951685  0  0  0.082596  0  1.02194  0  0  0.083409  0  1.021853  0  0  0.125159  0.081994  0  1.022006  0
H  H13  1  0.53677748  0.99960835  0.81440171  1  0  0.076695  0  0.951645  0  0  0.08258  0  1.021903  0  0  0.083397  0  1.021795  0  0  0.125135  0.081981  0  1.02197  0
C  C14  1  0.85503366  0.78048883  0.08583167  1  0  0.053854  0  3.90029  0  0  0.050383  0  4.152  0  0  0.050043  0  4.172045  0  0  0.09454  0.05064  0  4.13856  0
C  C15  1  0.21951982  0.14496853  0.41417293  1  0  0.053715  0  3.900303  0  0  0.050279  0  4.151999  0  0  0.049936  0  4.172044  0  0  0.094472  0.050537  0  4.138557  0
C  C16  1  0.14496979  0.21949876  0.91416603  1  0  0.053977  0  3.900074  0  0  0.050419  0  4.1519  0  0  0.050077  0  4.171948  0  0  0.09446  0.050674  0  4.138461  0
C  C17  1  0.78048060  0.85504774  0.58582953  1  0  0.054043  0  3.90007  0  0  0.05051  0  4.15183  0  0  0.05017  0  4.171877  0  0  0.094635  0.050765  0  4.138388  0
C  C18  1  0.78866600  0.63432971  0.08374637  1  0  0.069496  0  3.912636  0  0  0.061362  0  4.172204  0  0  0.063743  0  4.190873  0  0  0.099673  0.059873  0  4.159629  0
C  C19  1  0.36568015  0.21133609  0.41625570  1  0  0.069779  0  3.912394  0  0  0.061594  0  4.172013  0  0  0.063975  0  4.190679  0  0  0.099727  0.060102  0  4.159436  0
C  C20  1  0.21133339  0.36566089  0.91625549  1  0  0.069308  0  3.912956  0  0  0.061199  0  4.172545  0  0  0.063571  0  4.191215  0  0  0.099598  0.059713  0  4.159966  0
C  C21  1  0.63432311  0.78867414  0.58374196  1  0  0.069415  0  3.9127  0  0  0.061332  0  4.172236  0  0  0.063709  0  4.190905  0  0  0.0996  0.059846  0  4.159656  0
C  C22  1  0.93690981  0.59590740  0.23446601  1  0  0.246155  0  3.689935  0  0  0.189852  0  3.973895  0  0  0.201378  0  3.989774  0  0  0.140029  0.182325  0  3.962852  0
C  C23  1  0.40409659  0.06309296  0.26553863  1  0  0.246262  0  3.689758  0  0  0.189964  0  3.973717  0  0  0.201499  0  3.989601  0  0  0.140114  0.182433  0  3.962683  0
C  C24  1  0.06308994  0.40409073  0.76553143  1  0  0.246149  0  3.689917  0  0  0.189861  0  3.973839  0  0  0.201381  0  3.989717  0  0  0.140059  0.182334  0  3.962798  0
C  C25  1  0.59590116  0.93690670  0.73446786  1  0  0.246184  0  3.689792  0  0  0.189893  0  3.97373  0  0  0.201422  0  3.989614  0  0  0.140119  0.182362  0  3.962696  0
C  C26  1  0.83934213  0.91622932  0.99858078  1  0  0.317833  0  3.736471  0  0  0.29581  0  4.004807  0  0  0.311125  0  4.019361  0  0  0.216884  0.285241  0  3.995274  0
C  C27  1  0.08378116  0.16066190  0.50141902  1  0  0.317926  0  3.736468  0  0  0.295904  0  4.004773  0  0  0.311219  0  4.019333  0  0  0.216943  0.28533  0  3.99524  0
C  C28  1  0.16065939  0.08375674  0.00141542  1  0  0.317835  0  3.736481  0  0  0.295831  0  4.004844  0  0  0.311145  0  4.019404  0  0  0.21691  0.285262  0  3.995312  0
C  C29  1  0.91622310  0.83935741  0.49858235  1  0  0.317759  0  3.736538  0  0  0.29575  0  4.004886  0  0  0.311066  0  4.019441  0  0  0.216861  0.285182  0  3.99535  0
C  C30  1  0.68749505  0.60928649  0.99734165  1  0  0.285375  0  3.743623  0  0  0.265645  0  4.019169  0  0  0.277398  0  4.035155  0  0  0.203037  0.257529  0  4.00853  0
C  C31  1  0.39072108  0.31250556  0.50265833  1  0  0.285247  0  3.743449  0  0  0.265538  0  4.019001  0  0  0.27729  0  4.034986  0  0  0.203005  0.257421  0  4.008359  0
C  C32  1  0.31249144  0.39069491  0.00265285  1  0  0.285447  0  3.743083  0  0  0.265725  0  4.018626  0  0  0.277482  0  4.03461  0  0  0.20298  0.257602  0  4.007982  0
C  C33  1  0.60929132  0.68750776  0.49733886  1  0  0.28525  0  3.743567  0  0  0.265511  0  4.019109  0  0  0.277264  0  4.035094  0  0  0.202954  0.257391  0  4.008464  0
N  N34  1  0.94885971  0.75361305  0.18322532  1  0  -0.405466  0  3.184025  0  0  -0.335745  0  3.458918  0  0  -0.356037  0  3.475745  0  0  -0.329371  -0.321805  0  3.447159  0
N  N35  1  0.24639397  0.05114412  0.31677759  1  0  -0.405518  0  3.183891  0  0  -0.335865  0  3.458902  0  0  -0.356145  0  3.475696  0  0  -0.329458  -0.321927  0  3.447153  0
N  N36  1  0.05113801  0.24638657  0.81677214  1  0  -0.405432  0  3.184044  0  0  -0.335689  0  3.458971  0  0  -0.355973  0  3.475786  0  0  -0.329299  -0.321748  0  3.447214  0
N  N37  1  0.75360067  0.94886757  0.68322527  1  0  -0.405492  0  3.183934  0  0  -0.335777  0  3.458917  0  0  -0.356058  0  3.475713  0  0  -0.329417  -0.32184  0  3.447165  0
N  N38  1  0.84243763  0.51845606  0.17858492  1  0  -0.372644  0  3.037496  0  0  -0.319225  0  3.293174  0  0  -0.335281  0  3.307921  0  0  -0.310656  -0.308157  0  3.282941  0
N  N39  1  0.48155035  0.15756409  0.32141557  1  0  -0.372785  0  3.037445  0  0  -0.319359  0  3.293156  0  0  -0.335412  0  3.307889  0  0  -0.310693  -0.308292  0  3.282927  0
N  N40  1  0.15756490  0.48153909  0.82141746  1  0  -0.372627  0  3.037438  0  0  -0.319214  0  3.293126  0  0  -0.335256  0  3.307848  0  0  -0.310671  -0.308148  0  3.282902  0
N  N41  1  0.51844989  0.84243856  0.67858167  1  0  -0.372655  0  3.037421  0  0  -0.319249  0  3.293087  0  0  -0.335304  0  3.307833  0  0  -0.310681  -0.308182  0  3.282857  0
N  N42  1  0.82374732  0.01738240  0.91971604  1  0  -0.413474  0  2.781792  0  0  -0.367409  0  3.046486  0  0  -0.382332  0  3.053608  0  0  -0.29534  -0.35753  0  3.042002  0
N  N43  1  0.98260990  0.17625742  0.58028566  1  0  -0.413523  0  2.781614  0  0  -0.367464  0  3.046327  0  0  -0.382383  0  3.053444  0  0  -0.295337  -0.357585  0  3.041838  0
N  N44  1  0.17625949  0.98260370  0.08028159  1  0  -0.413421  0  2.781775  0  0  -0.367374  0  3.046504  0  0  -0.382281  0  3.053598  0  0  -0.29528  -0.357496  0  3.042018  0
N  N45  1  0.01738751  0.82375128  0.41971885  1  0  -0.41341  0  2.781778  0  0  -0.36736  0  3.046491  0  0  -0.382271  0  3.053595  0  0  -0.29531  -0.357482  0  3.042004  0
N  N46  1  0.60504285  0.59715702  0.92233338  1  0  -0.379863  0  2.664759  0  0  -0.346498  0  2.895739  0  0  -0.358197  0  2.906845  0  0  -0.280365  -0.338616  0  2.888503  0
N  N47  1  0.40284744  0.39496605  0.57766972  1  0  -0.379842  0  2.664596  0  0  -0.346472  0  2.895568  0  0  -0.358172  0  2.90667  0  0  -0.280341  -0.338591  0  2.88833  0
N  N48  1  0.39495921  0.40283363  0.07767494  1  0  -0.379959  0  2.663915  0  0  -0.346592  0  2.894886  0  0  -0.358294  0  2.905989  0  0  -0.280305  -0.338708  0  2.887649  0
N  N49  1  0.59716254  0.60504121  0.42232698  1  0  -0.3798  0  2.664545  0  0  -0.34642  0  2.895503  0  0  -0.358119  0  2.906605  0  0  -0.280298  -0.338539  0  2.888265  0
O  O50  1  0.35958897  0.64042610  0.24999504  1  0  -0.866668  0  1.971662  0  0  -0.809908  0  2.196854  0  0  -0.829589  0  2.162126  0  0  -0.58732  -0.795876  0  2.220943  0
O  O51  1  0.64041033  0.35958410  0.75000360  1  0  -0.866655  0  1.971669  0  0  -0.809907  0  2.196868  0  0  -0.82959  0  2.162142  0  0  -0.587348  -0.795876  0  2.220958  0
O  O52  1  0.82673014  0.17327369  0.25000100  1  0  -0.872383  0  2.011111  0  0  -0.80541  0  2.248111  0  0  -0.826807  0  2.211284  0  0  -0.594278  -0.790049  0  2.273421  0
O  O53  1  0.17326890  0.82672595  0.74999888  1  0  -0.872407  0  2.011078  0  0  -0.805438  0  2.248075  0  0  -0.826833  0  2.211246  0  0  -0.594311  -0.790078  0  2.273382  0
