# generated using pymatgen
data_Al2H32C49(N3O7)2
_symmetry_space_group_name_H-M   'P 1'
_cell_length_a   6.62615501
_cell_length_b   28.36765926
_cell_length_c   31.72357939
_cell_angle_alpha   101.91734721
_cell_angle_beta   89.44529552
_cell_angle_gamma   89.76786954
_symmetry_Int_Tables_number   1
_chemical_formula_structural   Al2H32C49(N3O7)2
_chemical_formula_sum   'Al4 H64 C98 N12 O28'
_cell_volume   5834.12467880
_cell_formula_units_Z   2
loop_
 _symmetry_equiv_pos_site_id
 _symmetry_equiv_pos_as_xyz
  1  'x, y, z'
loop_
 _atom_site_type_symbol
 _atom_site_label
 _atom_site_symmetry_multiplicity
 _atom_site_fract_x
 _atom_site_fract_y
 _atom_site_fract_z
 _atom_site_occupancy
 _atom_site_pbe_bader_charge
 _atom_site_pbe_bader_spin_density
 _atom_site_pbe_cm5_charge
 _atom_site_pbe_ddec_charge
 _atom_site_pbe_ddec_spin_density
 _atom_site_pbe_ddec_sum_bond_order
 _atom_site_pbe_magmom
Al  Al0  1  0.89784096  0.50042593  0.49935576  1  2.50176  0  0.398874  1.645154  0  2.581531  0
Al  Al1  1  0.39824966  0.49884555  0.49937093  1  2.501881  0  0.399246  1.645397  0  2.587756  0
Al  Al2  1  0.28784907  0.99908019  0.99963770  1  2.50348  0  0.399129  1.650781  0  2.585483  0
Al  Al3  1  0.78847792  0.00154927  0.99993879  1  2.502277  0  0.398765  1.652147  0  2.579459  0
H  H4  1  0.81624217  0.30975708  0.34776782  1  0.099217  0  0.106431  0.106954  0  1.015205  0
H  H5  1  0.41237191  0.34089178  0.30664287  1  0.07696  0  0.10459  0.104077  0  1.033092  0
H  H6  1  0.73848113  0.17027475  0.18063080  1  0.105195  0  0.105641  0.103585  0  1.030598  0
H  H7  1  0.72304146  0.10480702  0.11378601  1  0.100644  0  0.108473  0.11205  0  1.005286  0
H  H8  1  0.36739208  0.10834427  0.10080391  1  0.088478  0  0.109256  0.11313  0  1.005866  0
H  H9  1  0.38377107  0.17508374  0.16647977  1  0.105994  0  0.104632  0.102612  0  1.034788  0
H  H10  1  0.67181385  0.23283288  0.67974332  1  0.109316  0  0.116274  0.118982  0  0.992031  0
H  H11  1  0.64322423  0.17989826  0.73487574  1  0.121475  0  0.11558  0.120751  0  0.981751  0
H  H12  1  0.49237919  0.27616141  0.82755655  1  0.111951  0  0.112882  0.123019  0  1.013308  0
H  H13  1  0.76228723  0.17419720  0.88876076  1  0.090146  0  0.113279  0.130577  0  0.978132  0
H  H14  1  0.76444996  0.11663751  0.93861568  1  0.076246  0  0.109347  0.110473  0  0.991669  0
H  H15  1  0.32354412  0.11246894  0.83328390  1  0.056926  0  0.111051  0.126301  0  0.989557  0
H  H16  1  0.23664764  0.35473601  0.53902768  1  0.060411  0  0.104919  0.107328  0  0.994611  0
H  H17  1  0.02766874  0.41939457  0.69000207  1  0.068061  0  0.107143  0.115845  0  0.988095  0
H  H18  1  0.15324126  0.82631199  0.26829695  1  0.115923  0  0.117541  0.122658  0  0.979704  0
H  H19  1  0.17246787  0.77374718  0.32358741  1  0.135156  0  0.117311  0.122065  0  0.978842  0
H  H20  1  0.04019516  0.67623904  0.23315034  1  0.131991  0  0.117213  0.121913  0  0.979691  0
H  H21  1  0.02185575  0.72907869  0.17808866  1  0.11439  0  0.117602  0.122924  0  0.978701  0
H  H22  1  0.32659551  0.62033785  0.34498892  1  0.104953  0  0.114132  0.129104  0  0.982665  0
H  H23  1  0.33486086  0.56815555  0.39922065  1  0.115011  0  0.112608  0.112447  0  1.003798  0
H  H24  1  0.94627042  0.61073457  0.43035558  1  0.094005  0  0.110141  0.112677  0  0.993339  0
H  H25  1  0.85901829  0.88616573  0.15904752  1  0.109197  0  0.113878  0.128352  0  0.980224  0
H  H26  1  0.84639200  0.93863841  0.10481665  1  0.110257  0  0.113441  0.118545  0  0.986789  0
H  H27  1  0.24956530  0.88778070  0.06876123  1  0.102279  0  0.11017  0.111796  0  0.993179  0
H  H28  1  0.26482304  0.83288572  0.12083585  1  0.08645  0  0.11228  0.127705  0  0.988394  0
H  H29  1  0.31376854  0.60735524  0.60371190  1  0.093921  0  0.108922  0.109427  0  1.014675  0
H  H30  1  0.29602065  0.67287230  0.67043077  1  0.105353  0  0.105083  0.10156  0  1.036886  0
H  H31  1  0.94354326  0.67183963  0.67765806  1  0.096631  0  0.105421  0.103054  0  1.036379  0
H  H32  1  0.95914416  0.60596547  0.61103861  1  0.107072  0  0.10841  0.110966  0  1.010815  0
H  H33  1  0.25051933  0.81875992  0.82850851  1  0.112758  0  0.105683  0.102909  0  1.034909  0
H  H34  1  0.87491705  0.89968227  0.89193066  1  0.083414  0  0.109868  0.115188  0  1.005636  0
H  H35  1  0.89611074  0.83331341  0.82579618  1  0.128301  0  0.105485  0.103521  0  1.033696  0
H  H36  1  0.84891375  0.37723597  0.41188689  1  0.084766  0  0.111077  0.114933  0  1.000224  0
H  H37  1  0.64408891  0.34835205  0.84631828  1  0.022717  0  0.089817  0.118298  0  0.994271  0
H  H38  1  0.79085619  0.30364306  0.81170739  1  0.025255  0  0.079841  0.103784  0  1.043125  0
H  H39  1  0.84132448  0.36539266  0.81455260  1  0.029127  0  0.090763  0.122174  0  0.990565  0
H  H40  1  0.65935593  0.33531590  0.74693911  1  0.090193  0  0.098364  0.104909  0  0.997235  0
H  H41  1  0.51339942  0.37755718  0.78078272  1  0.078111  0  0.105143  0.114819  0  0.957829  0
H  H42  1  0.18369001  0.98052827  0.87880243  1  0.043772  0  0.086189  0.11554  0  1.017781  0
H  H43  1  0.21254932  0.99448547  0.82691060  1  0.01327  0  0.082747  0.107923  0  1.003885  0
H  H44  1  0.41390754  0.96690915  0.84986993  1  0.001384  0  0.083509  0.11311  0  1.017402  0
H  H45  1  0.48810721  0.05402251  0.85655064  1  0.022535  0  0.093728  0.092456  0  0.976284  0
H  H46  1  0.44605042  0.04162404  0.90829660  1  0.062027  0  0.099216  0.106645  0  1.001347  0
H  H47  1  0.55863532  0.29081376  0.58568185  1  0.040773  0  0.090026  0.130253  0  0.990931  0
H  H48  1  0.45684660  0.27795433  0.63319319  1  -0.001587  0  0.077697  0.104942  0  1.046681  0
H  H49  1  0.46999205  0.23176986  0.58595547  1  0.001966  0  0.082171  0.107421  0  1.00351  0
H  H50  1  0.11388848  0.26258028  0.59664303  1  0.038387  0  0.091162  0.088916  0  0.999411  0
H  H51  1  0.21927866  0.27629356  0.54963833  1  0.048805  0  0.093962  0.088372  0  0.972419  0
H  H52  1  0.30929135  0.51042609  0.67415519  1  0.021664  0  0.085504  0.114415  0  0.999098  0
H  H53  1  0.29699239  0.51962375  0.62059335  1  0.048552  0  0.08732  0.121228  0  1.022293  0
H  H54  1  0.16614710  0.55940620  0.66271560  1  0.008541  0  0.081348  0.107336  0  1.02066  0
H  H55  1  0.92524690  0.50123377  0.61879537  1  0.039875  0  0.095523  0.098133  0  0.992954  0
H  H56  1  0.93211304  0.49381328  0.67267228  1  0.019473  0  0.092985  0.087495  0  0.974193  0
H  H57  1  0.93443475  0.66653129  0.37904102  1  0.090863  0  0.112449  0.127975  0  0.990359  0
H  H58  1  0.23120474  0.88554844  0.89434326  1  0.082263  0  0.109381  0.111275  0  1.006007  0
H  H59  1  0.40864987  0.46019992  0.32298696  1  0.033902  0  0.082489  0.107259  0  1.003762  0
H  H60  1  0.35680359  0.48676849  0.37791318  1  0.020014  0  0.08535  0.111012  0  1.031391  0
H  H61  1  0.60779061  0.48531262  0.35766534  1  0.028626  0  0.08656  0.11696  0  1.000564  0
H  H62  1  0.56318825  0.42245835  0.40117965  1  0.099613  0  0.101188  0.111567  0  1.000109  0
H  H63  1  0.61441040  0.39555805  0.34655918  1  0.004455  0  0.08934  0.087446  0  0.9945  0
H  H64  1  0.65278940  0.44329271  0.51179907  1  0.628516  0  0.356782  0.434924  0  0.845889  0
H  H65  1  0.15087742  0.56305894  0.50406065  1  0.629005  0  0.359486  0.438406  0  0.839478  0
H  H66  1  0.53016479  0.06284257  0.00104506  1  0.63579  0  0.360522  0.438043  0  0.840104  0
H  H67  1  0.03261476  0.93845212  0.00132276  1  0.608519  0  0.35862  0.437108  0  0.842735  0
C  C68  1  0.64587395  0.55311695  0.44876197  1  1.567995  0  0.270296  0.641507  0  4.100001  0
C  C69  1  0.64463950  0.56418556  0.56389463  1  1.573698  0  0.263716  0.631676  0  4.11467  0
C  C70  1  0.14583572  0.44793877  0.55191094  1  1.580231  0  0.27832  0.67194  0  4.06685  0
C  C71  1  0.14878887  0.43603384  0.43501748  1  1.563877  0  0.267714  0.641617  0  4.095321  0
C  C72  1  0.97187075  0.36863333  0.38851604  1  -0.01643  0  -0.079852  -0.085431  0  3.996106  0
C  C73  1  0.95314780  0.33119858  0.35294793  1  -0.051811  0  -0.085935  -0.12052  0  3.986575  0
C  C74  1  0.11348909  0.32126839  0.32309281  1  -0.049156  0  -0.005187  0.026647  0  4.018243  0
C  C75  1  0.28940231  0.34904799  0.33012451  1  0.032314  0  -0.083506  -0.170951  0  3.92763  0
C  C76  1  0.31128931  0.38679195  0.36582517  1  -0.008216  0  0.008404  0.128234  0  3.898421  0
C  C77  1  0.14744423  0.39670177  0.39545803  1  -0.015804  0  -0.008617  -0.092118  0  3.898716  0
C  C78  1  0.07357534  0.21506659  0.21617644  1  0.977323  0  0.241306  0.243905  0  3.979188  0
C  C79  1  0.09824433  0.28269218  0.28445944  1  0.96343  0  0.242072  0.246158  0  3.974216  0
C  C80  1  0.87500832  0.15663524  0.16274385  1  0.003356  0  -0.079719  -0.10726  0  3.955197  0
C  C81  1  0.86656968  0.12040845  0.12584222  1  -0.026832  0  -0.077712  -0.084058  0  3.962843  0
C  C82  1  0.04450365  0.10306229  0.10358935  1  -0.097787  0  -0.010348  -0.035824  0  3.963349  0
C  C83  1  0.23111281  0.12257274  0.11848521  1  0.015638  0  -0.078465  -0.083682  0  3.967741  0
C  C84  1  0.24014350  0.15924203  0.15487903  1  -0.039993  0  -0.08142  -0.109526  0  3.96459  0
C  C85  1  0.06203272  0.17650218  0.17744298  1  -0.043807  0  -0.001049  0.025568  0  3.985746  0
C  C86  1  0.26788059  0.33366306  0.70730706  1  1.305054  0  0.246045  0.438157  0  4.074033  0
C  C87  1  0.95280777  0.29592190  0.67305499  1  1.358596  0  0.245342  0.428324  0  4.130215  0
C  C88  1  0.94465194  0.26563964  0.70571901  1  -0.084175  0  -0.004019  -0.060585  0  3.984465  0
C  C89  1  0.09551192  0.26930239  0.73759243  1  -0.010789  0  0.004266  0.037151  0  3.993773  0
C  C90  1  0.25729610  0.30267047  0.73984147  1  -0.022947  0  -0.005615  -0.13052  0  3.911265  0
C  C91  1  0.78443312  0.23392751  0.70475068  1  0.008748  0  -0.063844  -0.070044  0  3.935878  0
C  C92  1  0.76864271  0.20467147  0.73518707  1  -0.024691  0  -0.065651  -0.071511  0  3.945499  0
C  C93  1  0.91511496  0.20687175  0.76657219  1  -0.031982  0  -0.005177  -0.064142  0  3.992681  0
C  C94  1  0.07894204  0.23901641  0.76816370  1  0.033561  0  0.000617  0.020355  0  4.029976  0
C  C95  1  0.22668937  0.24236232  0.80037156  1  -0.02935  0  -0.004114  -0.053141  0  4.012314  0
C  C96  1  0.38262558  0.27495227  0.80206120  1  -0.021853  0  -0.068234  -0.132621  0  3.901363  0
C  C97  1  0.40244691  0.30598468  0.77261484  1  0.029719  0  0.02236  0.139502  0  3.862709  0
C  C98  1  0.89820583  0.17512779  0.79817555  1  1.317369  0  0.246623  0.444047  0  4.087119  0
C  C99  1  0.21582610  0.21160968  0.83290199  1  1.314634  0  0.247474  0.445194  0  4.079115  0
C  C100  1  0.88598188  0.14859092  0.88793384  1  0.04311  0  -0.085704  -0.161817  0  3.977555  0
C  C101  1  0.88756089  0.11633062  0.91553962  1  -0.039816  0  -0.078026  -0.071403  0  3.99413  0
C  C102  1  0.04651652  0.08326904  0.91482782  1  -0.044092  0  -0.013539  -0.107653  0  3.922273  0
C  C103  1  0.20713257  0.08106791  0.88465960  1  0.097578  0  0.009658  0.136382  0  3.897791  0
C  C104  1  0.20189932  0.11337969  0.85685153  1  -0.03252  0  -0.084825  -0.216428  0  3.935069  0
C  C105  1  0.04576456  0.14679833  0.85874830  1  0.301729  0  0.089648  0.206312  0  4.029952  0
C  C106  1  0.18158016  0.33713437  0.60082577  1  0.063565  0  0.000415  0.065812  0  3.929201  0
C  C107  1  0.19083605  0.36884080  0.57244475  1  -0.037167  0  -0.085383  -0.154128  0  3.972965  0
C  C108  1  0.13890182  0.41749362  0.58521733  1  -0.058886  0  -0.010971  -0.083759  0  3.957086  0
C  C109  1  0.07549445  0.43686927  0.62775090  1  -0.009867  0  -0.000362  0.113415  0  3.936189  0
C  C110  1  0.07330550  0.40568676  0.65655323  1  0.11834  0  -0.083474  -0.199289  0  3.965278  0
C  C111  1  0.12571093  0.35721992  0.64352494  1  0.206586  0  0.086822  0.138953  0  3.987211  0
C  C112  1  0.73669122  0.79312729  0.17055798  1  1.359382  0  0.248352  0.442079  0  4.079668  0
C  C113  1  0.41482001  0.83036451  0.20501038  1  1.315318  0  0.24754  0.441123  0  4.08123  0
C  C114  1  0.42752325  0.79854797  0.23660238  1  -0.013196  0  -0.002425  -0.058357  0  3.98293  0
C  C115  1  0.59170744  0.76620641  0.23523235  1  -0.008016  0  0.00296  0.027677  0  4.007172  0
C  C116  1  0.74552471  0.76288105  0.20348529  1  -0.069964  0  -0.002907  -0.057194  0  3.978635  0
C  C117  1  0.27793528  0.80107943  0.26803413  1  -0.004409  0  -0.06283  -0.070848  0  3.939525  0
C  C118  1  0.28857487  0.77189791  0.29872988  1  -0.023123  0  -0.062075  -0.068829  0  3.934533  0
C  C119  1  0.44875189  0.73996693  0.29814909  1  -0.031344  0  -0.002074  -0.05641  0  3.98014  0
C  C120  1  0.60225321  0.73652592  0.26633472  1  -0.008297  0  0.004356  0.031062  0  4.006829  0
C  C121  1  0.76618008  0.70410396  0.26494588  1  -0.001878  0  -0.003308  -0.060146  0  3.984292  0
C  C122  1  0.91568313  0.70154854  0.23348504  1  -0.039198  0  -0.062697  -0.069558  0  3.936787  0
C  C123  1  0.90544750  0.73087108  0.20287993  1  -0.001835  0  -0.062544  -0.070595  0  3.935326  0
C  C124  1  0.45835702  0.71008877  0.33131412  1  1.31838  0  0.247355  0.440362  0  4.079531  0
C  C125  1  0.77869531  0.67226435  0.29653271  1  1.317836  0  0.24749  0.439966  0  4.081358  0
C  C126  1  0.46108429  0.61872945  0.36411795  1  -0.036598  0  -0.082293  -0.15263  0  3.958436  0
C  C127  1  0.46591688  0.58943794  0.39420210  1  0.021514  0  -0.073698  -0.070561  0  3.969016  0
C  C128  1  0.64129282  0.58609886  0.41781520  1  -0.029341  0  -0.014046  -0.055509  0  3.987397  0
C  C129  1  0.81049324  0.61358011  0.41189760  1  -0.019356  0  -0.075863  -0.073004  0  3.963923  0
C  C130  1  0.80423692  0.64451355  0.38307824  1  -0.002821  0  -0.082961  -0.15362  0  3.960533  0
C  C131  1  0.63001924  0.64644533  0.35894881  1  0.277161  0  0.093121  0.201087  0  3.992718  0
C  C132  1  0.72660776  0.88628140  0.13897627  1  0.0508  0  -0.081693  -0.150153  0  3.966936  0
C  C133  1  0.71949919  0.91559560  0.10886899  1  -0.043796  0  -0.076208  -0.076734  0  3.966145  0
C  C134  1  0.54730587  0.91627093  0.08363418  1  -0.017358  0  -0.01354  -0.048942  0  3.980379  0
C  C135  1  0.38295427  0.88683620  0.08840295  1  -0.012629  0  -0.076663  -0.074333  0  3.967612  0
C  C136  1  0.39134680  0.85628641  0.11750752  1  -3.1e-05  0  -0.082032  -0.150799  0  3.96284  0
C  C137  1  0.56292975  0.85646722  0.14282136  1  0.26212  0  0.090727  0.195364  0  3.99649  0
C  C138  1  0.45008060  0.62184936  0.62030734  1  -0.063797  0  -0.076855  -0.083224  0  3.973851  0
C  C139  1  0.44036575  0.65802897  0.65715379  1  -0.049552  0  -0.079726  -0.105773  0  3.957126  0
C  C140  1  0.61877440  0.67619132  0.67797117  1  0.024061  0  -0.000711  0.025224  0  3.984162  0
C  C141  1  0.80664728  0.65739922  0.66123025  1  -0.044985  0  -0.080566  -0.110429  0  3.956826  0
C  C142  1  0.81520080  0.62105478  0.62439131  1  -0.054655  0  -0.077645  -0.081551  0  3.960397  0
C  C143  1  0.63709225  0.60301551  0.60367315  1  0.001527  0  -0.00974  -0.036889  0  3.955796  0
C  C144  1  0.58676152  0.78291564  0.78494310  1  0.947115  0  0.242279  0.242982  0  3.981777  0
C  C145  1  0.60781231  0.71460502  0.71695583  1  0.933077  0  0.241859  0.242932  0  3.981539  0
C  C146  1  0.38621343  0.83676549  0.84260770  1  -0.017555  0  -0.079269  -0.10622  0  3.953203  0
C  C147  1  0.37562660  0.87356242  0.87905381  1  -0.050383  0  -0.075875  -0.08351  0  3.967201  0
C  C148  1  0.55220978  0.89609373  0.89685727  1  -0.04211  0  -0.008486  -0.036613  0  3.963536  0
C  C149  1  0.73990049  0.88150310  0.87765235  1  0.029304  0  -0.07757  -0.08618  0  3.963944  0
C  C150  1  0.75151268  0.84486083  0.84113780  1  -0.065952  0  -0.080191  -0.106605  0  3.961062  0
C  C151  1  0.57461165  0.82204066  0.82334668  1  -0.030212  0  -0.001271  0.023607  0  3.98795  0
C  C152  1  0.54234938  0.93556984  0.93611123  1  1.578611  0  0.267547  0.633681  0  4.108084  0
C  C153  1  0.54198337  0.94786157  0.05147707  1  1.559786  0  0.269486  0.644283  0  4.096886  0
C  C154  1  0.03911519  0.06419998  0.06395437  1  1.578485  0  0.266177  0.636807  0  4.107754  0
C  C155  1  0.03944213  0.05215185  0.94745576  1  1.554833  0  0.271622  0.653891  0  4.08621  0
C  C156  1  0.57595619  0.34098261  0.77773055  1  -0.024634  0  -0.161339  -0.159979  0  3.978614  0
C  C157  1  0.71977166  0.33924014  0.81466986  1  -0.068292  0  -0.245707  -0.352106  0  3.980399  0
C  C158  1  0.37254180  0.04335347  0.87782345  1  0.002828  0  -0.162012  -0.15749  0  3.96037  0
C  C159  1  0.29070291  0.99342658  0.85711456  1  -0.046087  0  -0.243693  -0.34459  0  3.951083  0
C  C160  1  0.23021122  0.28444265  0.58497943  1  -0.013277  0  -0.162201  -0.141388  0  3.991882  0
C  C161  1  0.43994722  0.27035204  0.59809942  1  -0.006004  0  -0.248968  -0.350303  0  3.968178  0
C  C162  1  0.02176907  0.48943953  0.64273810  1  0.010712  0  -0.160191  -0.148541  0  3.973304  0
C  C163  1  0.20940664  0.52158507  0.65048356  1  -0.057151  0  -0.244597  -0.351599  0  3.948647  0
C  C164  1  0.50158304  0.41623468  0.36857274  1  -0.018895  0  -0.164647  -0.158674  0  3.961126  0
C  C165  1  0.46638046  0.46494893  0.35596021  1  -0.061504  0  -0.243048  -0.341405  0  3.951991  0
N  N166  1  0.26440119  0.27270476  0.25876069  1  -0.545566  0  -0.150455  -0.13728  0  3.216549  0
N  N167  1  0.25137236  0.23865467  0.22391255  1  -0.561483  0  -0.152395  -0.145111  0  3.220917  0
N  N168  1  0.90755997  0.22492828  0.24178630  1  -0.550461  0  -0.154357  -0.144998  0  3.207477  0
N  N169  1  0.91957143  0.25964196  0.27636552  1  -0.557399  0  -0.152533  -0.144722  0  3.20794  0
N  N170  1  0.11642969  0.32731815  0.67543508  1  -1.158436  0  -0.229148  -0.211814  0  3.597653  0
N  N171  1  0.05201056  0.17926823  0.82925995  1  -1.172431  0  -0.226317  -0.222669  0  3.567995  0
N  N172  1  0.57153816  0.82562261  0.17368009  1  -1.175646  0  -0.223574  -0.217981  0  3.554541  0
N  N173  1  0.62282664  0.67731588  0.32812800  1  -1.136777  0  -0.222683  -0.217166  0  3.551799  0
N  N174  1  0.78305056  0.73344698  0.73444539  1  -0.546595  0  -0.151006  -0.139795  0  3.210824  0
N  N175  1  0.77239986  0.76798577  0.76917047  1  -0.535362  0  -0.151068  -0.142607  0  3.212144  0
N  N176  1  0.41160649  0.76350301  0.76784552  1  -0.548973  0  -0.149769  -0.137998  0  3.211024  0
N  N177  1  0.42238076  0.72859096  0.73344528  1  -0.530247  0  -0.1507  -0.142092  0  3.215129  0
O  O178  1  0.47586123  0.54948728  0.54733632  1  -1.257231  0  -0.238447  -0.601361  0  2.365009  0
O  O179  1  0.81705660  0.54283738  0.46259036  1  -1.25757  0  -0.233973  -0.592062  0  2.337111  0
O  O180  1  0.97746712  0.45279068  0.44971261  1  -1.263375  0  -0.235055  -0.590551  0  2.347148  0
O  O181  1  0.81831922  0.54912991  0.54940642  1  -1.259341  0  -0.237653  -0.595767  0  2.353708  0
O  O182  1  0.97713724  0.45970057  0.53811203  1  -1.261107  0  -0.231911  -0.597355  0  2.330718  0
O  O183  1  0.47680280  0.53753192  0.45934208  1  -1.265558  0  -0.232444  -0.59178  0  2.366258  0
O  O184  1  0.64985085  0.47024708  0.49729368  1  -1.430007  0  -0.446111  -0.988206  0  2.195579  0
O  O185  1  0.31870407  0.45906150  0.53922552  1  -1.253094  0  -0.23317  -0.596163  0  2.315094  0
O  O186  1  0.31784642  0.44932172  0.45207219  1  -1.258025  0  -0.230656  -0.585923  0  2.374825  0
O  O187  1  0.14862744  0.52875159  0.50300707  1  -1.431428  0  -0.449172  -1.000033  0  2.235284  0
O  O188  1  0.40027140  0.36379841  0.70679198  1  -1.094532  0  -0.258975  -0.417983  0  2.122082  0
O  O189  1  0.82451787  0.29385723  0.64501452  1  -1.093136  0  -0.254383  -0.426549  0  2.172688  0
O  O190  1  0.75983421  0.14625550  0.79739583  1  -1.088432  0  -0.271904  -0.43255  0  2.081848  0
O  O191  1  0.34051228  0.21387923  0.86164267  1  -1.076341  0  -0.270806  -0.427771  0  2.080449  0
O  O192  1  0.86472767  0.79017731  0.14186498  1  -1.096781  0  -0.266282  -0.427308  0  2.087744  0
O  O193  1  0.27669128  0.85957398  0.20595502  1  -1.074363  0  -0.266565  -0.426004  0  2.085977  0
O  O194  1  0.33128085  0.71352888  0.36025166  1  -1.076204  0  -0.266232  -0.427662  0  2.093755  0
O  O195  1  0.91589030  0.64276104  0.29537015  1  -1.081162  0  -0.267364  -0.426423  0  2.086937  0
O  O196  1  0.71115291  0.96324463  0.04073269  1  -1.262313  0  -0.23506  -0.595828  0  2.355996  0
O  O197  1  0.36808262  0.95063211  0.95018272  1  -1.259614  0  -0.234616  -0.589579  0  2.354072  0
O  O198  1  0.20650278  0.04047510  0.96211387  1  -1.260447  0  -0.232958  -0.597072  0  2.376173  0
O  O199  1  0.37081208  0.95673400  0.03672145  1  -1.258324  0  -0.236098  -0.595379  0  2.33249  0
O  O200  1  0.20901095  0.04675517  0.04920712  1  -1.262669  0  -0.236396  -0.595831  0  2.367041  0
O  O201  1  0.70996420  0.95080870  0.95270251  1  -1.258947  0  -0.235677  -0.591398  0  2.359261  0
O  O202  1  0.53569940  0.02918026  0.00265347  1  -1.437845  0  -0.447572  -0.998564  0  2.230175  0
O  O203  1  0.86748668  0.05184930  0.04758854  1  -1.262128  0  -0.23813  -0.595874  0  2.336578  0
O  O204  1  0.86606420  0.04037095  0.95962705  1  -1.261015  0  -0.237767  -0.600579  0  2.336281  0
O  O205  1  0.03705149  0.97106130  0.99662484  1  -1.411378  0  -0.448635  -1.000547  0  2.231114  0
