# generated using pymatgen
data_ZnSiH16C24(N2F5)2
_symmetry_space_group_name_H-M   'P 1'
_cell_length_a   7.78152414
_cell_length_b   13.78516602
_cell_length_c   13.78689293
_cell_angle_alpha   86.64173351
_cell_angle_beta   73.72686371
_cell_angle_gamma   73.72040609
_symmetry_Int_Tables_number   1
_chemical_formula_structural   ZnSiH16C24(N2F5)2
_chemical_formula_sum   'Zn1 Si1 H16 C24 N4 F10'
_cell_volume   1362.42311548
_cell_formula_units_Z   1
loop_
 _symmetry_equiv_pos_site_id
 _symmetry_equiv_pos_as_xyz
  1  'x, y, z'
loop_
 _atom_site_type_symbol
 _atom_site_label
 _atom_site_symmetry_multiplicity
 _atom_site_fract_x
 _atom_site_fract_y
 _atom_site_fract_z
 _atom_site_occupancy
 _atom_site_pbe_bader_charge
 _atom_site_pbe_bader_spin_density
 _atom_site_pbe_cm5_charge
 _atom_site_pbe_ddec_charge
 _atom_site_pbe_ddec_spin_density
 _atom_site_pbe_ddec_sum_bond_order
 _atom_site_pbe_magmom
Zn  Zn0  1  0.49999337  0.49995395  0.50005515  1  1.330799  0  0.708181  0.826093  0  2.170197  0
Si  Si1  1  0.00000292  0.50005488  0.49991181  1  3.226055  0  0.264857  1.731597  0  3.894663  0
H  H2  1  0.27020641  0.57178039  0.35965953  1  0.212931  0  0.115205  0.105614  0  1.070063  0
H  H3  1  0.26407628  0.57120519  0.18425405  1  0.077448  0  0.113791  0.125107  0  0.990484  0
H  H4  1  0.86129578  0.43101220  0.10440037  1  0.082183  0  0.113189  0.141797  0  0.987283  0
H  H5  1  0.13871183  0.56852455  0.89575785  1  0.092277  0  0.112988  0.141268  0  0.987494  0
H  H6  1  0.73630020  0.42942634  0.81567951  1  0.073794  0  0.113485  0.12482  0  0.991227  0
H  H7  1  0.73006105  0.42873409  0.64032130  1  0.216113  0  0.114976  0.105456  0  1.071179  0
H  H8  1  0.71466413  0.46705161  0.96842959  1  0.056805  0  0.107602  0.105783  0  0.995496  0
H  H9  1  0.28559024  0.53308247  0.03161950  1  0.05872  0  0.107544  0.105182  0  0.995296  0
H  H10  1  0.26997204  0.35970782  0.57149384  1  0.215515  0  0.115047  0.105454  0  1.070529  0
H  H11  1  0.26379689  0.18430790  0.57081040  1  0.075363  0  0.113717  0.125018  0  0.990767  0
H  H12  1  0.86112352  0.10434198  0.43096432  1  0.083851  0  0.11298  0.14172  0  0.987335  0
H  H13  1  0.13885240  0.89553032  0.56953700  1  0.083893  0  0.113261  0.141713  0  0.987307  0
H  H14  1  0.73577944  0.81576791  0.42855072  1  0.07962  0  0.113663  0.124861  0  0.990529  0
H  H15  1  0.72973136  0.64031295  0.42809214  1  0.213648  0  0.115176  0.105376  0  1.070025  0
H  H16  1  0.71439696  0.96840977  0.46675200  1  0.092087  0  0.107454  0.105105  0  0.995561  0
H  H17  1  0.28533181  0.03156898  0.53310049  1  0.057255  0  0.10763  0.105635  0  0.995584  0
C  C18  1  0.39897274  0.54145117  0.30122654  1  0.402544  0  0.05324  0.126565  0  3.913531  0
C  C19  1  0.39695338  0.54036150  0.20134490  1  0.028253  0  -0.084412  -0.184362  0  3.914113  0
C  C20  1  0.56308556  0.49906951  0.12582842  1  0.004868  0  0.007475  0.17343  0  4.056805  0
C  C21  1  0.72575925  0.46330017  0.15734751  1  0.052972  0  -0.097786  -0.316412  0  3.940538  0
C  C22  1  0.71226821  0.46714043  0.25990340  1  1.06629  0  0.235082  0.447821  0  4.085421  0
C  C23  1  0.57384918  0.49100958  0.01925311  1  0.0276  0  -0.07557  -0.115102  0  3.952245  0
C  C24  1  0.42643015  0.50917492  0.98076887  1  -0.071627  0  -0.074555  -0.112052  0  3.951706  0
C  C25  1  0.27431503  0.53644235  0.84276958  1  0.045354  0  -0.097265  -0.315016  0  3.940013  0
C  C26  1  0.43715144  0.50105328  0.87420734  1  0.002793  0  0.007206  0.17223  0  4.057595  0
C  C27  1  0.60332839  0.45999871  0.79864373  1  0.031413  0  -0.083772  -0.183791  0  3.914489  0
C  C28  1  0.60122078  0.45884860  0.69878030  1  0.399391  0  0.052894  0.126669  0  3.91395  0
C  C29  1  0.28769528  0.53247663  0.74023727  1  1.069668  0  0.234522  0.4472  0  4.087581  0
C  C30  1  0.39878405  0.30125120  0.54119571  1  0.399765  0  0.053196  0.127207  0  3.913428  0
C  C31  1  0.39669532  0.20136721  0.54007380  1  0.030824  0  -0.084044  -0.18408  0  3.913876  0
C  C32  1  0.56282677  0.12582280  0.49883204  1  0.002937  0  0.007177  0.172462  0  4.057468  0
C  C33  1  0.72555049  0.15731022  0.46318828  1  0.055146  0  -0.097569  -0.316742  0  3.940271  0
C  C34  1  0.71215627  0.25987039  0.46707571  1  1.063842  0  0.235362  0.448908  0  4.084547  0
C  C35  1  0.57356654  0.01924938  0.49075352  1  -0.105734  0  -0.074452  -0.111795  0  3.952318  0
C  C36  1  0.42616526  0.98073117  0.50906141  1  0.0277  0  -0.075291  -0.114718  0  3.952634  0
C  C37  1  0.27433872  0.84258829  0.53707626  1  0.053683  0  -0.097607  -0.316111  0  3.939997  0
C  C38  1  0.43694874  0.87414020  0.50104771  1  0.00348  0  0.007171  0.172817  0  4.056941  0
C  C39  1  0.60298802  0.79865096  0.45957697  1  0.02695  0  -0.084262  -0.183492  0  3.914504  0
C  C40  1  0.60098946  0.69876558  0.45853099  1  0.400657  0  0.053437  0.126883  0  3.913493  0
C  C41  1  0.28781720  0.74002148  0.53324358  1  1.064586  0  0.235519  0.448562  0  4.086264  0
N  N42  1  0.55519176  0.50334613  0.33226211  1  -1.248936  0  -0.316392  -0.33637  0  3.449043  0
N  N43  1  0.44482922  0.49657487  0.66781385  1  -1.25075  0  -0.315978  -0.33634  0  3.449736  0
N  N44  1  0.55506109  0.33226550  0.50321850  1  -1.247345  0  -0.316296  -0.337081  0  3.450358  0
N  N45  1  0.44485432  0.66767770  0.49683867  1  -1.247533  0  -0.316425  -0.336842  0  3.449753  0
F  F46  1  0.21677455  0.51253612  0.51235097  1  -0.82381  0  -0.215994  -0.517193  0  1.323358  0
F  F47  1  0.78318441  0.48758117  0.48749665  1  -0.822993  0  -0.216048  -0.517161  0  1.323216  0
F  F48  1  0.99995364  0.59059626  0.40936747  1  -0.831804  0  -0.225663  -0.517364  0  1.139109  0
F  F49  1  0.00003319  0.40950113  0.59046409  1  -0.832314  0  -0.225598  -0.517294  0  1.139839  0
F  F50  1  0.12104991  0.41047230  0.41036763  1  -0.827262  0  -0.252554  -0.542311  0  1.111147  0
F  F51  1  0.87890694  0.58962678  0.58947337  1  -0.827338  0  -0.252636  -0.54235  0  1.111209  0
F  F52  1  0.86906955  0.43159163  0.28833387  1  -0.615321  0  -0.068197  -0.125998  0  1.413417  0
F  F53  1  0.13073098  0.56751863  0.71187254  1  -0.611621  0  -0.067875  -0.125844  0  1.414399  0
F  F54  1  0.86899766  0.28828590  0.43167935  1  -0.610045  0  -0.068238  -0.126103  0  1.412832  0
F  F55  1  0.13112702  0.71153970  0.56909559  1  -0.614643  0  -0.06855  -0.12643  0  1.41396  0
