# generated using pymatgen
data_Pr2B5H7(C2O7)2
_symmetry_space_group_name_H-M   'P 1'
_cell_length_a   6.44998605
_cell_length_b   10.81871218
_cell_length_c   11.39784857
_cell_angle_alpha   61.67826831
_cell_angle_beta   89.82345633
_cell_angle_gamma   89.62106725
_symmetry_Int_Tables_number   1
_chemical_formula_structural   Pr2B5H7(C2O7)2
_chemical_formula_sum   'Pr4 B10 H14 C8 O28'
_cell_volume   700.12757341
_cell_formula_units_Z   2
loop_
 _symmetry_equiv_pos_site_id
 _symmetry_equiv_pos_as_xyz
  1  'x, y, z'
loop_
 _atom_site_type_symbol
 _atom_site_label
 _atom_site_symmetry_multiplicity
 _atom_site_fract_x
 _atom_site_fract_y
 _atom_site_fract_z
 _atom_site_occupancy
 _atom_site_hle17_bader_spin_density
 _atom_site_hle17_ddec_charge
 _atom_site_hle17_ddec_spin_density
 _atom_site_hle17_ddec_sum_bond_order
 _atom_site_hle17_magmom
 _atom_site_hse06_10hf_bader_spin_density
 _atom_site_hse06_10hf_ddec_charge
 _atom_site_hse06_10hf_ddec_spin_density
 _atom_site_hse06_10hf_ddec_sum_bond_order
 _atom_site_hse06_10hf_magmom
 _atom_site_hse06_bader_spin_density
 _atom_site_hse06_ddec_charge
 _atom_site_hse06_ddec_spin_density
 _atom_site_hse06_ddec_sum_bond_order
 _atom_site_hse06_magmom
 _atom_site_pbe_bader_spin_density
 _atom_site_pbe_cm5_charge
 _atom_site_pbe_ddec_charge
 _atom_site_pbe_ddec_spin_density
 _atom_site_pbe_ddec_sum_bond_order
 _atom_site_pbe_magmom
Pr  Pr0  1  0.83431859  0.38591647  0.47699836  1  0  2.3713  0  1.551689  0  0  2.24818  0  1.902357  0  0  2.285786  0  1.862211  0  0  1.738924  2.171522  0  2.020464  0
Pr  Pr1  1  0.33445960  0.86299295  0.52293647  1  0  2.371272  0  1.551454  0  0  2.248236  0  1.902253  0  0  2.285845  0  1.862143  0  0  1.738918  2.172194  0  2.019345  0
Pr  Pr2  1  0.66373740  0.81191767  0.13578767  1  0  2.370449  0  1.506179  0  0  2.207813  0  1.932673  0  0  2.290185  0  1.813443  0  0  1.629607  2.175405  0  1.967611  0
Pr  Pr3  1  0.16377611  0.94758195  0.86430000  1  0  2.370782  0  1.505763  0  0  2.208099  0  1.932312  0  0  2.290548  0  1.813035  0  0  1.630022  2.175669  0  1.96726  0
B  B4  1  0.31946049  0.59056272  0.40760241  1  0  1.301729  0  2.64406  0  0  1.136748  0  2.979609  0  0  1.16974  0  2.950232  0  0  0.083684  1.113344  0  2.999615  0
B  B5  1  0.81947723  0.99823454  0.59241231  1  0  1.300205  0  2.64598  0  0  1.137169  0  2.976365  0  0  1.170154  0  2.946968  0  0  0.083079  1.113642  0  2.99671  0
B  B6  1  0.21098862  0.80077273  0.19216387  1  0  1.198585  0  2.903099  0  0  1.04532  0  3.231912  0  0  1.086799  0  3.194149  0  0  0.038024  1.013828  0  3.266053  0
B  B7  1  0.71100503  0.99294163  0.80793345  1  0  1.199785  0  2.901779  0  0  1.046275  0  3.230955  0  0  1.088178  0  3.191839  0  0  0.038387  1.014917  0  3.26481  0
B  B8  1  0.97149978  0.69287472  0.38679046  1  0  1.22107  0  2.775561  0  0  1.056803  0  3.111406  0  0  1.089039  0  3.085538  0  0  0.018324  1.034555  0  3.127581  0
B  B9  1  0.47148467  0.07962183  0.61335386  1  0  1.221035  0  2.775031  0  0  1.056427  0  3.111477  0  0  1.087693  0  3.088301  0  0  0.018691  1.0348  0  3.126091  0
B  B10  1  0.36802224  0.33142558  0.46587258  1  0  1.2073  0  2.83286  0  0  1.051318  0  3.158377  0  0  1.093935  0  3.113689  0  0  0.103548  1.022074  0  3.184505  0
B  B11  1  0.86806791  0.79722954  0.53427626  1  0  1.208405  0  2.831274  0  0  1.053174  0  3.154636  0  0  1.095977  0  3.109356  0  0  0.104127  1.02377  0  3.181314  0
B  B12  1  0.62783316  0.62959322  0.51678573  1  0  1.218866  0  2.776206  0  0  1.057035  0  3.114221  0  0  1.089545  0  3.086748  0  0  0.006917  1.034849  0  3.129788  0
B  B13  1  0.12784705  0.14634579  0.48330489  1  0  1.219225  0  2.774332  0  0  1.058657  0  3.108875  0  0  1.090382  0  3.083627  0  0  0.006933  1.036363  0  3.124754  0
H  H14  1  0.07661079  0.37095610  0.18171062  1  0  0.138991  0  0.956059  0  0  0.154721  0  1.019898  0  0  0.157975  0  1.017638  0  0  0.104401  0.152446  0  1.02133  0
H  H15  1  0.57556521  0.55249243  0.81808247  1  0  0.139337  0  0.956628  0  0  0.155332  0  1.020042  0  0  0.1586  0  1.017744  0  0  0.104697  0.153052  0  1.021488  0
H  H16  1  0.26031574  0.51033550  0.12269000  1  0  0.158104  0  0.92318  0  0  0.179692  0  0.976138  0  0  0.182582  0  0.974943  0  0  0.117731  0.177573  0  0.977142  0
H  H17  1  0.75975652  0.63253630  0.87719788  1  0  0.158394  0  0.922352  0  0  0.180296  0  0.974971  0  0  0.183161  0  0.973789  0  0  0.118075  0.178184  0  0.975969  0
H  H18  1  0.09291925  0.49499299  0.00716796  1  0  0.138677  0  0.941738  0  0  0.160845  0  0.997323  0  0  0.162605  0  0.997439  0  0  0.105345  0.159424  0  0.997498  0
H  H19  1  0.59216428  0.50187787  0.99264859  1  0  0.139363  0  0.941857  0  0  0.161078  0  0.997905  0  0  0.162802  0  0.998064  0  0  0.10536  0.159675  0  0.998053  0
H  H20  1  0.71479010  0.26511019  0.14116684  1  0  0.128438  0  0.950151  0  0  0.148116  0  1.007652  0  0  0.150339  0  1.006735  0  0  0.095035  0.146358  0  1.008585  0
H  H21  1  0.21504151  0.40615424  0.85866195  1  0  0.127517  0  0.950567  0  0  0.147412  0  1.008012  0  0  0.14957  0  1.007181  0  0  0.094817  0.145706  0  1.008885  0
H  H22  1  0.67116270  0.17725228  0.31866533  1  0  0.148133  0  0.967686  0  0  0.158926  0  1.042626  0  0  0.163428  0  1.038664  0  0  0.112636  0.156202  0  1.044053  0
H  H23  1  0.17136705  0.49575337  0.68116013  1  0  0.148186  0  0.967704  0  0  0.158864  0  1.042816  0  0  0.163316  0  1.03894  0  0  0.112651  0.156176  0  1.044213  0
H  H24  1  0.45698164  0.23438374  0.21016615  1  0  0.148911  0  0.94134  0  0  0.169675  0  0.996798  0  0  0.172297  0  0.995679  0  0  0.10694  0.167637  0  0.997877  0
H  H25  1  0.95722122  0.44461257  0.78970788  1  0  0.148891  0  0.941762  0  0  0.16935  0  0.997547  0  0  0.171988  0  0.996409  0  0  0.106898  0.167297  0  0.998639  0
H  H26  1  0.58022586  0.43563441  0.68205600  1  0  0.434572  0  0.807515  0  0  0.420779  0  0.853648  0  0  0.428303  0  0.845608  0  0  0.353109  0.415376  0  0.858772  0
H  H27  1  0.08020423  0.11765536  0.31803726  1  0  0.434061  0  0.807812  0  0  0.42024  0  0.8541  0  0  0.427763  0  0.846094  0  0  0.352989  0.414863  0  0.859172  0
C  C28  1  0.95176386  0.57770607  0.12529724  1  0  0.806865  0  3.797924  0  0  0.771023  0  4.089825  0  0  0.805085  0  4.081587  0  0  0.237594  0.747646  0  4.095366  0
C  C29  1  0.45145871  0.70288751  0.87467261  1  0  0.805629  0  3.79847  0  0  0.768992  0  4.091881  0  0  0.802897  0  4.083896  0  0  0.237109  0.745637  0  4.09743  0
C  C30  1  0.10320932  0.48064545  0.10902796  1  0  -0.456522  0  3.617764  0  0  -0.533536  0  3.846578  0  0  -0.54056  0  3.847822  0  0  -0.231285  -0.528175  0  3.845253  0
C  C31  1  0.60249082  0.58941259  0.89082078  1  0  -0.458084  0  3.618149  0  0  -0.534907  0  3.847125  0  0  -0.541891  0  3.848451  0  0  -0.23198  -0.529537  0  3.845777  0
C  C32  1  0.60875872  0.05214943  0.22300180  1  0  0.799589  0  3.8074  0  0  0.768329  0  4.092152  0  0  0.801859  0  4.084738  0  0  0.235413  0.745159  0  4.097308  0
C  C33  1  0.10861837  0.27508382  0.77690819  1  0  0.798222  0  3.8083  0  0  0.766255  0  4.09414  0  0  0.799828  0  4.086647  0  0  0.234939  0.743083  0  4.099299  0
C  C34  1  0.61506294  0.19203026  0.22187780  1  0  -0.468955  0  3.640551  0  0  -0.544882  0  3.870898  0  0  -0.551471  0  3.870299  0  0  -0.238078  -0.539561  0  3.870602  0
C  C35  1  0.11521639  0.41388472  0.77794349  1  0  -0.467943  0  3.640903  0  0  -0.543489  0  3.871688  0  0  -0.550071  0  3.871278  0  0  -0.238126  -0.538225  0  3.871312  0
O  O36  1  0.43449453  0.46387218  0.42824468  1  0  -0.935436  0  2.193038  0  0  -0.830298  0  2.462567  0  0  -0.855605  0  2.437356  0  0  -0.210084  -0.807912  0  2.478606  0
O  O37  1  0.93451833  0.89216972  0.57177769  1  0  -0.935658  0  2.19352  0  0  -0.831086  0  2.462738  0  0  -0.856308  0  2.437438  0  0  -0.210232  -0.80872  0  2.478848  0
O  O38  1  0.35368144  0.69504473  0.26678968  1  0  -0.970334  0  2.191092  0  0  -0.857386  0  2.458391  0  0  -0.887826  0  2.434546  0  0  -0.269922  -0.83866  0  2.474647  0
O  O39  1  0.85369189  0.96202129  0.73319182  1  0  -0.970482  0  2.192642  0  0  -0.857681  0  2.459666  0  0  -0.888069  0  2.435612  0  0  -0.269907  -0.838979  0  2.475962  0
O  O40  1  0.09746714  0.56537257  0.43260240  1  0  -1.005713  0  2.118021  0  0  -0.899017  0  2.382822  0  0  -0.92385  0  2.364767  0  0  -0.300513  -0.875463  0  2.394253  0
O  O41  1  0.59745874  0.99798769  0.56746762  1  0  -1.004198  0  2.116103  0  0  -0.898799  0  2.382228  0  0  -0.923422  0  2.364242  0  0  -0.300676  -0.87538  0  2.393453  0
O  O42  1  0.28099072  0.90075315  0.07436428  1  0  -1.116417  0  1.884332  0  0  -1.028304  0  2.160431  0  0  -1.065874  0  2.132847  0  0  -0.516947  -1.008115  0  2.178898  0
O  O43  1  0.78103658  0.97502879  0.92576518  1  0  -1.116835  0  1.884034  0  0  -1.028686  0  2.160221  0  0  -1.066291  0  2.132523  0  0  -0.517202  -1.008494  0  2.178645  0
O  O44  1  0.01294525  0.79332694  0.24434214  1  0  -0.93721  0  2.143817  0  0  -0.824707  0  2.404863  0  0  -0.85465  0  2.381645  0  0  -0.247571  -0.806109  0  2.420224  0
O  O45  1  0.51290439  0.03759065  0.75581523  1  0  -0.937917  0  2.144165  0  0  -0.825079  0  2.405315  0  0  -0.855056  0  2.382281  0  0  -0.247658  -0.80658  0  2.420527  0
O  O46  1  0.51818188  0.23163985  0.53404236  1  0  -0.940077  0  2.175857  0  0  -0.831758  0  2.440938  0  0  -0.856168  0  2.415243  0  0  -0.247043  -0.808431  0  2.456565  0
O  O47  1  0.01823386  0.76555242  0.46614915  1  0  -0.939725  0  2.175704  0  0  -0.831918  0  2.440844  0  0  -0.856498  0  2.415009  0  0  -0.246954  -0.808564  0  2.456571  0
O  O48  1  0.75119457  0.65684232  0.39672607  1  0  -1.036949  0  2.177143  0  0  -0.929106  0  2.440103  0  0  -0.956607  0  2.421705  0  0  -0.292709  -0.908655  0  2.452433  0
O  O49  1  0.25117735  0.05350621  0.60337661  1  0  -1.036715  0  2.176623  0  0  -0.928963  0  2.439504  0  0  -0.95633  0  2.421431  0  0  -0.293107  -0.908553  0  2.451632  0
O  O50  1  0.67813113  0.73425688  0.56396172  1  0  -0.932973  0  2.162695  0  0  -0.823242  0  2.423862  0  0  -0.849698  0  2.400884  0  0  -0.248787  -0.799785  0  2.439019  0
O  O51  1  0.17807865  0.29814625  0.43619247  1  0  -0.931859  0  2.162776  0  0  -0.822526  0  2.42414  0  0  -0.848697  0  2.401108  0  0  -0.24826  -0.799041  0  2.439332  0
O  O52  1  0.69075933  0.48500249  0.61938271  1  0  -0.91674  0  1.963259  0  0  -0.848729  0  2.192825  0  0  -0.868233  0  2.171544  0  0  -0.463041  -0.829547  0  2.208083  0
O  O53  1  0.19080071  0.10439316  0.38066671  1  0  -0.916254  0  1.962948  0  0  -0.848549  0  2.19282  0  0  -0.867897  0  2.171681  0  0  -0.462875  -0.829469  0  2.20804  0
O  O54  1  0.40725667  0.64341480  0.49505326  1  0  -0.99946  0  2.106691  0  0  -0.90054  0  2.378554  0  0  -0.924376  0  2.35827  0  0  -0.280262  -0.878217  0  2.391385  0
O  O55  1  0.90724772  0.13847088  0.50491068  1  0  -0.999305  0  2.107383  0  0  -0.900818  0  2.379398  0  0  -0.924497  0  2.359071  0  0  -0.279851  -0.878458  0  2.392392  0
O  O56  1  0.95146073  0.70794705  0.03970885  1  0  -0.794343  0  2.015605  0  0  -0.74033  0  2.265406  0  0  -0.773197  0  2.254202  0  0  -0.361845  -0.722991  0  2.272828  0
O  O57  1  0.45151828  0.74750612  0.96032852  1  0  -0.793526  0  2.014044  0  0  -0.739125  0  2.263948  0  0  -0.772041  0  2.253029  0  0  -0.361548  -0.721728  0  2.271197  0
O  O58  1  0.82363715  0.53056270  0.22319159  1  0  -0.802467  0  1.937069  0  0  -0.758555  0  2.187466  0  0  -0.783819  0  2.172716  0  0  -0.384589  -0.736235  0  2.199014  0
O  O59  1  0.32334357  0.75381910  0.77678503  1  0  -0.801876  0  1.938167  0  0  -0.757706  0  2.188963  0  0  -0.782893  0  2.174325  0  0  -0.384256  -0.735549  0  2.200513  0
O  O60  1  0.71165737  0.03602404  0.13669547  1  0  -0.676298  0  1.91987  0  0  -0.628698  0  2.146433  0  0  -0.655764  0  2.133654  0  0  -0.375405  -0.613297  0  2.154787  0
O  O61  1  0.21136063  0.17264369  0.86328089  1  0  -0.675922  0  1.919695  0  0  -0.628096  0  2.146685  0  0  -0.655169  0  2.133874  0  0  -0.375298  -0.612712  0  2.155055  0
O  O62  1  0.50071377  0.95135117  0.31198958  1  0  -0.803611  0  1.999985  0  0  -0.758122  0  2.255636  0  0  -0.783486  0  2.242362  0  0  -0.419726  -0.734454  0  2.266845  0
O  O63  1  0.00043312  0.26321521  0.68800435  1  0  -0.802083  0  1.999854  0  0  -0.756541  0  2.256067  0  0  -0.781889  0  2.24282  0  0  -0.419191  -0.732827  0  2.267344  0
