# generated using pymatgen
data_MnH9C14NO7
_symmetry_space_group_name_H-M   'P 1'
_cell_length_a   7.40538924
_cell_length_b   10.06006581
_cell_length_c   10.75874786
_cell_angle_alpha   64.06766922
_cell_angle_beta   68.95685279
_cell_angle_gamma   70.03874536
_symmetry_Int_Tables_number   1
_chemical_formula_structural   MnH9C14NO7
_chemical_formula_sum   'Mn2 H18 C28 N2 O14'
_cell_volume   656.30979188
_cell_formula_units_Z   2
loop_
 _symmetry_equiv_pos_site_id
 _symmetry_equiv_pos_as_xyz
  1  'x, y, z'
loop_
 _atom_site_type_symbol
 _atom_site_label
 _atom_site_symmetry_multiplicity
 _atom_site_fract_x
 _atom_site_fract_y
 _atom_site_fract_z
 _atom_site_occupancy
 _atom_site_hle17_ddec_charge
 _atom_site_hle17_ddec_spin_density
 _atom_site_hle17_ddec_sum_bond_order
 _atom_site_hle17_magmom
 _atom_site_hse06_10hf_ddec_charge
 _atom_site_hse06_10hf_ddec_spin_density
 _atom_site_hse06_10hf_ddec_sum_bond_order
 _atom_site_hse06_10hf_magmom
 _atom_site_hse06_ddec_charge
 _atom_site_hse06_ddec_spin_density
 _atom_site_hse06_ddec_sum_bond_order
 _atom_site_hse06_magmom
 _atom_site_pbe_cm5_charge
 _atom_site_pbe_ddec_charge
 _atom_site_pbe_ddec_spin_density
 _atom_site_pbe_ddec_sum_bond_order
 _atom_site_pbe_magmom
Mn  Mn0  1  0.62534325  0.08993425  0.06680131  1  1.244514  4.776396  1.783417  4.66  1.116646  4.665936  2.285724  4.482  1.163221  4.7415  2.209274  4.58  0.628991  1.084021  4.566809  2.343908  4.361
Mn  Mn1  1  0.37465625  0.91006552  0.93319686  1  1.244489  -4.776389  1.78348  -4.66  1.116634  -4.665913  2.285812  -4.482  1.163209  -4.741484  2.209352  -4.58  0.629  1.084022  -4.566755  2.343975  -4.361
H  H2  1  0.75582499  0.13652161  0.77580340  1  0.420632  0.000188  0.883881  0.001  0.390898  0.000672  0.946537  0.002  0.401116  0.00051  0.931644  0.002  0.288989  0.384279  0.000695  0.956057  0.002
H  H3  1  0.24417419  0.86347367  0.22419766  1  0.420572  -0.000186  0.883959  -0.001  0.390846  -0.000673  0.946599  -0.002  0.401062  -0.000511  0.931705  -0.002  0.288973  0.384227  -0.000695  0.956119  -0.002
H  H4  1  0.92598985  0.03774017  0.85680954  1  0.438077  0.000574  0.857244  0.001  0.409463  0.001294  0.917313  0.002  0.419043  0.001109  0.903432  0.002  0.305164  0.402953  0.001392  0.9267  0.002
H  H5  1  0.07400923  0.96226080  0.14319101  1  0.438077  -0.000571  0.857243  -0.001  0.409461  -0.001294  0.917317  -0.002  0.419041  -0.00111  0.903436  -0.002  0.305162  0.402954  -0.001393  0.9267  -0.002
H  H6  1  0.65422701  0.56150853  0.04565859  1  0.127832  0.000349  0.949661  0.0  0.132083  0.000419  1.019535  0.0  0.13693  0.000396  1.015411  0.0  0.115582  0.128325  0.000446  1.022618  0.0
H  H7  1  0.34577245  0.43849126  0.95434051  1  0.127813  -0.000334  0.949662  0.0  0.132069  -0.000419  1.019525  0.0  0.136914  -0.000397  1.015401  0.0  0.115574  0.128311  -0.000447  1.022609  0.0
H  H8  1  0.99925754  0.62520656  0.25535112  1  0.130665  4.6e-05  0.936422  0.0  0.136263  1e-06  1.004251  0.0  0.140279  3e-05  1.001573  0.0  0.117794  0.133767  6e-06  1.005049  0.0
H  H9  1  0.00074536  0.37479094  0.74464908  1  0.130647  -4.9e-05  0.936411  0.0  0.136245  -2e-06  1.004241  0.0  0.140257  -3e-05  1.001566  0.0  0.117797  0.13375  -6e-06  1.005039  0.0
H  H10  1  0.06503740  0.17916655  0.25761059  1  0.131582  -0.000269  0.934901  0.0  0.13622  -0.000175  1.003334  0.0  0.140738  -0.000245  0.999668  0.0  0.119516  0.133023  -9.6e-05  1.005505  0.0
H  H11  1  0.93497043  0.82083426  0.74238708  1  0.131595  0.000239  0.934869  0.0  0.136236  0.000175  1.003295  0.0  0.140756  0.000245  0.999625  0.0  0.119513  0.133038  9.6e-05  1.005465  0.0
H  H12  1  0.00131536  0.16759845  0.49977227  1  0.112855  2.4e-05  0.950177  0.0  0.119544  -0.000187  1.013847  0.0  0.123461  -7e-05  1.009663  0.0  0.129778  0.116143  -0.000359  1.017857  0.0
H  H13  1  0.99868230  0.83240252  0.50022768  1  0.112887  -1.1e-05  0.950213  0.0  0.119559  0.000187  1.013886  0.0  0.123482  6.9e-05  1.009697  0.0  0.129785  0.116163  0.000359  1.01789  0.0
H  H14  1  0.23494632  0.02616904  0.65981675  1  0.137242  0.000427  0.98321  0.0  0.139364  0.00044  1.047218  0.0  0.144833  0.00045  1.044167  0.0  0.12002  0.134375  0.000423  1.050766  0.0
H  H15  1  0.76504952  0.97383314  0.34018498  1  0.137258  -0.000439  0.983185  0.0  0.139378  -0.00044  1.047207  0.0  0.144845  -0.00045  1.044156  0.0  0.120038  0.134393  -0.000423  1.050754  0.0
H  H16  1  0.57840402  0.36832711  0.40163585  1  0.12241  9.6e-05  0.953211  0.0  0.127769  -1.3e-05  1.0169  0.0  0.131671  5e-06  1.015872  0.0  0.113806  0.124357  -2.7e-05  1.018646  0.0
H  H17  1  0.42159476  0.63167499  0.59836429  1  0.122396  -8.2e-05  0.95323  0.0  0.127748  1.3e-05  1.016931  0.0  0.13165  -5e-06  1.015904  0.0  0.113803  0.124337  2.8e-05  1.01867  0.0
H  H18  1  0.35091228  0.48457071  0.23512999  1  0.124934  3.5e-05  0.912985  0.0  0.131989  0.000121  0.97489  0.0  0.136498  0.000132  0.970132  0.0  0.140109  0.127428  0.000156  0.980108  0.0
H  H19  1  0.64908176  0.51543265  0.76487258  1  0.125043  -4.4e-05  0.912903  0.0  0.132038  -0.000121  0.97488  0.0  0.136545  -0.000132  0.970122  0.0  0.140114  0.127478  -0.000156  0.98009  0.0
C  C20  1  0.78455934  0.25852853  0.11286544  1  0.628186  0.00425  3.927436  0.002  0.577268  0.007928  4.218408  0.005  0.609344  0.006654  4.216745  0.004  0.207824  0.55604  0.008952  4.216672  0.005
C  C21  1  0.21544418  0.74147232  0.88713227  1  0.628219  -0.004252  3.927502  -0.002  0.57731  -0.007927  4.218465  -0.005  0.609386  -0.006655  4.216803  -0.004  0.207855  0.556076  -0.008953  4.216728  -0.005
C  C22  1  0.84898419  0.35933874  0.15011693  1  -0.058236  -0.001193  3.777414  -0.001  -0.030851  -0.001054  4.011264  -0.001  -0.039756  -0.00114  4.035507  -0.001  -0.013975  -0.025671  -0.000671  3.995343  -0.001
C  C23  1  0.15101912  0.64066320  0.84987851  1  -0.058197  0.001152  3.777373  0.001  -0.030825  0.001056  4.011241  0.001  -0.03973  0.001133  4.035485  0.001  -0.01399  -0.025646  0.000671  3.995318  0.001
C  C24  1  0.76368620  0.51424796  0.10837072  1  -0.068944  -7e-05  3.67545  0.0  -0.106135  0.000153  3.921608  0.0  -0.104191  0.00046  3.940798  0.001  -0.066935  -0.107845  -0.000773  3.910353  0.0
C  C25  1  0.23631591  0.48575289  0.89162639  1  -0.068918  5.2e-05  3.675417  0.0  -0.106094  -0.000155  3.921576  0.0  -0.10415  -0.000453  3.940769  -0.001  -0.06691  -0.107807  0.000771  3.910322  0.0
C  C26  1  0.81968694  0.60926842  0.14479964  1  -0.050404  3.5e-05  3.749538  0.0  -0.023435  -0.000523  3.981392  0.0  -0.032015  -0.000414  4.00436  0.0  -0.012387  -0.018964  -0.000441  3.967161  0.0
C  C27  1  0.18031662  0.39073241  0.85519714  1  -0.050477  -4.4e-05  3.749617  0.0  -0.023527  0.000523  3.981488  0.0  -0.03211  0.000408  4.004462  0.0  -0.012432  -0.019055  0.000442  3.967259  0.0
C  C28  1  0.73133825  0.77569437  0.09321456  1  0.671322  -0.004066  3.895626  -0.006  0.619403  -0.004018  4.181916  -0.006  0.653929  -0.002887  4.178146  -0.005  0.230843  0.596414  -0.005274  4.181334  -0.006
C  C29  1  0.26866262  0.22430542  0.90678514  1  0.671293  0.004093  3.895631  0.006  0.619395  0.004018  4.181888  0.006  0.653919  0.002886  4.178124  0.005  0.230863  0.596404  0.005274  4.181308  0.006
C  C30  1  0.95839779  0.54956735  0.22684091  1  -0.11988  -0.000523  3.661406  0.0  -0.158043  -0.00082  3.915337  -0.001  -0.156602  -2.7e-05  3.933178  0.0  -0.068767  -0.157529  -0.002768  3.90158  -0.002
C  C31  1  0.04159688  0.45043371  0.77316155  1  -0.119874  0.000526  3.661427  0.0  -0.15803  0.000819  3.915341  0.001  -0.156589  3.1e-05  3.933187  0.0  -0.068797  -0.157518  0.002768  3.901585  0.002
C  C32  1  0.04043882  0.39424785  0.26891987  1  0.149095  0.000308  3.745802  0.0  0.147324  0.000157  4.000474  0.0  0.147118  8.2e-05  4.024122  0.0  0.096013  0.14807  0.000308  3.983377  0.001
C  C33  1  0.95955880  0.60575315  0.73108101  1  0.149115  -0.000322  3.745872  0.0  0.147371  -0.000157  4.000506  0.0  0.147165  -8.7e-05  4.02415  0.0  0.096062  0.148115  -0.000308  3.983409  -0.001
C  C34  1  0.99101114  0.29864082  0.22945388  1  -0.110677  0.000284  3.65386  0.0  -0.150402  0.000315  3.912921  0.0  -0.148755  0.000664  3.929914  0.001  -0.066009  -0.150103  -0.001689  3.900024  -0.001
C  C35  1  0.00899093  0.70136006  0.77054416  1  -0.110702  -0.000164  3.653836  0.0  -0.150432  -0.000317  3.912889  0.0  -0.148783  -0.000659  3.929879  -0.001  -0.065998  -0.150132  0.001688  3.899989  0.001
C  C36  1  0.13836469  0.20034277  0.47857031  1  0.109461  -0.001857  3.553408  -0.001  0.065526  -0.005766  3.806481  -0.004  0.076549  -0.001717  3.814918  -0.001  0.064064  0.055353  -0.012878  3.80548  -0.009
C  C37  1  0.86164039  0.79965238  0.52142758  1  0.109367  0.001787  3.553559  0.001  0.065479  0.005764  3.806592  0.004  0.076497  0.001718  3.815028  0.001  0.064061  0.055296  0.012872  3.805609  0.009
C  C38  1  0.26552930  0.12673164  0.56683032  1  -0.091644  -0.001454  3.665202  -0.001  -0.116883  -0.003545  3.925217  -0.003  -0.120779  -0.001988  3.936596  -0.002  -0.065505  -0.115819  -0.004605  3.923067  -0.003
C  C39  1  0.73447253  0.87326471  0.43316875  1  -0.091556  0.001525  3.665155  0.001  -0.116824  0.003544  3.925214  0.003  -0.120729  0.001985  3.93661  0.002  -0.065503  -0.115761  0.004603  3.923067  0.003
C  C40  1  0.42810047  0.18475000  0.54071688  1  0.032103  0.001058  3.650719  0.001  0.042155  -0.005053  3.894129  -0.003  0.047266  0.000806  3.905148  0.001  0.021308  0.034543  -0.015904  3.891174  -0.01
C  C41  1  0.57190119  0.81524644  0.45928591  1  0.032042  -0.001061  3.650778  -0.001  0.042079  0.005048  3.894233  0.003  0.047194  -0.000805  3.905242  -0.001  0.021291  0.034475  0.015889  3.891281  0.01
C  C42  1  0.45576881  0.31884157  0.42333679  1  -0.107753  -0.003112  3.67714  -0.003  -0.132371  -0.005464  3.934739  -0.004  -0.137251  -0.003274  3.948792  -0.003  -0.069864  -0.130625  -0.007773  3.930512  -0.005
C  C43  1  0.54422570  0.68115959  0.57666939  1  -0.107672  0.003063  3.677217  0.003  -0.132265  0.005463  3.934804  0.004  -0.13715  0.00327  3.948863  0.003  -0.069827  -0.13052  0.007771  3.930579  0.005
C  C44  1  0.33083952  0.38590590  0.33258677  1  0.116082  0.001929  3.5403  0.002  0.071633  0.000157  3.795705  0.001  0.083695  0.001579  3.802711  0.002  0.074317  0.060686  -0.003948  3.796297  -0.001
C  C45  1  0.66915797  0.61409516  0.66741690  1  0.115972  -0.001871  3.540359  -0.002  0.071557  -0.00016  3.795787  -0.001  0.083621  -0.001575  3.802791  -0.002  0.074336  0.060611  0.003943  3.796381  0.001
C  C46  1  0.56605358  0.10441402  0.63843628  1  0.642071  -0.016358  3.915013  -0.015  0.585409  -0.027097  4.223454  -0.022  0.622365  -0.017928  4.210172  -0.016  0.206061  0.559998  -0.034801  4.232922  -0.027
C  C47  1  0.43394701  0.89558127  0.36156538  1  0.641959  0.016347  3.915271  0.015  0.585282  0.027093  4.223755  0.022  0.622239  0.017926  4.21048  0.016  0.205993  0.55987  0.034793  4.233237  0.027
N  N48  1  0.17394742  0.32655964  0.36121619  1  -0.024881  -0.003202  3.549063  -0.003  0.062051  -0.008942  3.754549  -0.009  0.052711  -0.003784  3.776284  -0.004  -0.191427  0.065998  -0.015478  3.742488  -0.016
N  N49  1  0.82605307  0.67344133  0.63878497  1  -0.024897  0.003182  3.549211  0.003  0.062026  0.00894  3.75467  0.009  0.052686  0.003781  3.776405  0.004  -0.191503  0.065977  0.015469  3.742609  0.016
O  O50  1  0.87281374  0.11908274  0.14309124  1  -0.649725  0.02119  2.036259  0.014  -0.579171  0.028519  2.265619  0.02  -0.607112  0.025163  2.25628  0.017  -0.298304  -0.558251  0.031854  2.272056  0.023
O  O51  1  0.12718592  0.88091597  0.85691013  1  -0.649706  -0.021197  2.036331  -0.014  -0.579182  -0.028521  2.265732  -0.02  -0.607124  -0.025164  2.256393  -0.017  -0.29831  -0.558258  -0.031856  2.272165  -0.023
O  O52  1  0.63795980  0.31293615  0.05641536  1  -0.625443  0.027115  1.95283  0.018  -0.570599  0.032218  2.206332  0.021  -0.600798  0.029023  2.197212  0.018  -0.303845  -0.546215  0.036787  2.210005  0.026
O  O53  1  0.36204247  0.68706364  0.94358495  1  -0.62549  -0.027113  1.952819  -0.018  -0.570644  -0.03222  2.206316  -0.021  -0.600844  -0.029023  2.197195  -0.018  -0.303872  -0.546264  -0.036788  2.209986  -0.026
O  O54  1  0.62518985  0.82484924  0.00573053  1  -0.667511  -0.032602  2.134884  -0.017  -0.605603  -0.036884  2.42772  -0.017  -0.635714  -0.033613  2.409685  -0.014  -0.30822  -0.582525  -0.041583  2.438978  -0.023
O  O55  1  0.37480579  0.17514838  0.99427130  1  -0.667471  0.032587  2.134907  0.017  -0.605572  0.036885  2.427744  0.017  -0.635681  0.033612  2.40971  0.014  -0.308209  -0.582498  0.041582  2.439017  0.023
O  O56  1  0.80998942  0.12386864  0.85473553  1  -0.846  0.033937  1.875614  0.02  -0.788235  0.040766  2.07962  0.023  -0.814142  0.038224  2.04597  0.021  -0.571506  -0.76631  0.042548  2.101396  0.025
O  O57  1  0.19001148  0.87613113  0.14526325  1  -0.845948  -0.033944  1.875677  -0.02  -0.788174  -0.040763  2.079678  -0.023  -0.814087  -0.038223  2.046039  -0.021  -0.571481  -0.76625  -0.042543  2.101437  -0.025
O  O58  1  0.76977800  0.85875443  0.13758679  1  -0.640355  0.028058  2.07311  0.014  -0.573332  0.027217  2.334055  0.009  -0.606981  0.027152  2.325181  0.009  -0.30006  -0.546199  0.026561  2.339019  0.008
O  O59  1  0.23022237  0.14124758  0.86241024  1  -0.640306  -0.028068  2.073066  -0.014  -0.573296  -0.027216  2.334011  -0.009  -0.606942  -0.027151  2.325138  -0.009  -0.300053  -0.546162  -0.026557  2.338973  -0.008
O  O60  1  0.55281485  0.96846842  0.72283485  1  -0.659714  -0.018892  2.044833  -0.002  -0.604347  -0.021204  2.3232  0.002  -0.634624  -0.021351  2.30949  0.001  -0.322628  -0.581772  -0.024058  2.332113  -0.002
O  O61  1  0.44718100  0.03152811  0.27716924  1  -0.659688  0.018896  2.044891  0.002  -0.604295  0.021202  2.323246  -0.002  -0.634553  0.021348  2.309496  -0.001  -0.322576  -0.581719  0.024058  2.332167  0.002
O  O62  1  0.68426552  0.17586138  0.63006457  1  -0.617892  -0.013513  1.928753  -0.015  -0.571601  -0.025193  2.149639  -0.027  -0.592043  -0.016909  2.136291  -0.019  -0.320757  -0.557953  -0.032757  2.159052  -0.035
O  O63  1  0.31574202  0.82413027  0.36993143  1  -0.617846  0.013503  1.928839  0.015  -0.571552  0.025189  2.14973  0.027  -0.591999  0.016905  2.136385  0.019  -0.32075  -0.557902  0.032748  2.159146  0.035
