# generated using pymatgen
data_Cu2H20C15N2O7
_symmetry_space_group_name_H-M   'P 1'
_cell_length_a   7.02077610
_cell_length_b   9.33389556
_cell_length_c   15.36669206
_cell_angle_alpha   104.53386707
_cell_angle_beta   89.99667317
_cell_angle_gamma   112.09989223
_symmetry_Int_Tables_number   1
_chemical_formula_structural   Cu2H20C15N2O7
_chemical_formula_sum   'Cu4 H40 C30 N4 O14'
_cell_volume   898.14398004
_cell_formula_units_Z   2
loop_
 _symmetry_equiv_pos_site_id
 _symmetry_equiv_pos_as_xyz
  1  'x, y, z'
loop_
 _atom_site_type_symbol
 _atom_site_label
 _atom_site_symmetry_multiplicity
 _atom_site_fract_x
 _atom_site_fract_y
 _atom_site_fract_z
 _atom_site_occupancy
 _atom_site_hle17_ddec_charge
 _atom_site_hle17_ddec_spin_density
 _atom_site_hle17_ddec_sum_bond_order
 _atom_site_hle17_magmom
 _atom_site_hse06_10hf_ddec_charge
 _atom_site_hse06_10hf_ddec_spin_density
 _atom_site_hse06_10hf_ddec_sum_bond_order
 _atom_site_hse06_10hf_magmom
 _atom_site_hse06_ddec_charge
 _atom_site_hse06_ddec_spin_density
 _atom_site_hse06_ddec_sum_bond_order
 _atom_site_hse06_magmom
 _atom_site_pbe_cm5_charge
 _atom_site_pbe_ddec_charge
 _atom_site_pbe_ddec_spin_density
 _atom_site_pbe_ddec_sum_bond_order
 _atom_site_pbe_magmom
Cu  Cu0  1  0.39267905  0.90191282  0.90313054  1  0.869362  0.556245  1.733544  0.403  0.852038  0.716154  2.122502  0.567  0.956836  0.82947  2.043329  0.676  0.696069  0.780791  0.558743  2.18312  0.437
Cu  Cu1  1  0.49065576  0.09819593  0.59684374  1  0.870199  -0.555426  1.733407  -0.402  0.851974  -0.716584  2.122989  -0.567  0.957652  -0.830621  2.043162  -0.677  0.69635  0.781472  -0.558393  2.182511  -0.436
Cu  Cu2  1  0.60731770  0.09828649  0.09698692  1  0.870287  -0.555464  1.733627  -0.402  0.85286  -0.716131  2.122426  -0.567  0.957424  -0.829682  2.043762  -0.676  0.696782  0.782115  -0.557862  2.182475  -0.436
Cu  Cu3  1  0.50911048  0.90167342  0.40312205  1  0.870769  0.554693  1.734147  0.401  0.852605  0.716605  2.123701  0.567  0.957982  0.830846  2.044147  0.677  0.696908  0.782475  0.557519  2.182837  0.436
H  H4  1  0.39211547  0.71422667  0.72077249  1  0.079138  0.000667  0.983988  0.001  0.089004  0.00075  1.04745  0.001  0.090977  0.000593  1.045895  0.001  0.115681  0.087343  0.000714  1.0486  0.001
H  H5  1  0.67847435  0.28579246  0.77911329  1  0.080009  -0.000649  0.983624  -0.001  0.089556  -0.000729  1.047184  -0.001  0.091568  -0.000583  1.045515  -0.001  0.115847  0.087773  -0.000715  1.048456  -0.001
H  H6  1  0.60801392  0.28602423  0.27934425  1  0.079601  -0.000666  0.983639  -0.001  0.08924  -0.000748  1.047322  -0.001  0.091223  -0.000592  1.045724  -0.001  0.115902  0.087552  -0.000713  1.048488  -0.001
H  H7  1  0.32139409  0.71395655  0.22080646  1  0.080181  0.000648  0.983343  0.001  0.089571  0.000731  1.047119  0.001  0.091595  0.000584  1.045434  0.001  0.115952  0.087778  0.000716  1.048377  0.001
H  H8  1  0.26524377  0.41871511  0.63702714  1  0.108653  0.000351  0.962437  0.0  0.119451  0.000379  1.02205  0.0  0.121612  0.000293  1.022447  0.0  0.105457  0.117685  0.000394  1.022102  0.0
H  H9  1  0.84723735  0.58129818  0.86291259  1  0.108152  -0.000363  0.963589  0.0  0.118935  -0.000398  1.023199  0.0  0.121117  -0.00031  1.023586  0.0  0.10533  0.117252  -0.000394  1.023209  0.0
H  H10  1  0.73490557  0.58150448  0.36307514  1  0.108158  -0.000351  0.962505  0.0  0.118974  -0.000379  1.022143  0.0  0.121117  -0.000293  1.02254  0.0  0.1052  0.117223  -0.000393  1.022185  0.0
H  H11  1  0.15281941  0.41852550  0.13704113  1  0.107587  0.000362  0.963478  0.0  0.118645  0.000398  1.022825  0.0  0.120812  0.00031  1.023209  0.0  0.105289  0.116973  0.000394  1.022839  0.0
H  H12  1  0.14443490  0.21687100  0.72660121  1  0.118843  0.000134  0.941645  0.0  0.130547  -5.1e-05  0.9961  0.0  0.134768  -2e-05  0.992172  0.0  0.113787  0.127236  -6.6e-05  0.999533  0.0
H  H13  1  0.92761497  0.78321387  0.77339398  1  0.118377  -0.000149  0.942388  0.0  0.130381  4.2e-05  0.996741  0.0  0.134483  1.8e-05  0.992908  0.0  0.113833  0.127198  6.3e-05  0.999884  0.0
H  H14  1  0.85578361  0.78338437  0.27347520  1  0.119417  -0.000131  0.94127  0.0  0.131581  5.3e-05  0.995006  0.0  0.135714  2.1e-05  0.991237  0.0  0.114311  0.128246  6.8e-05  0.998423  0.0
H  H15  1  0.07249736  0.21654151  0.22657032  1  0.119229  0.000146  0.94102  0.0  0.13128  -4.4e-05  0.995042  0.0  0.135373  -2e-05  0.991285  0.0  0.11433  0.128111  -6.5e-05  0.998112  0.0
H  H16  1  0.13380619  0.31499842  0.89357285  1  0.113084  0.000345  0.968229  0.0  0.122976  0.00041  1.028457  0.001  0.126552  0.000322  1.026746  0.0  0.105898  0.11995  0.000416  1.03037  0.0
H  H17  1  0.81857498  0.68518411  0.60648850  1  0.113297  -0.000326  0.968873  0.0  0.123297  -0.000404  1.028772  0.0  0.126928  -0.000321  1.027003  0.0  0.106205  0.120482  -0.000415  1.030417  0.0
H  H18  1  0.86618633  0.68532057  0.10650922  1  0.115018  -0.000351  0.967801  0.0  0.124924  -0.000412  1.0276  -0.001  0.128545  -0.000323  1.025822  0.0  0.106225  0.121871  -0.000415  1.029555  0.0
H  H19  1  0.18127440  0.31455814  0.39348490  1  0.114315  0.000328  0.968678  0.0  0.124418  0.000404  1.028262  0.0  0.12807  0.000321  1.026457  0.0  0.10626  0.121594  0.000415  1.029925  0.0
H  H20  1  0.17136468  0.52685871  0.02177603  1  0.094341  -0.000477  0.951384  -0.001  0.114437  -0.000393  1.011231  0.0  0.115508  -0.000354  1.011503  0.0  0.101193  0.113704  -0.000341  1.011074  0.0
H  H21  1  0.64430458  0.47316638  0.47818612  1  0.094615  0.000495  0.951906  0.001  0.114555  0.000417  1.011827  0.0  0.115684  0.000372  1.012085  0.0  0.101575  0.11416  0.000342  1.011161  0.0
H  H22  1  0.82870577  0.47329712  0.97830563  1  0.094832  0.000473  0.951063  0.001  0.115177  0.00039  1.010537  0.0  0.116259  0.000352  1.010815  0.0  0.101622  0.114479  0.000339  1.010332  0.0
H  H23  1  0.35558182  0.52673533  0.52177476  1  0.09474  -0.000492  0.95211  -0.001  0.114721  -0.000414  1.011657  0.0  0.115796  -0.00037  1.011963  0.0  0.1018  0.114371  -0.000339  1.010946  0.0
H  H24  1  0.12799100  0.69113125  0.99989024  1  0.102922  -0.000427  0.942799  0.0  0.117391  -0.00035  1.011633  0.0  0.118014  -0.000335  1.010874  0.0  0.102227  0.11665  -0.000278  1.012468  0.0
H  H25  1  0.43669085  0.30887748  0.50009615  1  0.103078  0.000395  0.943406  0.0  0.117351  0.000302  1.012516  0.0  0.118012  0.000301  1.011733  0.0  0.102293  0.116595  0.00028  1.013201  0.0
H  H26  1  0.87164446  0.30882408  0.00017566  1  0.101374  0.000425  0.9428  0.0  0.116008  0.000351  1.011832  0.0  0.11663  0.000336  1.011029  0.0  0.101811  0.115239  0.000278  1.012744  0.0
H  H27  1  0.56305678  0.69112269  0.49987690  1  0.102284  -0.00039  0.943136  0.0  0.116442  -0.000301  1.012413  0.0  0.117082  -0.000301  1.011588  0.0  0.102023  0.115701  -0.000279  1.013107  0.0
H  H28  1  0.42270488  0.77795920  0.11452848  1  0.050863  0.000296  0.97299  0.0  0.066744  0.000501  1.035492  0.0  0.063916  0.000513  1.037301  0.0  0.098071  0.069369  0.00042  1.033492  0.0
H  H29  1  0.64454723  0.22206214  0.38547380  1  0.051267  -0.000302  0.972779  0.0  0.067111  -0.00054  1.03559  0.0  0.064172  -0.000542  1.037481  0.0  0.098094  0.06952  -0.000423  1.033781  0.0
H  H30  1  0.57666623  0.22246438  0.88558360  1  0.050358  -0.000263  0.972364  0.0  0.065895  -0.000478  1.035575  0.0  0.06302  -0.000499  1.03741  0.0  0.097817  0.068588  -0.000394  1.033518  0.0
H  H31  1  0.35473980  0.77766067  0.61447457  1  0.050808  0.000261  0.972469  0.0  0.06688  0.000512  1.035237  0.0  0.063881  0.000526  1.037193  0.0  0.098008  0.069343  0.000396  1.033388  0.0
H  H32  1  0.55010434  0.67894193  0.03652398  1  0.041784  -0.00018  0.936876  0.0  0.060425  -0.000139  0.996736  0.0  0.059927  -6.9e-05  0.996615  0.0  0.091823  0.059589  -0.000156  0.998907  0.0
H  H33  1  0.87104019  0.32120743  0.46344590  1  0.041498  0.000291  0.938075  0.0  0.060044  0.000225  0.998448  0.0  0.059642  0.000131  0.998066  0.0  0.091789  0.059679  0.000158  0.999224  0.0
H  H34  1  0.44974912  0.32153195  0.96387156  1  0.040096  0.000188  0.937932  0.0  0.05896  0.000148  0.998014  0.0  0.058479  8e-05  0.997869  0.0  0.091277  0.058118  0.00016  1.000179  0.0
H  H35  1  0.12851474  0.67848144  0.53630865  1  0.04109  -0.000292  0.93767  0.0  0.059585  -0.000229  0.998504  0.0  0.059207  -0.000137  0.998097  0.0  0.091474  0.059198  -0.000157  0.999315  0.0
H  H36  1  0.98528251  0.92307580  0.03803759  1  0.40214  -5e-06  0.859101  0.0  0.384609  -2e-06  0.921057  0.0  0.39332  5e-06  0.910364  0.0  0.30183  0.378033  -2.1e-05  0.929329  0.0
H  H37  1  0.06183917  0.07738375  0.46138772  1  0.40203  3e-06  0.858389  0.0  0.38465  5e-06  0.920061  0.0  0.393324  -3e-06  0.909433  0.0  0.302102  0.378144  2.1e-05  0.92822  0.0
H  H38  1  0.01771632  0.07893646  0.95911628  1  0.403969  2e-06  0.853134  0.0  0.387397  -4e-06  0.913222  0.0  0.395956  -1.2e-05  0.902734  0.0  0.304158  0.380983  1.7e-05  0.921266  0.0
H  H39  1  0.93862512  0.92151771  0.54024196  1  0.40416  -1e-06  0.852724  0.0  0.387501  -2e-06  0.912947  0.0  0.396048  7e-06  0.902514  0.0  0.30396  0.381119  -1.8e-05  0.92094  0.0
H  H40  1  0.76640871  0.85048270  0.99019824  1  0.400711  -2e-05  0.911749  0.0  0.372212  -3.5e-05  0.974898  0.0  0.383948  -2.8e-05  0.957719  0.0  0.279487  0.363965  -9e-06  0.986902  0.0
H  H41  1  0.91515190  0.14913459  0.50973015  1  0.401015  -3e-06  0.912039  0.0  0.372472  1.8e-05  0.974864  0.0  0.384204  1.6e-05  0.957716  0.0  0.279399  0.364017  6e-06  0.987233  0.0
H  H42  1  0.23399155  0.14767810  0.00959577  1  0.400865  9e-06  0.912734  0.0  0.372154  2.5e-05  0.975633  0.0  0.383922  2e-05  0.958436  0.0  0.279266  0.363885  -0.0  0.987653  0.0
H  H43  1  0.08600018  0.85195368  0.49037752  1  0.401311  1e-05  0.911812  0.0  0.372496  -1.2e-05  0.974954  0.0  0.384244  -1e-05  0.957795  0.0  0.279474  0.364053  0.0  0.987292  0.0
C  C44  1  0.32575554  0.61951421  0.75444959  1  0.127532  -0.005609  3.713807  -0.006  0.098421  -0.00165  3.968195  -0.003  0.107764  -0.002499  3.98926  -0.004  0.044224  0.092053  -0.001198  3.954729  -0.002
C  C45  1  0.70667854  0.38049843  0.74546559  1  0.125008  0.005882  3.714989  0.006  0.09606  0.001835  3.969201  0.003  0.105551  0.002623  3.990174  0.004  0.043626  0.090235  0.001194  3.955167  0.002
C  C46  1  0.67435163  0.38071505  0.24566260  1  0.126392  0.005624  3.712836  0.006  0.097482  0.001656  3.967313  0.003  0.106878  0.002505  3.988301  0.004  0.043589  0.0911  0.001201  3.953869  0.002
C  C47  1  0.29324634  0.61927233  0.25447239  1  0.124747  -0.005867  3.715376  -0.006  0.095941  -0.001835  3.969672  -0.003  0.105448  -0.002623  3.99058  -0.004  0.04349  0.090106  -0.00119  3.955664  -0.002
C  C48  1  0.26007876  0.45741389  0.70960037  1  -0.123694  0.006969  3.720744  0.007  -0.139161  0.003668  3.973404  0.004  -0.148283  0.003608  3.996518  0.004  -0.087805  -0.133125  0.003097  3.958678  0.004
C  C49  1  0.80303353  0.54261152  0.79036648  1  -0.122285  -0.006975  3.723209  -0.007  -0.137463  -0.003649  3.975514  -0.004  -0.146507  -0.003608  3.998428  -0.004  -0.087611  -0.131537  -0.003089  3.960339  -0.004
C  C50  1  0.74009873  0.54283921  0.29049132  1  -0.12256  -0.006957  3.72077  -0.007  -0.137967  -0.003649  3.973407  -0.004  -0.147079  -0.003592  3.996503  -0.004  -0.087409  -0.131939  -0.003079  3.958643  -0.004
C  C51  1  0.19694681  0.45715335  0.20958428  1  -0.122  0.006941  3.723606  0.007  -0.137498  0.003636  3.975998  0.004  -0.146554  0.003598  3.998922  0.004  -0.087416  -0.131568  0.003077  3.960798  0.004
C  C52  1  0.18938905  0.34457002  0.75916879  1  0.028709  -0.006853  3.674314  -0.007  0.010377  -0.003137  3.918957  -0.003  0.017411  -0.003298  3.933067  -0.003  -0.055985  0.004881  -0.002857  3.910464  -0.003
C  C53  1  0.84482659  0.65549045  0.74086353  1  0.028047  0.00702  3.677287  0.007  0.008991  0.003276  3.922318  0.003  0.016237  0.003391  3.936324  0.004  -0.056241  0.003997  0.002854  3.91339  0.003
C  C54  1  0.81076903  0.65566990  0.24092483  1  0.027582  0.006862  3.674599  0.007  0.009017  0.003131  3.919179  0.003  0.016124  0.003292  3.933294  0.003  -0.056388  0.003508  0.002849  3.910687  0.003
C  C55  1  0.15523661  0.34427207  0.25909339  1  0.028402  -0.006989  3.676142  -0.007  0.009576  -0.00327  3.921064  -0.003  0.01682  -0.003386  3.935078  -0.004  -0.056068  0.004567  -0.002845  3.912125  -0.003
C  C56  1  0.18452981  0.39884722  0.85194628  1  -0.173662  0.007745  3.69256  0.008  -0.186886  0.004499  3.930745  0.005  -0.19637  0.004317  3.951134  0.005  -0.084864  -0.180773  0.003853  3.918118  0.005
C  C57  1  0.78547401  0.60132524  0.64809513  1  -0.17304  -0.00775  3.692572  -0.008  -0.185822  -0.004559  3.93119  -0.005  -0.195233  -0.00437  3.951264  -0.005  -0.084659  -0.179877  -0.003848  3.918208  -0.005
C  C58  1  0.81555529  0.60141764  0.14811660  1  -0.173608  -0.007745  3.690194  -0.008  -0.186517  -0.004492  3.928343  -0.005  -0.196044  -0.004314  3.948679  -0.005  -0.084506  -0.180361  -0.003848  3.915691  -0.005
C  C59  1  0.21444753  0.39844453  0.35187003  1  -0.173381  0.007702  3.692397  0.008  -0.186548  0.004545  3.930822  0.005  -0.195991  0.004357  3.950928  0.005  -0.084842  -0.180585  0.003836  3.91781  0.005
C  C60  1  0.24468660  0.56302765  0.89279832  1  0.2651  -0.00419  3.72002  -0.005  0.271047  -0.000733  3.963487  -0.001  0.282187  -0.001551  3.985283  -0.002  0.117257  0.263699  -3.3e-05  3.94911  0.0
C  C61  1  0.68150541  0.43710980  0.60719344  1  0.263971  0.003969  3.720712  0.005  0.268438  0.000476  3.966157  0.001  0.279597  0.001363  3.987925  0.002  0.116539  0.261053  3.8e-05  3.95153  0.0
C  C62  1  0.75535422  0.43719426  0.10729521  1  0.265072  0.004156  3.719926  0.005  0.270281  0.000705  3.964586  0.001  0.281413  0.001526  3.986366  0.002  0.116817  0.262946  9e-06  3.950193  0.0
C  C63  1  0.31834385  0.56267777  0.39274771  1  0.263768  -0.003923  3.721238  -0.004  0.268677  -0.000458  3.965811  -0.001  0.279724  -0.001347  3.987628  -0.002  0.116876  0.261365  -2.2e-05  3.951117  0.0
C  C64  1  0.23383017  0.62740378  0.99137128  1  -0.245951  0.002541  3.73439  0.004  -0.300969  0.001835  3.994321  0.003  -0.306248  0.001138  4.007145  0.002  -0.167324  -0.296907  0.001889  3.985256  0.003
C  C65  1  0.60626647  0.37267775  0.50862415  1  -0.245703  -0.002403  3.735566  -0.004  -0.299954  -0.00176  3.995592  -0.003  -0.305275  -0.001094  4.008468  -0.002  -0.167062  -0.295827  -0.00187  3.985726  -0.003
C  C66  1  0.76604416  0.37277002  0.00870852  1  -0.245015  -0.002463  3.734504  -0.004  -0.300225  -0.001797  3.995121  -0.003  -0.305484  -0.001119  4.007886  -0.002  -0.166995  -0.296199  -0.001847  3.986091  -0.003
C  C67  1  0.39348983  0.62718310  0.49132995  1  -0.246067  0.002332  3.735933  0.004  -0.299889  0.001722  3.995452  0.003  -0.305037  0.001073  4.008167  0.002  -0.167293  -0.295838  0.00183  3.985623  0.003
C  C68  1  0.44321893  0.74163650  0.04268123  1  0.144582  0.000563  3.685604  0.0  0.092779  0.000702  3.952852  0.0  0.106158  0.00048  3.965029  0.0  -0.092406  0.083445  0.000702  3.944142  0.001
C  C69  1  0.70146440  0.25848947  0.45731242  1  0.143706  -0.0005  3.685978  0.0  0.091445  -0.000614  3.95352  0.0  0.104982  -0.000412  3.965629  0.0  -0.092786  0.082357  -0.000691  3.944378  -0.001
C  C70  1  0.55650862  0.25870235  0.95748451  1  0.146514  -0.000577  3.684134  0.0  0.09418  -0.000679  3.952294  0.0  0.107564  -0.000458  3.964458  0.0  -0.092279  0.08486  -0.00069  3.943562  -0.001
C  C71  1  0.29812652  0.74127141  0.54259284  1  0.145282  0.000538  3.684601  0.0  0.092037  0.000611  3.953313  0.0  0.105538  0.000408  3.96542  0.0  -0.092324  0.082976  0.00069  3.944124  0.001
C  C72  1  0.38443791  0.99998691  0.74983867  1  0.855552  -1.4e-05  4.032055  0.0  0.806241  -0.0  4.34466  0.0  0.857755  4e-06  4.326438  0.0  0.230886  0.770974  4e-06  4.355726  0.0
C  C73  1  0.61506428  0.00003801  0.25022921  1  0.855092  1.6e-05  4.033817  0.0  0.806119  -5e-06  4.346342  0.0  0.857767  -9e-06  4.328074  0.0  0.231235  0.770726  -1e-05  4.357416  0.0
N  N74  1  0.31522915  0.67110288  0.84370397  1  -0.362959  0.054899  3.329469  0.07  -0.31372  0.047363  3.619034  0.064  -0.347016  0.043697  3.638338  0.062  -0.356311  -0.292976  0.040677  3.608752  0.054
N  N75  1  0.64415937  0.32900471  0.65624583  1  -0.362148  -0.054601  3.329409  -0.07  -0.312113  -0.047193  3.618998  -0.064  -0.345616  -0.043581  3.638328  -0.062  -0.356055  -0.291555  -0.04062  3.608339  -0.053
N  N76  1  0.68485578  0.32912746  0.15639408  1  -0.363368  -0.054835  3.329034  -0.07  -0.313949  -0.047327  3.618853  -0.064  -0.347266  -0.043667  3.638145  -0.062  -0.356131  -0.293225  -0.040619  3.608526  -0.053
N  N77  1  0.35568914  0.67079845  0.34369375  1  -0.361879  0.054512  3.329619  0.07  -0.312119  0.047146  3.618916  0.064  -0.345539  0.043542  3.638198  0.062  -0.355891  -0.291604  0.040559  3.608245  0.053
O  O78  1  0.52886701  0.88240882  0.01146650  1  -0.63999  0.003001  2.172746  0.004  -0.601302  0.005002  2.501225  0.008  -0.660664  0.004446  2.496261  0.008  -0.40006  -0.558863  0.004  2.505483  0.006
O  O79  1  0.64640726  0.11770066  0.48852237  1  -0.640769  -0.002074  2.173824  -0.003  -0.601007  -0.004463  2.501875  -0.007  -0.66082  -0.004113  2.497003  -0.007  -0.400337  -0.559229  -0.003974  2.506013  -0.006
O  O80  1  0.47093467  0.11785894  0.98866189  1  -0.641119  -0.0019  2.174128  -0.003  -0.601766  -0.004335  2.502025  -0.007  -0.660941  -0.003941  2.497001  -0.007  -0.400276  -0.559407  -0.003376  2.506282  -0.005
O  O81  1  0.35320981  0.88207831  0.51139537  1  -0.641862  0.001116  2.174669  0.002  -0.601666  0.003847  2.502832  0.006  -0.661366  0.00366  2.497931  0.006  -0.400828  -0.559931  0.00342  2.506966  0.005
O  O82  1  0.26280109  0.95653452  0.81161067  1  -0.646529  0.084898  1.97652  0.113  -0.625509  0.060686  2.254902  0.088  -0.677014  0.050261  2.242254  0.077  -0.355858  -0.590243  0.05587  2.264174  0.079
O  O83  1  0.30588897  0.04365384  0.68830956  1  -0.646394  -0.084573  1.97769  -0.112  -0.624976  -0.060524  2.255523  -0.088  -0.676831  -0.050144  2.243057  -0.077  -0.355422  -0.589844  -0.055709  2.264629  -0.079
O  O84  1  0.73687165  0.04385139  0.18858881  1  -0.644471  -0.085771  1.97682  -0.114  -0.624041  -0.061182  2.255166  -0.089  -0.675847  -0.050655  2.24269  -0.078  -0.35507  -0.58859  -0.056266  2.264275  -0.079
O  O85  1  0.69355451  0.95609416  0.31163737  1  -0.644363  0.08527  1.977489  0.113  -0.623858  0.06094  2.255654  0.089  -0.675981  0.050485  2.243308  0.077  -0.354885  -0.588444  0.056045  2.26452  0.079
O  O86  1  0.56551896  0.99976744  0.74960516  1  -0.726355  0.000109  1.811959  0.0  -0.714469  2.5e-05  2.042829  0.0  -0.748288  1.2e-05  2.027043  0.0  -0.380733  -0.688131  5.2e-05  2.051907  0.0
O  O87  1  0.43396266  0.00017364  0.25048008  1  -0.725384  -0.000133  1.812608  0.0  -0.714084  -3.4e-05  2.043593  0.0  -0.748099  -1.6e-05  2.027872  0.0  -0.380272  -0.687495  -6.6e-05  2.052502  0.0
O  O88  1  0.89527164  0.82986447  0.99073168  1  -0.821741  0.000132  1.770841  0.0  -0.783009  -9.2e-05  1.928993  0.0  -0.800131  -0.000131  1.900408  0.0  -0.600656  -0.770177  -0.000215  1.949539  0.0
O  O89  1  0.06465771  0.16960719  0.50935176  1  -0.821139  3.6e-05  1.770863  0.0  -0.782388  0.000228  1.928238  0.0  -0.799668  0.000206  1.899733  0.0  -0.600001  -0.769885  0.000211  1.948912  0.0
O  O90  1  0.10427059  0.16738956  0.00953866  1  -0.821394  -0.000153  1.768781  0.0  -0.782597  7.6e-05  1.926107  0.0  -0.799827  0.000121  1.897571  0.0  -0.598278  -0.769715  0.000184  1.946529  0.0
O  O91  1  0.93653781  0.83208913  0.49043261  1  -0.822053  -1.4e-05  1.766778  0.0  -0.783113  -0.000215  1.924  0.0  -0.800438  -0.0002  1.895563  0.0  -0.599397  -0.77062  -0.000191  1.944581  0.0
