# generated using pymatgen
data_CdH15C7S2N5
_symmetry_space_group_name_H-M   'P 1'
_cell_length_a   7.66026422
_cell_length_b   11.74418326
_cell_length_c   14.43786680
_cell_angle_alpha   90.00001249
_cell_angle_beta   90.00009132
_cell_angle_gamma   89.99997435
_symmetry_Int_Tables_number   1
_chemical_formula_structural   CdH15C7S2N5
_chemical_formula_sum   'Cd4 H60 C28 S8 N20'
_cell_volume   1298.88170546
_cell_formula_units_Z   4
loop_
 _symmetry_equiv_pos_site_id
 _symmetry_equiv_pos_as_xyz
  1  'x, y, z'
loop_
 _atom_site_type_symbol
 _atom_site_label
 _atom_site_symmetry_multiplicity
 _atom_site_fract_x
 _atom_site_fract_y
 _atom_site_fract_z
 _atom_site_occupancy
 _atom_site_hle17_bader_spin_density
 _atom_site_hle17_ddec_charge
 _atom_site_hle17_ddec_spin_density
 _atom_site_hle17_ddec_sum_bond_order
 _atom_site_hle17_magmom
 _atom_site_hse06_10hf_bader_spin_density
 _atom_site_hse06_10hf_ddec_charge
 _atom_site_hse06_10hf_ddec_spin_density
 _atom_site_hse06_10hf_ddec_sum_bond_order
 _atom_site_hse06_10hf_magmom
 _atom_site_hse06_bader_spin_density
 _atom_site_hse06_ddec_charge
 _atom_site_hse06_ddec_spin_density
 _atom_site_hse06_ddec_sum_bond_order
 _atom_site_hse06_magmom
 _atom_site_pbe_bader_spin_density
 _atom_site_pbe_cm5_charge
 _atom_site_pbe_ddec_charge
 _atom_site_pbe_ddec_spin_density
 _atom_site_pbe_ddec_sum_bond_order
 _atom_site_pbe_magmom
Cd  Cd0  1  0.40583866  0.55918403  0.24311093  1  0  0.99085  0  1.864826  0  0  0.808625  0  2.31558  0  0  0.853803  0  2.276743  0  0  0.738418  0.777171  0  2.341697  0
Cd  Cd1  1  0.09415960  0.44081575  0.74311055  1  0  0.990865  0  1.864797  0  0  0.808649  0  2.315549  0  0  0.853828  0  2.27671  0  0  0.738432  0.777199  0  2.34166  0
Cd  Cd2  1  0.90583772  0.94081550  0.75688860  1  0  0.99082  0  1.864848  0  0  0.808599  0  2.315607  0  0  0.853778  0  2.27677  0  0  0.738416  0.77715  0  2.341713  0
Cd  Cd3  1  0.59416133  0.05918414  0.25688862  1  0  0.990855  0  1.864816  0  0  0.808644  0  2.315568  0  0  0.853822  0  2.27673  0  0  0.738437  0.777196  0  2.341678  0
H  H4  1  0.61663297  0.76213639  0.30489994  1  0  0.289901  0  0.913589  0  0  0.280885  0  0.970724  0  0  0.285361  0  0.968977  0  0  0.286486  0.277714  0  0.971981  0
H  H5  1  0.88336752  0.23786326  0.80490046  1  0  0.289891  0  0.913614  0  0  0.280868  0  0.970764  0  0  0.285344  0  0.969017  0  0  0.286467  0.277695  0  0.972021  0
H  H6  1  0.11663254  0.73786322  0.69510003  1  0  0.289891  0  0.913613  0  0  0.280869  0  0.970763  0  0  0.285345  0  0.969016  0  0  0.286468  0.277696  0  0.97202  0
H  H7  1  0.38336818  0.26213825  0.19510034  1  0  0.289893  0  0.91359  0  0  0.280873  0  0.970735  0  0  0.28535  0  0.968988  0  0  0.286464  0.277701  0  0.971992  0
H  H8  1  0.65044919  0.65659734  0.37812198  1  0  0.278322  0  0.925669  0  0  0.272815  0  0.979054  0  0  0.277955  0  0.975897  0  0  0.280111  0.26915  0  0.981356  0
H  H9  1  0.84955153  0.34340233  0.87812180  1  0  0.278396  0  0.925612  0  0  0.272929  0  0.978946  0  0  0.278071  0  0.975785  0  0  0.280157  0.269265  0  0.981249  0
H  H10  1  0.15044846  0.84340226  0.62187871  1  0  0.278406  0  0.925619  0  0  0.272939  0  0.978955  0  0  0.278081  0  0.975792  0  0  0.280164  0.269275  0  0.981258  0
H  H11  1  0.34955204  0.15659919  0.12187897  1  0  0.278411  0  0.925632  0  0  0.272934  0  0.978977  0  0  0.278076  0  0.975814  0  0  0.280164  0.26927  0  0.981279  0
H  H12  1  0.83657450  0.55984728  0.27777205  1  0  0.062288  0  0.923899  0  0  0.083767  0  0.97972  0  0  0.083257  0  0.981297  0  0  0.103659  0.08404  0  0.978706  0
H  H13  1  0.66342461  0.44015322  0.77777242  1  0  0.062318  0  0.923897  0  0  0.083791  0  0.97971  0  0  0.08328  0  0.981285  0  0  0.103655  0.084065  0  0.978696  0
H  H14  1  0.33657532  0.94015312  0.72222811  1  0  0.062325  0  0.923872  0  0  0.083801  0  0.979683  0  0  0.08329  0  0.981259  0  0  0.103655  0.084075  0  0.97867  0
H  H15  1  0.16342549  0.05984751  0.22222750  1  0  0.062308  0  0.923892  0  0  0.083804  0  0.979693  0  0  0.083294  0  0.981268  0  0  0.103655  0.084078  0  0.978679  0
H  H16  1  0.90666994  0.70421320  0.27255179  1  0  0.047226  0  0.968748  0  0  0.058921  0  1.043614  0  0  0.058993  0  1.044648  0  0  0.087833  0.058778  0  1.043004  0
H  H17  1  0.59333046  0.29578644  0.77255208  1  0  0.047274  0  0.96875  0  0  0.058959  0  1.043606  0  0  0.059028  0  1.04464  0  0  0.087837  0.058815  0  1.042997  0
H  H18  1  0.40666826  0.79578633  0.72744843  1  0  0.047281  0  0.96876  0  0  0.058965  0  1.043617  0  0  0.059035  0  1.044652  0  0  0.087845  0.058821  0  1.043007  0
H  H19  1  0.09333256  0.20421430  0.22744779  1  0  0.047262  0  0.96878  0  0  0.058955  0  1.043635  0  0  0.059026  0  1.04467  0  0  0.087837  0.058811  0  1.043025  0
H  H20  1  0.70579806  0.73323098  0.13532645  1  0  0.070632  0  0.924047  0  0  0.090365  0  0.982712  0  0  0.090101  0  0.983886  0  0  0.106406  0.090476  0  0.981965  0
H  H21  1  0.79420193  0.26676863  0.63532690  1  0  0.070618  0  0.924024  0  0  0.09034  0  0.982699  0  0  0.090076  0  0.983873  0  0  0.106391  0.090452  0  0.981951  0
H  H22  1  0.20579681  0.76676860  0.86467360  1  0  0.070624  0  0.924033  0  0  0.090355  0  0.982701  0  0  0.090092  0  0.983875  0  0  0.106401  0.090466  0  0.981953  0
H  H23  1  0.29420311  0.23323121  0.36467313  1  0  0.070609  0  0.924045  0  0  0.090351  0  0.982715  0  0  0.090088  0  0.983889  0  0  0.106398  0.090463  0  0.981967  0
H  H24  1  0.88251651  0.63885742  0.11492184  1  0  0.060695  0  0.938132  0  0  0.077338  0  1.001688  0  0  0.077705  0  1.001705  0  0  0.092778  0.076994  0  1.001793  0
H  H25  1  0.61748472  0.36114303  0.61492216  1  0  0.060699  0  0.938157  0  0  0.077341  0  1.001692  0  0  0.077708  0  1.001708  0  0  0.092774  0.076997  0  1.001797  0
H  H26  1  0.38251526  0.86114211  0.88507836  1  0  0.060693  0  0.938143  0  0  0.077343  0  1.001682  0  0  0.077711  0  1.001699  0  0  0.092777  0.076999  0  1.001787  0
H  H27  1  0.11748473  0.13885771  0.38507772  1  0  0.060691  0  0.938145  0  0  0.07735  0  1.001687  0  0  0.077718  0  1.001703  0  0  0.092782  0.077006  0  1.001791  0
H  H28  1  0.69298657  0.48414512  0.13165968  1  0  0.231574  0  0.945713  0  0  0.224256  0  1.003847  0  0  0.22846  0  1.003149  0  0  0.274318  0.221257  0  1.004396  0
H  H29  1  0.80701341  0.51585534  0.63165949  1  0  0.231553  0  0.945721  0  0  0.224239  0  1.003861  0  0  0.228439  0  1.003174  0  0  0.274325  0.22124  0  1.00441  0
H  H30  1  0.19298681  0.01585474  0.86834097  1  0  0.231564  0  0.945715  0  0  0.224251  0  1.003849  0  0  0.228453  0  1.003159  0  0  0.27433  0.221253  0  1.004398  0
H  H31  1  0.30701443  0.98414592  0.36834064  1  0  0.231567  0  0.945735  0  0  0.224259  0  1.003865  0  0  0.22846  0  1.003179  0  0  0.274324  0.22126  0  1.004416  0
H  H32  1  0.68923338  0.58757175  0.98472684  1  0  0.046539  0  0.945245  0  0  0.061111  0  1.014517  0  0  0.061037  0  1.015168  0  0  0.086145  0.061075  0  1.014155  0
H  H33  1  0.81076635  0.41242880  0.48472780  1  0  0.046534  0  0.945253  0  0  0.061105  0  1.014519  0  0  0.06103  0  1.015174  0  0  0.086147  0.061069  0  1.014157  0
H  H34  1  0.18923339  0.91242869  0.01527250  1  0  0.046523  0  0.945252  0  0  0.061098  0  1.014523  0  0  0.061024  0  1.015174  0  0  0.086149  0.061062  0  1.01416  0
H  H35  1  0.31076809  0.08757189  0.51527224  1  0  0.04656  0  0.945231  0  0  0.061129  0  1.0145  0  0  0.061054  0  1.015154  0  0  0.086154  0.061094  0  1.014139  0
H  H36  1  0.49908573  0.65641850  0.02693500  1  0  0.049091  0  0.953046  0  0  0.06354  0  1.023611  0  0  0.063538  0  1.024394  0  0  0.090913  0.063445  0  1.023168  0
H  H37  1  0.00091448  0.34358207  0.52693521  1  0  0.049097  0  0.953035  0  0  0.063547  0  1.023594  0  0  0.063545  0  1.024377  0  0  0.090926  0.063451  0  1.023151  0
H  H38  1  0.99908682  0.84358185  0.97306530  1  0  0.049092  0  0.953025  0  0  0.063547  0  1.023585  0  0  0.063545  0  1.024368  0  0  0.090923  0.063452  0  1.023142  0
H  H39  1  0.50091549  0.15641785  0.47306457  1  0  0.04909  0  0.95306  0  0  0.063543  0  1.023621  0  0  0.063542  0  1.024403  0  0  0.09092  0.063449  0  1.023178  0
H  H40  1  0.54634673  0.40165932  0.98622629  1  0  0.062719  0  0.948589  0  0  0.076204  0  1.017143  0  0  0.077367  0  1.017087  0  0  0.078074  0.075297  0  1.017285  0
H  H41  1  0.95365170  0.59834038  0.48622533  1  0  0.062723  0  0.948596  0  0  0.076207  0  1.017138  0  0  0.07737  0  1.01708  0  0  0.078069  0.075299  0  1.017278  0
H  H42  1  0.04634826  0.09834059  0.01377284  1  0  0.062735  0  0.948632  0  0  0.076226  0  1.017163  0  0  0.077389  0  1.017106  0  0  0.078091  0.075318  0  1.017303  0
H  H43  1  0.45365453  0.90165913  0.51377285  1  0  0.06272  0  0.948606  0  0  0.076211  0  1.017145  0  0  0.077374  0  1.017089  0  0  0.078077  0.075302  0  1.017286  0
H  H44  1  0.37233956  0.45393446  0.05428800  1  0  0.069162  0  0.977698  0  0  0.08657  0  1.040481  0  0  0.086768  0  1.041534  0  0  0.08607  0.086336  0  1.039862  0
H  H45  1  0.12765943  0.54606613  0.55428697  1  0  0.069232  0  0.977633  0  0  0.086617  0  1.040431  0  0  0.086815  0  1.041482  0  0  0.086087  0.086384  0  1.039812  0
H  H46  1  0.87234077  0.04606621  0.94571210  1  0  0.069185  0  0.977693  0  0  0.086599  0  1.040467  0  0  0.086798  0  1.041517  0  0  0.086078  0.086366  0  1.039849  0
H  H47  1  0.62766146  0.95393518  0.44571162  1  0  0.069144  0  0.977703  0  0  0.086553  0  1.040492  0  0  0.086753  0  1.041542  0  0  0.086056  0.08632  0  1.039873  0
H  H48  1  0.27302702  0.57811180  0.92481130  1  0  0.056565  0  0.920131  0  0  0.076399  0  0.979892  0  0  0.076403  0  0.980374  0  0  0.100455  0.076317  0  0.979629  0
H  H49  1  0.22697178  0.42188802  0.42481151  1  0  0.056593  0  0.920145  0  0  0.076426  0  0.979905  0  0  0.07643  0  0.980388  0  0  0.100447  0.076345  0  0.979642  0
H  H50  1  0.77302796  0.92188861  0.07518880  1  0  0.056573  0  0.920155  0  0  0.076417  0  0.9799  0  0  0.076422  0  0.980381  0  0  0.100461  0.076334  0  0.97964  0
H  H51  1  0.72697184  0.07811183  0.57518916  1  0  0.056573  0  0.9201  0  0  0.07642  0  0.979841  0  0  0.076425  0  0.980322  0  0  0.100453  0.076328  0  0.979591  0
H  H52  1  0.44475600  0.52954305  0.85412641  1  0  0.054315  0  0.939788  0  0  0.071115  0  1.003944  0  0  0.070976  0  1.00494  0  0  0.096205  0.071098  0  1.003389  0
H  H53  1  0.05524259  0.47045762  0.35412648  1  0  0.054333  0  0.939878  0  0  0.071131  0  1.004028  0  0  0.070992  0  1.005023  0  0  0.096225  0.071113  0  1.003472  0
H  H54  1  0.94475712  0.97045732  0.14587384  1  0  0.05432  0  0.939829  0  0  0.071116  0  1.00398  0  0  0.070976  0  1.004975  0  0  0.096216  0.0711  0  1.003424  0
H  H55  1  0.55524290  0.02954059  0.64587335  1  0  0.054313  0  0.939877  0  0  0.071108  0  1.004021  0  0  0.070969  0  1.005016  0  0  0.096223  0.071092  0  1.003464  0
H  H56  1  0.15878952  0.39078845  0.93155254  1  0  0.263667  0  0.948674  0  0  0.251006  0  1.015833  0  0  0.256215  0  1.013496  0  0  0.267272  0.2473  0  1.017504  0
H  H57  1  0.34120930  0.60921138  0.43155079  1  0  0.263667  0  0.948703  0  0  0.251017  0  1.015847  0  0  0.256225  0  1.013511  0  0  0.267274  0.247311  0  1.017521  0
H  H58  1  0.65879066  0.10921142  0.06844877  1  0  0.263663  0  0.948715  0  0  0.250996  0  1.015866  0  0  0.256204  0  1.013531  0  0  0.267284  0.24729  0  1.017539  0
H  H59  1  0.84121174  0.89078816  0.56844868  1  0  0.2637  0  0.948595  0  0  0.251039  0  1.015756  0  0  0.256248  0  1.013419  0  0  0.267282  0.247333  0  1.017428  0
H  H60  1  0.32238955  0.33697455  0.87326075  1  0  0.262574  0  0.959031  0  0  0.249172  0  1.028259  0  0  0.254427  0  1.025941  0  0  0.2655  0.245422  0  1.02995  0
H  H61  1  0.17761040  0.66302527  0.37326026  1  0  0.262627  0  0.959008  0  0  0.249223  0  1.028231  0  0  0.254479  0  1.02591  0  0  0.265522  0.245472  0  1.02992  0
H  H62  1  0.82238952  0.16302613  0.12673931  1  0  0.262587  0  0.959003  0  0  0.249186  0  1.028233  0  0  0.25444  0  1.025916  0  0  0.265504  0.245435  0  1.029922  0
H  H63  1  0.67761044  0.83697432  0.62673907  1  0  0.262597  0  0.959007  0  0  0.249195  0  1.02823  0  0  0.254449  0  1.025913  0  0  0.265507  0.245443  0  1.02992  0
C  C64  1  0.35184294  0.82655298  0.17615644  1  0  0.282966  0  4.040056  0  0  0.262631  0  4.351581  0  0  0.284757  0  4.362682  0  0  0.139058  0.247553  0  4.343958  0
C  C65  1  0.14815381  0.17344593  0.67615744  1  0  0.282999  0  4.040112  0  0  0.262674  0  4.35163  0  0  0.284801  0  4.36273  0  0  0.139114  0.247594  0  4.344009  0
C  C66  1  0.85184499  0.67344571  0.82384096  1  0  0.282942  0  4.040173  0  0  0.262604  0  4.351702  0  0  0.284729  0  4.362804  0  0  0.139077  0.247525  0  4.344077  0
C  C67  1  0.64815556  0.32655309  0.32384316  1  0  0.282996  0  4.040054  0  0  0.262673  0  4.351567  0  0  0.2848  0  4.362668  0  0  0.139087  0.247593  0  4.343943  0
C  C68  1  0.07559015  0.40464713  0.13442851  1  0  0.299684  0  4.035457  0  0  0.278751  0  4.339674  0  0  0.300622  0  4.352109  0  0  0.140965  0.263922  0  4.330926  0
C  C69  1  0.42440909  0.59535262  0.63443260  1  0  0.299725  0  4.035395  0  0  0.27879  0  4.339626  0  0  0.300663  0  4.352059  0  0  0.141019  0.263961  0  4.33088  0
C  C70  1  0.57558977  0.09535106  0.86557064  1  0  0.299653  0  4.035605  0  0  0.278717  0  4.339832  0  0  0.300587  0  4.352267  0  0  0.14096  0.263887  0  4.331086  0
C  C71  1  0.92440961  0.90464690  0.36556902  1  0  0.299691  0  4.035534  0  0  0.278756  0  4.339763  0  0  0.300627  0  4.352199  0  0  0.141  0.263926  0  4.331018  0
C  C72  1  0.79721418  0.64638884  0.25752528  1  0  0.061239  0  3.661577  0  0  0.003395  0  3.926893  0  0  0.006986  0  3.940076  0  0  -0.080253  0.001048  0  3.91779  0
C  C73  1  0.70278617  0.35361079  0.75752567  1  0  0.061107  0  3.661663  0  0  0.003278  0  3.926966  0  0  0.006878  0  3.940136  0  0  -0.08026  0.000931  0  3.917865  0
C  C74  1  0.29721381  0.85360986  0.74247484  1  0  0.061052  0  3.661723  0  0  0.003228  0  3.92703  0  0  0.006825  0  3.940207  0  0  -0.080306  0.00088  0  3.917928  0
C  C75  1  0.20278575  0.14639077  0.24247428  1  0  0.061046  0  3.661643  0  0  0.00317  0  3.92705  0  0  0.006765  0  3.940229  0  0  -0.080322  0.000822  0  3.917947  0
C  C76  1  0.75999860  0.64953507  0.15404114  1  0  0.003275  0  3.651213  0  0  -0.050696  0  3.908723  0  0  -0.047523  0  3.922282  0  0  -0.075658  -0.052752  0  3.899329  0
C  C77  1  0.74000014  0.35046624  0.65404087  1  0  0.003237  0  3.651224  0  0  -0.050702  0  3.908691  0  0  -0.047534  0  3.922251  0  0  -0.075688  -0.052759  0  3.899298  0
C  C78  1  0.25999854  0.85046535  0.84595965  1  0  0.003284  0  3.651172  0  0  -0.050694  0  3.908703  0  0  -0.04752  0  3.92225  0  0  -0.075666  -0.052752  0  3.899309  0
C  C79  1  0.24000133  0.14953531  0.34595912  1  0  0.003325  0  3.651208  0  0  -0.050676  0  3.908782  0  0  -0.0475  0  3.922329  0  0  -0.075674  -0.052734  0  3.899387  0
C  C80  1  0.57485078  0.57690083  0.03043000  1  0  0.026736  0  3.699485  0  0  -0.0315  0  3.966807  0  0  -0.027719  0  3.980964  0  0  -0.082484  -0.033928  0  3.956886  0
C  C81  1  0.92514759  0.42309875  0.53042990  1  0  0.026773  0  3.699364  0  0  -0.031461  0  3.966687  0  0  -0.027681  0  3.980838  0  0  -0.082478  -0.03389  0  3.956767  0
C  C82  1  0.07485234  0.92309879  0.96957063  1  0  0.026782  0  3.699327  0  0  -0.031473  0  3.966678  0  0  -0.027694  0  3.980835  0  0  -0.082504  -0.033902  0  3.956759  0
C  C83  1  0.42515050  0.07690105  0.46956956  1  0  0.02669  0  3.6995  0  0  -0.031544  0  3.966833  0  0  -0.027763  0  3.980988  0  0  -0.082513  -0.033971  0  3.956912  0
C  C84  1  0.46377385  0.47705580  0.99864153  1  0  -0.17106  0  3.702888  0  0  -0.206811  0  3.958166  0  0  -0.20897  0  3.971871  0  0  -0.177998  -0.205168  0  3.948691  0
C  C85  1  0.03622647  0.52294575  0.49864159  1  0  -0.171127  0  3.702786  0  0  -0.206851  0  3.958019  0  0  -0.209004  0  3.971713  0  0  -0.178031  -0.205208  0  3.948545  0
C  C86  1  0.96377484  0.02294569  0.00135864  1  0  -0.17111  0  3.702899  0  0  -0.206854  0  3.958134  0  0  -0.20901  0  3.971834  0  0  -0.178015  -0.205211  0  3.94866  0
C  C87  1  0.53622735  0.97705474  0.50135762  1  0  -0.170995  0  3.702883  0  0  -0.206754  0  3.958131  0  0  -0.208911  0  3.971834  0  0  -0.177968  -0.20511  0  3.948655  0
C  C88  1  0.35902276  0.50482104  0.91176578  1  0  0.092254  0  3.64574  0  0  0.036428  0  3.909736  0  0  0.040875  0  3.922994  0  0  -0.077206  0.033517  0  3.90048  0
C  C89  1  0.14097470  0.49517793  0.41176523  1  0  0.092139  0  3.645853  0  0  0.036322  0  3.909788  0  0  0.040765  0  3.923048  0  0  -0.077243  0.03341  0  3.900531  0
C  C90  1  0.85902499  0.99517935  0.08823440  1  0  0.092258  0  3.645741  0  0  0.036435  0  3.909712  0  0  0.040881  0  3.922969  0  0  -0.077197  0.033525  0  3.900456  0
C  C91  1  0.64097616  0.00482024  0.58823537  1  0  0.092208  0  3.645778  0  0  0.036399  0  3.909709  0  0  0.040844  0  3.922969  0  0  -0.077222  0.033495  0  3.90045  0
S  S92  1  0.21739718  0.72366206  0.15071217  1  0  -0.337182  0  2.161414  0  0  -0.30356  0  2.485088  0  0  -0.319656  0  2.477181  0  0  -0.133028  -0.292398  0  2.490343  0
S  S93  1  0.28260080  0.27633684  0.65071400  1  0  -0.337198  0  2.161498  0  0  -0.303579  0  2.485164  0  0  -0.319674  0  2.477257  0  0  -0.133037  -0.292416  0  2.49042  0
S  S94  1  0.71739794  0.77633667  0.84928581  1  0  -0.337158  0  2.161459  0  0  -0.303531  0  2.485119  0  0  -0.319627  0  2.477214  0  0  -0.133032  -0.29237  0  2.490373  0
S  S95  1  0.78260270  0.22366299  0.34928533  1  0  -0.337181  0  2.161478  0  0  -0.303557  0  2.48514  0  0  -0.319652  0  2.477233  0  0  -0.133029  -0.292395  0  2.490393  0
S  S96  1  0.93072244  0.35412411  0.06285528  1  0  -0.379752  0  2.020563  0  0  -0.349857  0  2.305068  0  0  -0.363192  0  2.297405  0  0  -0.15323  -0.340487  0  2.310212  0
S  S97  1  0.56927994  0.64587462  0.56285838  1  0  -0.379786  0  2.020621  0  0  -0.349885  0  2.305114  0  0  -0.363216  0  2.297446  0  0  -0.153249  -0.340513  0  2.310257  0
S  S98  1  0.43072018  0.14587483  0.93714487  1  0  -0.379766  0  2.02061  0  0  -0.349871  0  2.305115  0  0  -0.363206  0  2.297452  0  0  -0.153237  -0.340496  0  2.310259  0
S  S99  1  0.06927996  0.85412500  0.43714294  1  0  -0.379748  0  2.020604  0  0  -0.349853  0  2.305118  0  0  -0.363186  0  2.29745  0  0  -0.153225  -0.340479  0  2.310261  0
N  N100  1  0.45195306  0.90008043  0.19433923  1  0  -0.535702  0  2.844791  0  0  -0.485546  0  3.123513  0  0  -0.503803  0  3.127408  0  0  -0.396568  -0.473204  0  3.120883  0
N  N101  1  0.04804374  0.09991849  0.69434291  1  0  -0.53571  0  2.844806  0  0  -0.485563  0  3.123535  0  0  -0.50382  0  3.127428  0  0  -0.396606  -0.473218  0  3.120904  0
N  N102  1  0.95195511  0.59991908  0.80566103  1  0  -0.535681  0  2.844849  0  0  -0.485524  0  3.123571  0  0  -0.503781  0  3.127466  0  0  -0.396583  -0.473181  0  3.120939  0
N  N103  1  0.54804408  0.40008142  0.30565761  1  0  -0.535733  0  2.844772  0  0  -0.485592  0  3.123508  0  0  -0.503851  0  3.127403  0  0  -0.39659  -0.473245  0  3.120874  0
N  N104  1  0.18291027  0.43892707  0.18674031  1  0  -0.555075  0  2.852368  0  0  -0.492893  0  3.120644  0  0  -0.513271  0  3.126456  0  0  -0.391704  -0.478971  0  3.116543  0
N  N105  1  0.31708781  0.56107269  0.68674499  1  0  -0.555113  0  2.852263  0  0  -0.492929  0  3.120549  0  0  -0.513309  0  3.126361  0  0  -0.391743  -0.479007  0  3.116449  0
N  N106  1  0.68290715  0.06107194  0.81326033  1  0  -0.555038  0  2.852458  0  0  -0.492861  0  3.12074  0  0  -0.513238  0  3.126552  0  0  -0.391701  -0.478939  0  3.116638  0
N  N107  1  0.81708946  0.93892771  0.31325723  1  0  -0.555105  0  2.852413  0  0  -0.492925  0  3.120692  0  0  -0.513304  0  3.126506  0  0  -0.391747  -0.479002  0  3.116593  0
N  N108  1  0.63805133  0.67621044  0.30948926  1  0  -0.635786  0  3.089762  0  0  -0.582275  0  3.325182  0  0  -0.601016  0  3.327427  0  0  -0.630159  -0.569117  0  3.323338  0
N  N109  1  0.86194918  0.32379091  0.80949117  1  0  -0.635786  0  3.089772  0  0  -0.58232  0  3.325136  0  0  -0.601063  0  3.327377  0  0  -0.63014  -0.56916  0  3.323291  0
N  N110  1  0.13805082  0.82379086  0.69050934  1  0  -0.635781  0  3.089775  0  0  -0.582312  0  3.325135  0  0  -0.601056  0  3.327379  0  0  -0.630143  -0.569153  0  3.323291  0
N  N111  1  0.36194988  0.17620976  0.19050823  1  0  -0.635743  0  3.089688  0  0  -0.582259  0  3.325061  0  0  -0.601002  0  3.327304  0  0  -0.630108  -0.5691  0  3.323217  0
N  N112  1  0.63172756  0.56195982  0.12717077  1  0  -0.422473  0  3.250442  0  0  -0.34443  0  3.494501  0  0  -0.364297  0  3.508984  0  0  -0.487984  -0.33052  0  3.484054  0
N  N113  1  0.86827241  0.43804063  0.62717131  1  0  -0.422446  0  3.250466  0  0  -0.34443  0  3.494541  0  0  -0.3643  0  3.509023  0  0  -0.487989  -0.330521  0  3.484095  0
N  N114  1  0.13172752  0.93804064  0.87282922  1  0  -0.422469  0  3.250342  0  0  -0.344434  0  3.494416  0  0  -0.364305  0  3.5089  0  0  -0.487995  -0.330526  0  3.483973  0
N  N115  1  0.36827243  0.06195918  0.37282809  1  0  -0.422446  0  3.250428  0  0  -0.344436  0  3.49453  0  0  -0.364307  0  3.509013  0  0  -0.487979  -0.330528  0  3.484086  0
N  N116  1  0.24839209  0.40940105  0.88068842  1  0  -0.625247  0  3.136408  0  0  -0.565727  0  3.374819  0  0  -0.586162  0  3.377104  0  0  -0.63441  -0.55137  0  3.372892  0
N  N117  1  0.25160918  0.59059962  0.38068728  1  0  -0.625243  0  3.136451  0  0  -0.565727  0  3.374847  0  0  -0.586161  0  3.377131  0  0  -0.634389  -0.55137  0  3.372922  0
N  N118  1  0.74839078  0.09059965  0.11931158  1  0  -0.625266  0  3.136402  0  0  -0.565745  0  3.374835  0  0  -0.586179  0  3.37712  0  0  -0.634436  -0.551389  0  3.372908  0
N  N119  1  0.75160655  0.90939995  0.61931350  1  0  -0.625275  0  3.136369  0  0  -0.565765  0  3.374785  0  0  -0.5862  0  3.377069  0  0  -0.634424  -0.551408  0  3.372856  0
