# generated using pymatgen
data_NaH14C8NO5
_symmetry_space_group_name_H-M   'P 1'
_cell_length_a   5.58932333
_cell_length_b   6.15174318
_cell_length_c   31.79041979
_cell_angle_alpha   89.99952041
_cell_angle_beta   90.00041078
_cell_angle_gamma   108.58018726
_symmetry_Int_Tables_number   1
_chemical_formula_structural   NaH14C8NO5
_chemical_formula_sum   'Na4 H56 C32 N4 O20'
_cell_volume   1036.11135548
_cell_formula_units_Z   4
loop_
 _symmetry_equiv_pos_site_id
 _symmetry_equiv_pos_as_xyz
  1  'x, y, z'
loop_
 _atom_site_type_symbol
 _atom_site_label
 _atom_site_symmetry_multiplicity
 _atom_site_fract_x
 _atom_site_fract_y
 _atom_site_fract_z
 _atom_site_occupancy
 _atom_site_hle17_bader_spin_density
 _atom_site_hle17_ddec_charge
 _atom_site_hle17_ddec_spin_density
 _atom_site_hle17_ddec_sum_bond_order
 _atom_site_hle17_magmom
 _atom_site_hse06_10hf_bader_spin_density
 _atom_site_hse06_10hf_ddec_charge
 _atom_site_hse06_10hf_ddec_spin_density
 _atom_site_hse06_10hf_ddec_sum_bond_order
 _atom_site_hse06_10hf_magmom
 _atom_site_hse06_bader_spin_density
 _atom_site_hse06_ddec_charge
 _atom_site_hse06_ddec_spin_density
 _atom_site_hse06_ddec_sum_bond_order
 _atom_site_hse06_magmom
 _atom_site_pbe_bader_spin_density
 _atom_site_pbe_cm5_charge
 _atom_site_pbe_ddec_charge
 _atom_site_pbe_ddec_spin_density
 _atom_site_pbe_ddec_sum_bond_order
 _atom_site_pbe_magmom
Na  Na0  1  0.22691727  0.91397525  0.47185318  1  0  0.899592  0  0.381589  0  0  0.860168  0  0.531646  0  0  0.869016  0  0.510478  0  0  0.653098  0.853592  0  0.54694  0
Na  Na1  1  0.27308839  0.58601837  0.97185443  1  0  0.899577  0  0.381556  0  0  0.860183  0  0.531572  0  0  0.869029  0  0.510407  0  0  0.653087  0.853607  0  0.546866  0
Na  Na2  1  0.77308295  0.08602690  0.52814563  1  0  0.899601  0  0.381536  0  0  0.860193  0  0.531576  0  0  0.869035  0  0.510416  0  0  0.653114  0.853619  0  0.546867  0
Na  Na3  1  0.72692294  0.41396480  0.02814627  1  0  0.899569  0  0.381591  0  0  0.860179  0  0.53164  0  0  0.869008  0  0.510476  0  0  0.65313  0.853605  0  0.546934  0
H  H4  1  0.96975578  0.32052784  0.33346092  1  0  0.270476  0  0.924256  0  0  0.264132  0  0.981738  0  0  0.268086  0  0.979825  0  0  0.282395  0.261389  0  0.982995  0
H  H5  1  0.53023444  0.17947179  0.83345991  1  0  0.270474  0  0.924255  0  0  0.264126  0  0.981743  0  0  0.268081  0  0.979825  0  0  0.282411  0.26138  0  0.983005  0
H  H6  1  0.03025409  0.67948627  0.66653789  1  0  0.270524  0  0.924199  0  0  0.26416  0  0.981715  0  0  0.268117  0  0.979797  0  0  0.282406  0.261415  0  0.982979  0
H  H7  1  0.46976512  0.82052348  0.16653639  1  0  0.270531  0  0.924122  0  0  0.264172  0  0.981647  0  0  0.268127  0  0.97973  0  0  0.282402  0.261424  0  0.982911  0
H  H8  1  0.95108658  0.43475920  0.38048662  1  0  0.298802  0  0.913483  0  0  0.280486  0  0.987023  0  0  0.287758  0  0.980167  0  0  0.28959  0.275189  0  0.992136  0
H  H9  1  0.54890385  0.06523318  0.88048550  1  0  0.298825  0  0.913509  0  0  0.280507  0  0.987044  0  0  0.287777  0  0.980193  0  0  0.28959  0.275206  0  0.992158  0
H  H10  1  0.04891482  0.56524122  0.61951251  1  0  0.29879  0  0.91353  0  0  0.280475  0  0.987064  0  0  0.287748  0  0.980207  0  0  0.28958  0.275176  0  0.992177  0
H  H11  1  0.45109984  0.93475862  0.11951080  1  0  0.29877  0  0.913495  0  0  0.28049  0  0.986991  0  0  0.287759  0  0.980138  0  0  0.289604  0.27519  0  0.992109  0
H  H12  1  0.40006434  0.31222592  0.35769101  1  0  0.062893  0  0.93691  0  0  0.074426  0  0.998306  0  0  0.075674  0  0.997671  0  0  0.110235  0.073545  0  0.998874  0
H  H13  1  0.09992143  0.18777751  0.85768964  1  0  0.062857  0  0.936918  0  0  0.074405  0  0.998303  0  0  0.075651  0  0.997672  0  0  0.110217  0.073513  0  0.998881  0
H  H14  1  0.59993672  0.68779856  0.64230686  1  0  0.062817  0  0.936826  0  0  0.074368  0  0.99823  0  0  0.07561  0  0.997601  0  0  0.110184  0.073511  0  0.998769  0
H  H15  1  0.90007802  0.81220745  0.14230698  1  0  0.062763  0  0.936933  0  0  0.074345  0  0.998326  0  0  0.075594  0  0.997695  0  0  0.110172  0.07349  0  0.998863  0
H  H16  1  0.14652418  0.81227096  0.35030190  1  0  0.09812  0  0.970117  0  0  0.107704  0  1.035893  0  0  0.111459  0  1.033621  0  0  0.104273  0.104711  0  1.038148  0
H  H17  1  0.35347669  0.68773742  0.85029819  1  0  0.09818  0  0.96986  0  0  0.107724  0  1.035712  0  0  0.111467  0  1.033462  0  0  0.10425  0.104725  0  1.037967  0
H  H18  1  0.85347280  0.18776214  0.64970478  1  0  0.098219  0  0.969814  0  0  0.107707  0  1.035723  0  0  0.111461  0  1.033452  0  0  0.104263  0.1047  0  1.038009  0
H  H19  1  0.64652622  0.31223721  0.14970125  1  0  0.098222  0  0.969874  0  0  0.107739  0  1.035726  0  0  0.111503  0  1.033444  0  0  0.104293  0.104739  0  1.037996  0
H  H20  1  0.30680410  0.12297859  0.29811478  1  0  0.079693  0  0.975038  0  0  0.091988  0  1.036421  0  0  0.094111  0  1.036148  0  0  0.096658  0.090265  0  1.037166  0
H  H21  1  0.19318369  0.37701672  0.79811331  1  0  0.079694  0  0.975028  0  0  0.091982  0  1.036427  0  0  0.094105  0  1.036153  0  0  0.096637  0.090268  0  1.037162  0
H  H22  1  0.69318446  0.87704597  0.70189159  1  0  0.07969  0  0.975167  0  0  0.09199  0  1.036533  0  0  0.094113  0  1.03626  0  0  0.09662  0.090268  0  1.037274  0
H  H23  1  0.80679423  0.62295807  0.20188802  1  0  0.079757  0  0.975053  0  0  0.092051  0  1.036428  0  0  0.094174  0  1.036155  0  0  0.096677  0.090335  0  1.037164  0
H  H24  1  0.68147548  0.14008797  0.25347072  1  0  0.078771  0  0.999791  0  0  0.087352  0  1.068033  0  0  0.088929  0  1.069554  0  0  0.090562  0.086331  0  1.066839  0
H  H25  1  0.81850590  0.35990377  0.75347048  1  0  0.07882  0  0.999837  0  0  0.087376  0  1.068084  0  0  0.088961  0  1.069597  0  0  0.090567  0.086358  0  1.066888  0
H  H26  1  0.31850303  0.85994353  0.74653156  1  0  0.078794  0  0.999922  0  0  0.087386  0  1.068133  0  0  0.088969  0  1.069633  0  0  0.090579  0.086369  0  1.066935  0
H  H27  1  0.18148345  0.64008297  0.24652960  1  0  0.078825  0  0.999772  0  0  0.087392  0  1.068014  0  0  0.088982  0  1.069527  0  0  0.090555  0.08637  0  1.06682  0
H  H28  1  0.88536689  0.83863899  0.26100875  1  0  0.079393  0  0.98127  0  0  0.090418  0  1.045474  0  0  0.092288  0  1.045762  0  0  0.094461  0.08898  0  1.045593  0
H  H29  1  0.61462029  0.66135764  0.76100522  1  0  0.079402  0  0.981221  0  0  0.09046  0  1.045387  0  0  0.092336  0  1.045671  0  0  0.094483  0.089011  0  1.045561  0
H  H30  1  0.11461988  0.16138558  0.73899069  1  0  0.079493  0  0.981205  0  0  0.090473  0  1.045432  0  0  0.092349  0  1.045718  0  0  0.094445  0.089014  0  1.045628  0
H  H31  1  0.38538825  0.33864273  0.23899265  1  0  0.079358  0  0.981221  0  0  0.090407  0  1.045409  0  0  0.09228  0  1.045693  0  0  0.094441  0.088962  0  1.045545  0
H  H32  1  0.71195269  0.51622499  0.31105311  1  0  0.079778  0  0.972941  0  0  0.089441  0  1.042365  0  0  0.092363  0  1.041012  0  0  0.095407  0.087251  0  1.043662  0
H  H33  1  0.78803570  0.98377638  0.81104888  1  0  0.079644  0  0.972858  0  0  0.089381  0  1.042225  0  0  0.092305  0  1.040869  0  0  0.095402  0.087193  0  1.043514  0
H  H34  1  0.28803424  0.48381504  0.68894980  1  0  0.079627  0  0.972883  0  0  0.089335  0  1.042302  0  0  0.092258  0  1.040947  0  0  0.095427  0.087149  0  1.043594  0
H  H35  1  0.21197328  0.01621024  0.18895057  1  0  0.079618  0  0.973005  0  0  0.089299  0  1.042432  0  0  0.092223  0  1.041077  0  0  0.095391  0.08711  0  1.043728  0
H  H36  1  0.71899679  0.65262982  0.47170892  1  0  0.410711  0  0.896507  0  0  0.379668  0  0.961474  0  0  0.39074  0  0.944961  0  0  0.292603  0.371851  0  0.973138  0
H  H37  1  0.78100852  0.84736500  0.97170841  1  0  0.410718  0  0.896488  0  0  0.379706  0  0.961417  0  0  0.390776  0  0.944908  0  0  0.292656  0.371888  0  0.973084  0
H  H38  1  0.28099696  0.34737924  0.52829178  1  0  0.410793  0  0.896393  0  0  0.379697  0  0.961429  0  0  0.390763  0  0.944925  0  0  0.292625  0.371877  0  0.973097  0
H  H39  1  0.21901459  0.15260606  0.02829071  1  0  0.410813  0  0.896377  0  0  0.379731  0  0.961383  0  0  0.390791  0  0.944888  0  0  0.292644  0.37191  0  0.973054  0
H  H40  1  0.78674741  0.60389436  0.51835068  1  0  0.414799  0  0.889222  0  0  0.386786  0  0.94922  0  0  0.396768  0  0.934361  0  0  0.296331  0.379729  0  0.959741  0
H  H41  1  0.71327871  0.89610226  0.01835010  1  0  0.414712  0  0.889343  0  0  0.386773  0  0.949209  0  0  0.396754  0  0.934354  0  0  0.29635  0.379724  0  0.959716  0
H  H42  1  0.21325409  0.39611636  0.48164939  1  0  0.414765  0  0.88928  0  0  0.38675  0  0.949276  0  0  0.396732  0  0.934417  0  0  0.29632  0.379696  0  0.959794  0
H  H43  1  0.28674680  0.10387050  0.98164840  1  0  0.414684  0  0.889377  0  0  0.386716  0  0.949284  0  0  0.396698  0  0.934427  0  0  0.296304  0.379669  0  0.95979  0
H  H44  1  0.22626676  0.91466132  0.55717039  1  0  0.414998  0  0.894335  0  0  0.388218  0  0.95236  0  0  0.398609  0  0.937109  0  0  0.287967  0.380819  0  0.963218  0
H  H45  1  0.27374613  0.58533560  0.05717163  1  0  0.414988  0  0.894356  0  0  0.388234  0  0.952339  0  0  0.398624  0  0.93709  0  0  0.287975  0.380839  0  0.963194  0
H  H46  1  0.77373948  0.08534766  0.44282716  1  0  0.415072  0  0.894246  0  0  0.388311  0  0.952232  0  0  0.398702  0  0.936982  0  0  0.288005  0.380917  0  0.963083  0
H  H47  1  0.72626342  0.41464758  0.94282938  1  0  0.414986  0  0.894353  0  0  0.388233  0  0.95234  0  0  0.398622  0  0.937093  0  0  0.287979  0.380838  0  0.963193  0
H  H48  1  0.34294365  0.71285022  0.55546942  1  0  0.418905  0  0.883109  0  0  0.390478  0  0.943214  0  0  0.399818  0  0.929353  0  0  0.293699  0.383885  0  0.953031  0
H  H49  1  0.15707444  0.78714668  0.05547002  1  0  0.418906  0  0.88309  0  0  0.390486  0  0.943194  0  0  0.399821  0  0.929341  0  0  0.293704  0.383891  0  0.95301  0
H  H50  1  0.65705417  0.28715021  0.44452940  1  0  0.418827  0  0.883203  0  0  0.390397  0  0.943313  0  0  0.399742  0  0.929444  0  0  0.293648  0.383809  0  0.953125  0
H  H51  1  0.84294409  0.21284160  0.94453131  1  0  0.418804  0  0.883243  0  0  0.39038  0  0.943343  0  0  0.399721  0  0.929479  0  0  0.293665  0.383787  0  0.95316  0
H  H52  1  0.85377597  0.82528755  0.40786717  1  0  0.408079  0  0.899609  0  0  0.376712  0  0.965122  0  0  0.38617  0  0.951295  0  0  0.289947  0.370076  0  0.974827  0
H  H53  1  0.64622637  0.67471639  0.90786674  1  0  0.408057  0  0.899637  0  0  0.376687  0  0.965155  0  0  0.386143  0  0.95133  0  0  0.289927  0.37005  0  0.974861  0
H  H54  1  0.14623395  0.17473172  0.59213322  1  0  0.408161  0  0.899511  0  0  0.376773  0  0.965041  0  0  0.386235  0  0.951219  0  0  0.290005  0.370132  0  0.974752  0
H  H55  1  0.35379344  0.32528047  0.09213208  1  0  0.408015  0  0.899697  0  0  0.376634  0  0.96521  0  0  0.386097  0  0.951393  0  0  0.289935  0.369994  0  0.974919  0
H  H56  1  0.98246808  0.08945688  0.39118671  1  0  0.387866  0  0.934478  0  0  0.35184  0  1.00718  0  0  0.362086  0  0.992746  0  0  0.275262  0.344698  0  1.017179  0
H  H57  1  0.51752944  0.41054740  0.89118621  1  0  0.387875  0  0.934466  0  0  0.351798  0  1.007252  0  0  0.362045  0  0.992815  0  0  0.275228  0.344651  0  1.017253  0
H  H58  1  0.01754241  0.91055895  0.60881337  1  0  0.387925  0  0.934407  0  0  0.351843  0  1.007198  0  0  0.362092  0  0.992757  0  0  0.275248  0.344697  0  1.017198  0
H  H59  1  0.48248446  0.58945294  0.10881166  1  0  0.387805  0  0.934576  0  0  0.351779  0  1.007275  0  0  0.362028  0  0.992837  0  0  0.275214  0.344635  0  1.017274  0
C  C60  1  0.39832153  0.52772286  0.40974360  1  0  0.663079  0  3.850759  0  0  0.610673  0  4.152914  0  0  0.641855  0  4.147562  0  0  0.227845  0.589696  0  4.155544  0
C  C61  1  0.10166756  0.97227137  0.90974168  1  0  0.662946  0  3.85088  0  0  0.61057  0  4.153029  0  0  0.641743  0  4.147677  0  0  0.227726  0.589591  0  4.155659  0
C  C62  1  0.60166375  0.47227250  0.59025773  1  0  0.66298  0  3.850663  0  0  0.610641  0  4.152751  0  0  0.641804  0  4.147399  0  0  0.227732  0.589653  0  4.155394  0
C  C63  1  0.89835833  0.02773749  0.09025808  1  0  0.662883  0  3.850822  0  0  0.610745  0  4.15268  0  0  0.641907  0  4.147325  0  0  0.227756  0.589755  0  4.155335  0
C  C64  1  0.31189370  0.44435044  0.36460054  1  0  0.021256  0  3.673561  0  0  -0.000254  0  3.911616  0  0  -0.000632  0  3.923562  0  0  0.001475  -0.000147  0  3.90368  0
C  C65  1  0.18809139  0.05563919  0.86459937  1  0  0.021418  0  3.673343  0  0  -0.000101  0  3.911407  0  0  -0.000491  0  3.923406  0  0  0.001559  1.2e-05  0  3.903467  0
C  C66  1  0.68809464  0.55565350  0.63539828  1  0  0.021489  0  3.673158  0  0  1e-06  0  3.911155  0  0  -0.000402  0  3.923191  0  0  0.001656  9.1e-05  0  3.903224  0
C  C67  1  0.81191531  0.94435604  0.13539850  1  0  0.021456  0  3.673315  0  0  -0.000144  0  3.911427  0  0  -0.000558  0  3.923444  0  0  0.001684  -5.5e-05  0  3.903495  0
C  C68  1  0.41644383  0.64079250  0.33388384  1  0  0.045922  0  3.739309  0  0  0.064085  0  3.973884  0  0  0.064192  0  3.997743  0  0  -0.011396  0.063895  0  3.957796  0
C  C69  1  0.08354054  0.85920924  0.83387995  1  0  0.045737  0  3.739169  0  0  0.063824  0  3.973886  0  0  0.063932  0  3.997746  0  0  -0.011432  0.063635  0  3.957792  0
C  C70  1  0.58353942  0.35923724  0.66611812  1  0  0.046  0  3.739125  0  0  0.064049  0  3.973924  0  0  0.064153  0  3.997782  0  0  -0.011326  0.06386  0  3.957839  0
C  C71  1  0.91645534  0.14077575  0.16611887  1  0  0.046141  0  3.739129  0  0  0.064232  0  3.973875  0  0  0.064344  0  3.997734  0  0  -0.011284  0.064036  0  3.957799  0
C  C72  1  0.30588273  0.81505502  0.33027224  1  0  -0.109823  0  3.727023  0  0  -0.129429  0  3.970028  0  0  -0.131621  0  3.989447  0  0  -0.090639  -0.127873  0  3.957374  0
C  C73  1  0.19410889  0.68493296  0.83026799  1  0  -0.109735  0  3.72684  0  0  -0.129297  0  3.969878  0  0  -0.131484  0  3.989295  0  0  -0.090586  -0.127733  0  3.957217  0
C  C74  1  0.69409802  0.18496271  0.66973255  1  0  -0.109998  0  3.726926  0  0  -0.129561  0  3.970065  0  0  -0.131746  0  3.989475  0  0  -0.090727  -0.128  0  3.957397  0
C  C75  1  0.80589218  0.31503652  0.16973177  1  0  -0.110036  0  3.727  0  0  -0.129589  0  3.970094  0  0  -0.131788  0  3.989506  0  0  -0.090744  -0.128034  0  3.957443  0
C  C76  1  0.39944593  0.99256520  0.30137183  1  0  -0.081294  0  3.804439  0  0  -0.09219  0  4.051229  0  0  -0.093543  0  4.071389  0  0  -0.098642  -0.091009  0  4.037615  0
C  C77  1  0.10054909  0.50744017  0.80137142  1  0  -0.081357  0  3.804637  0  0  -0.092241  0  4.051412  0  0  -0.093594  0  4.071571  0  0  -0.09864  -0.091063  0  4.037785  0
C  C78  1  0.60053845  0.00745767  0.69862761  1  0  -0.081271  0  3.804719  0  0  -0.09212  0  4.051486  0  0  -0.093472  0  4.071643  0  0  -0.098604  -0.090933  0  4.037863  0
C  C79  1  0.89944388  0.49255170  0.19862896  1  0  -0.081391  0  3.804473  0  0  -0.092254  0  4.051241  0  0  -0.093607  0  4.071403  0  0  -0.09863  -0.091083  0  4.037634  0
C  C80  1  0.60817070  0.00234466  0.27627176  1  0  -0.101068  0  3.800039  0  0  -0.113946  0  4.045872  0  0  -0.115784  0  4.067114  0  0  -0.105318  -0.112563  0  4.031041  0
C  C81  1  0.89180246  0.49762289  0.77627091  1  0  -0.101106  0  3.799295  0  0  -0.113967  0  4.045142  0  0  -0.115812  0  4.066377  0  0  -0.105333  -0.112582  0  4.030312  0
C  C82  1  0.39180458  0.99766280  0.72373052  1  0  -0.101294  0  3.799402  0  0  -0.114176  0  4.045271  0  0  -0.116015  0  4.066522  0  0  -0.105451  -0.112786  0  4.03043  0
C  C83  1  0.10817775  0.50234328  0.22373011  1  0  -0.101211  0  3.799584  0  0  -0.11408  0  4.045465  0  0  -0.115933  0  4.066697  0  0  -0.105407  -0.112697  0  4.030636  0
C  C84  1  0.72183169  0.83151894  0.28025422  1  0  -0.07228  0  3.792231  0  0  -0.082846  0  4.036426  0  0  -0.084777  0  4.058862  0  0  -0.097327  -0.081446  0  4.021447  0
C  C85  1  0.77814186  0.66847934  0.78025594  1  0  -0.072329  0  3.792036  0  0  -0.082941  0  4.036263  0  0  -0.084876  0  4.058708  0  0  -0.097327  -0.08155  0  4.021277  0
C  C86  1  0.27814805  0.16851599  0.71974333  1  0  -0.072449  0  3.792183  0  0  -0.082993  0  4.036415  0  0  -0.084932  0  4.058861  0  0  -0.09728  -0.081603  0  4.021425  0
C  C87  1  0.22183974  0.33150573  0.21974665  1  0  -0.0723  0  3.791993  0  0  -0.08289  0  4.036184  0  0  -0.084823  0  4.058626  0  0  -0.097266  -0.081487  0  4.021193  0
C  C88  1  0.62527654  0.65147518  0.30860069  1  0  -0.117707  0  3.751383  0  0  -0.137807  0  4.000488  0  0  -0.140345  0  4.021357  0  0  -0.095044  -0.136059  0  3.986804  0
C  C89  1  0.87471196  0.84850216  0.80859699  1  0  -0.117469  0  3.75173  0  0  -0.137588  0  4.000837  0  0  -0.140129  0  4.021712  0  0  -0.095019  -0.13583  0  3.987135  0
C  C90  1  0.37470834  0.34853909  0.69140127  1  0  -0.117292  0  3.751628  0  0  -0.137365  0  4.000709  0  0  -0.139897  0  4.021574  0  0  -0.094963  -0.135613  0  3.987016  0
C  C91  1  0.12529329  0.15146902  0.19140246  1  0  -0.117456  0  3.751406  0  0  -0.137525  0  4.000517  0  0  -0.140061  0  4.02138  0  0  -0.095024  -0.135779  0  3.986833  0
N  N92  1  0.03677086  0.33804327  0.36356203  1  0  -0.632783  0  3.050494  0  0  -0.596461  0  3.272812  0  0  -0.611096  0  3.270763  0  0  -0.609333  -0.58592  0  3.273953  0
N  N93  1  0.46321714  0.16194978  0.86356084  1  0  -0.632922  0  3.050355  0  0  -0.596551  0  3.272684  0  0  -0.611186  0  3.270635  0  0  -0.609427  -0.586008  0  3.273822  0
N  N94  1  0.96322636  0.66195545  0.63643741  1  0  -0.632959  0  3.050282  0  0  -0.596573  0  3.272581  0  0  -0.611212  0  3.270528  0  0  -0.609404  -0.586031  0  3.27373  0
N  N95  1  0.53679017  0.83804716  0.13643546  1  0  -0.632845  0  3.050186  0  0  -0.596509  0  3.272514  0  0  -0.611143  0  3.270468  0  0  -0.609429  -0.58597  0  3.273662  0
O  O96  1  0.62844429  0.54738645  0.41832724  1  0  -0.684576  0  2.024964  0  0  -0.610229  0  2.239104  0  0  -0.636213  0  2.228354  0  0  -0.312655  -0.592261  0  2.246355  0
O  O97  1  0.87155246  0.95261401  0.91832743  1  0  -0.684541  0  2.025093  0  0  -0.610216  0  2.239218  0  0  -0.636167  0  2.22844  0  0  -0.312598  -0.592237  0  2.246455  0
O  O98  1  0.37155298  0.45261743  0.58167220  1  0  -0.684592  0  2.025186  0  0  -0.610279  0  2.239315  0  0  -0.636197  0  2.228524  0  0  -0.312615  -0.592282  0  2.24654  0
O  O99  1  0.12847159  0.04738970  0.08167642  1  0  -0.684516  0  2.025013  0  0  -0.610344  0  2.239137  0  0  -0.63624  0  2.228326  0  0  -0.312677  -0.592335  0  2.246354  0
O  O100  1  0.24186923  0.57000674  0.43409905  1  0  -0.642447  0  1.948501  0  0  -0.586121  0  2.173884  0  0  -0.608897  0  2.163151  0  0  -0.341242  -0.570093  0  2.180955  0
O  O101  1  0.25812211  0.92998211  0.93409682  1  0  -0.642366  0  1.948537  0  0  -0.586072  0  2.173878  0  0  -0.608847  0  2.163148  0  0  -0.341204  -0.570051  0  2.180952  0
O  O102  1  0.75812670  0.42998340  0.56590165  1  0  -0.642457  0  1.948257  0  0  -0.586141  0  2.17357  0  0  -0.608914  0  2.162844  0  0  -0.341202  -0.570114  0  2.180648  0
O  O103  1  0.74190601  0.07001298  0.06590011  1  0  -0.642347  0  1.948445  0  0  -0.586208  0  2.173785  0  0  -0.608986  0  2.163061  0  0  -0.34127  -0.570189  0  2.180873  0
O  O104  1  0.80735010  0.72693244  0.49746156  1  0  -0.901028  0  1.791252  0  0  -0.854263  0  1.964077  0  0  -0.870884  0  1.931414  0  0  -0.680275  -0.842494  0  1.987003  0
O  O105  1  0.69267014  0.77306207  0.99746123  1  0  -0.900944  0  1.791349  0  0  -0.854242  0  1.964064  0  0  -0.870862  0  1.931403  0  0  -0.680323  -0.842474  0  1.986988  0
O  O106  1  0.19264426  0.27307833  0.50253883  1  0  -0.901059  0  1.791112  0  0  -0.854228  0  1.964028  0  0  -0.87085  0  1.931376  0  0  -0.680261  -0.84246  0  1.986957  0
O  O107  1  0.30735955  0.22691239  0.00253758  1  0  -0.901035  0  1.791235  0  0  -0.854212  0  1.964122  0  0  -0.870828  0  1.931476  0  0  -0.680231  -0.842447  0  1.987048  0
O  O108  1  0.35417771  0.86080868  0.54247511  1  0  -0.923704  0  1.785226  0  0  -0.881834  0  1.957158  0  0  -0.897358  0  1.924408  0  0  -0.704641  -0.870844  0  1.980202  0
O  O109  1  0.14582604  0.63918670  0.04247788  1  0  -0.92373  0  1.785253  0  0  -0.881877  0  1.957136  0  0  -0.897399  0  1.924384  0  0  -0.704641  -0.870883  0  1.980184  0
O  O110  1  0.64581772  0.13919005  0.45752151  1  0  -0.923708  0  1.785226  0  0  -0.881869  0  1.957195  0  0  -0.897377  0  1.924401  0  0  -0.704645  -0.870881  0  1.980224  0
O  O111  1  0.85418116  0.36079993  0.95752408  1  0  -0.923597  0  1.785341  0  0  -0.881771  0  1.957243  0  0  -0.897282  0  1.924474  0  0  -0.704623  -0.87078  0  1.980282  0
O  O112  1  0.97878601  0.97537894  0.41433247  1  0  -0.866396  0  1.863478  0  0  -0.809174  0  2.037134  0  0  -0.828767  0  2.007602  0  0  -0.635292  -0.79518  0  2.057654  0
O  O113  1  0.52121214  0.52462154  0.91433175  1  0  -0.866345  0  1.863445  0  0  -0.809103  0  2.037149  0  0  -0.828695  0  2.007621  0  0  -0.635249  -0.795106  0  2.057678  0
O  O114  1  0.02121968  0.02463348  0.58566729  1  0  -0.866498  0  1.863249  0  0  -0.809241  0  2.037053  0  0  -0.828849  0  2.007483  0  0  -0.635371  -0.795239  0  2.057591  0
O  O115  1  0.47880705  0.47537361  0.08566644  1  0  -0.866272  0  1.863483  0  0  -0.809047  0  2.037263  0  0  -0.828645  0  2.007655  0  0  -0.635265  -0.795043  0  2.057786  0
