# generated using pymatgen
data_Cu3H26C44(N6O19)2
_symmetry_space_group_name_H-M   'P 1'
_cell_length_a   11.59736348
_cell_length_b   11.99957430
_cell_length_c   12.74515705
_cell_angle_alpha   73.29314435
_cell_angle_beta   71.34258283
_cell_angle_gamma   62.37939865
_symmetry_Int_Tables_number   1
_chemical_formula_structural   Cu3H26C44(N6O19)2
_chemical_formula_sum   'Cu3 H26 C44 N12 O38'
_cell_volume   1468.34090073
_cell_formula_units_Z   1
loop_
 _symmetry_equiv_pos_site_id
 _symmetry_equiv_pos_as_xyz
  1  'x, y, z'
loop_
 _atom_site_type_symbol
 _atom_site_label
 _atom_site_symmetry_multiplicity
 _atom_site_fract_x
 _atom_site_fract_y
 _atom_site_fract_z
 _atom_site_occupancy
 _atom_site_pbe_cm5_charge
 _atom_site_pbe_ddec_charge
 _atom_site_pbe_ddec_spin_density
 _atom_site_pbe_ddec_sum_bond_order
 _atom_site_pbe_magmom
Cu  Cu0  1  0.11416405  0.42578601  0.02244751  1  0.69663  0.840942  0.728375  2.314702  0.551
Cu  Cu1  1  0.88583589  0.57422429  0.97754698  1  0.696691  0.841121  -0.707274  2.314591  -0.552
Cu  Cu2  1  0.50000611  0.99999645  0.00000351  1  0.726501  0.90742  -0.771535  2.113258  -0.604
H  H3  1  0.80126628  0.90616422  0.10743963  1  0.127406  0.148871  -0.000178  0.996404  0.0
H  H4  1  0.19873736  0.09382891  0.89256155  1  0.127405  0.148823  0.000199  0.996517  0.0
H  H5  1  0.03205378  0.07198920  0.16524320  1  0.129556  0.151834  -1.3e-05  0.988388  0.0
H  H6  1  0.96793979  0.92802111  0.83475392  1  0.129586  0.151902  -4e-06  0.988366  0.0
H  H7  1  0.22347275  0.68864102  0.09254543  1  0.1307  0.146979  0.000225  0.972468  0.0
H  H8  1  0.77653609  0.31136545  0.90745457  1  0.130763  0.147042  -0.000224  0.972665  0.0
H  H9  1  0.39141390  0.03725476  0.32563658  1  0.122636  0.132847  -0.000125  1.013517  0.0
H  H10  1  0.60858700  0.96273837  0.67436775  1  0.122647  0.132854  -0.000124  1.01342  0.0
H  H11  1  0.19899396  0.30304369  0.55904287  1  0.127764  0.144102  -2.9e-05  1.001965  0.0
H  H12  1  0.80100076  0.69695326  0.44095986  1  0.127756  0.144141  -2.9e-05  1.001965  0.0
H  H13  1  0.22693773  0.44242799  0.20348095  1  0.122842  0.142277  -2e-05  1.019455  0.0
H  H14  1  0.77306996  0.55756419  0.79651696  1  0.122806  0.142198  -1.4e-05  1.019525  0.0
H  H15  1  0.37405148  0.52314303  0.72742970  1  0.13074  0.147081  0.000241  0.97718  0.0
H  H16  1  0.62595072  0.47685774  0.27256513  1  0.130723  0.147089  -0.000251  0.977223  0.0
H  H17  1  0.34975437  0.78612811  0.41410536  1  0.127643  0.138018  6e-06  1.016786  0.0
H  H18  1  0.65023982  0.21387648  0.58589311  1  0.127644  0.138056  6e-06  1.016713  0.0
H  H19  1  0.64433854  0.77974385  0.04743075  1  0.300474  0.339059  -0.000426  0.992133  0.0
H  H20  1  0.35566518  0.22025119  0.95257303  1  0.300451  0.339121  -0.0005  0.992042  0.0
H  H21  1  0.99338675  0.75315528  0.63604623  1  0.123238  0.136727  -0.000254  0.994065  0.0
H  H22  1  0.00661170  0.24684358  0.36395491  1  0.123257  0.13672  0.000268  0.994057  0.0
H  H23  1  0.66623578  0.71961554  0.23096103  1  0.099385  0.112027  -0.00455  0.990052  -0.006
H  H24  1  0.33376804  0.28038141  0.76904064  1  0.099384  0.112061  -0.004515  0.990054  -0.006
H  H25  1  0.49068781  0.80038905  0.23587235  1  0.089359  0.084348  -0.000738  1.039823  -0.001
H  H26  1  0.50931501  0.19960599  0.76412855  1  0.089373  0.084369  -0.000726  1.039778  -0.001
H  H27  1  0.57981813  0.88311417  0.24969410  1  0.099065  0.108869  0.0001  1.010671  0.0
H  H28  1  0.42018276  0.11687896  0.75031023  1  0.099055  0.108905  9.9e-05  1.010565  0.0
C  C29  1  0.00714395  0.67753646  0.06502326  1  0.21994  0.574182  -0.000106  4.164842  0.0
C  C30  1  0.99286320  0.32246334  0.93497668  1  0.219942  0.574048  0.000221  4.164792  0.0
C  C31  1  0.01135737  0.78520385  0.09837290  1  -0.001585  0.003169  -0.000272  3.910721  0.0
C  C32  1  0.98864634  0.21479977  0.90162308  1  -0.001578  0.003194  0.000324  3.910758  0.0
C  C33  1  0.89600552  0.89696954  0.11574437  1  -0.049471  -0.093726  0.000685  3.850737  0.001
C  C34  1  0.10400286  0.10302741  0.88425285  1  -0.049475  -0.093651  -0.000496  3.850713  -0.001
C  C35  1  0.90542287  0.99700401  0.14216215  1  0.079999  0.066152  0.000362  3.939423  0.0
C  C36  1  0.09457355  0.00299963  0.85783594  1  0.080006  0.066193  -0.000385  3.939654  0.0
C  C37  1  0.02570406  0.99180426  0.14775503  1  -0.055742  -0.143108  7.2e-05  3.925623  0.0
C  C38  1  0.97429254  0.00820319  0.85224434  1  -0.055811  -0.14321  6e-05  3.925987  0.0
C  C39  1  0.13835051  0.87928109  0.12853144  1  0.081507  0.069197  -0.00044  3.94893  -0.001
C  C40  1  0.86165187  0.12072348  0.87147174  1  0.081492  0.069194  0.000432  3.949131  0.0
C  C41  1  0.13325797  0.77494624  0.10664818  1  -0.051739  -0.096631  -0.00051  3.887374  -0.001
C  C42  1  0.86674277  0.22506215  0.89335209  1  -0.051804  -0.096735  0.000688  3.88776  0.001
C  C43  1  0.35947379  0.20658352  0.13440443  1  0.231723  0.609479  -0.001489  4.115066  0.001
C  C44  1  0.64052862  0.79341248  0.86559555  1  0.231689  0.609489  -0.000561  4.115025  0.002
C  C45  1  0.31492855  0.23637577  0.25149485  1  0.002303  -0.000206  -0.004924  3.900917  -0.005
C  C46  1  0.68507448  0.76361451  0.74850649  1  0.002258  -0.000267  -0.005015  3.900874  -0.006
C  C47  1  0.33998442  0.13497062  0.34114236  1  -0.049768  -0.093362  -5.5e-05  3.863876  0.0
C  C48  1  0.66001780  0.86502157  0.65885870  1  -0.049763  -0.093353  8.4e-05  3.863791  0.0
C  C49  1  0.29746697  0.16063596  0.45011585  1  0.081775  0.072886  1.7e-05  3.936972  0.0
C  C50  1  0.70253039  0.83935909  0.54988742  1  0.081719  0.07279  -1.1e-05  3.937132  0.0
C  C51  1  0.23137526  0.28419248  0.47368346  1  -0.055295  -0.1376  -2.5e-05  3.92587  0.0
C  C52  1  0.76862168  0.71580352  0.52631967  1  -0.055253  -0.137506  9.7e-05  3.925995  0.0
C  C53  1  0.20899947  0.38304815  0.38270699  1  0.083652  0.075256  -0.000418  3.925058  -0.001
C  C54  1  0.79100245  0.61694689  0.61729182  1  0.083633  0.075118  -0.00046  3.925212  -0.001
C  C55  1  0.24843516  0.36217406  0.27200101  1  -0.046987  -0.089371  -0.000919  3.834469  -0.001
C  C56  1  0.75157111  0.63781717  0.72800227  1  -0.046897  -0.08917  -0.000858  3.834454  -0.001
C  C57  1  0.11048653  0.57667784  0.80311253  1  0.220581  0.577831  0.000237  4.157972  0.0
C  C58  1  0.88952379  0.42331243  0.19688906  1  0.220591  0.577905  -0.000111  4.157948  0.0
C  C59  1  0.17692433  0.63069672  0.69254883  1  0.00319  0.008105  3.8e-05  3.905368  0.0
C  C60  1  0.82307677  0.36930023  0.30744892  1  0.003116  0.007958  -1.6e-05  3.905375  0.0
C  C61  1  0.31471603  0.59343693  0.66825979  1  -0.045168  -0.087667  -0.000379  3.868843  -0.001
C  C62  1  0.68528567  0.40656289  0.33173466  1  -0.045087  -0.087564  0.000355  3.86876  0.001
C  C63  1  0.37408011  0.65030440  0.56836401  1  0.081223  0.069762  -0.000398  3.933495  0.0
C  C64  1  0.62591582  0.34969828  0.43163055  1  0.081117  0.069615  0.000407  3.933387  0.0
C  C65  1  0.30171200  0.74232123  0.49128173  1  -0.051678  -0.125423  6.9e-05  3.90691  0.0
C  C66  1  0.69828251  0.25768050  0.50871507  1  -0.051704  -0.125474  -4.9e-05  3.906906  0.0
C  C67  1  0.16498130  0.77632700  0.51796930  1  0.084646  0.071047  0.000375  3.928447  0.0
C  C68  1  0.83501321  0.22367473  0.48202907  1  0.084681  0.071059  -0.000368  3.928392  0.0
C  C69  1  0.10081751  0.72279926  0.61721490  1  -0.043866  -0.07656  0.000485  3.858097  0.001
C  C70  1  0.89918054  0.27720056  0.38278531  1  -0.043825  -0.076462  -0.000455  3.858049  -0.001
C  C71  1  0.58531577  0.81137616  0.20911911  1  -0.152933  -0.115705  -0.004085  3.876613  -0.002
C  C72  1  0.41468745  0.18861793  0.79088429  1  -0.152877  -0.115705  -0.004047  3.876446  -0.002
N  N73  1  0.26908217  0.87147497  0.12664086  1  0.05588  0.516297  0.000736  4.207292  0.001
N  N74  1  0.73091381  0.12853820  0.87335793  1  0.055821  0.516177  0.000943  4.20736  0.001
N  N75  1  0.78472357  0.11627258  0.15853738  1  0.055146  0.504773  9.6e-05  4.231495  0.0
N  N76  1  0.21526842  0.88372439  0.84146300  1  0.055148  0.504603  -0.000108  4.231824  0.0
N  N77  1  0.32412793  0.05352366  0.54401973  1  0.061283  0.524337  2e-06  4.191473  0.0
N  N78  1  0.67586920  0.94647615  0.45598624  1  0.061327  0.524449  -0.0  4.191647  0.0
N  N79  1  0.14061460  0.51464859  0.40633373  1  0.059524  0.51747  -0.000116  4.216747  0.0
N  N80  1  0.85938599  0.48534742  0.59366442  1  0.059491  0.517413  -0.000114  4.217054  0.0
N  N81  1  0.08569344  0.87395082  0.43848564  1  0.060375  0.518674  0.000101  4.196868  0.0
N  N82  1  0.91430025  0.12605281  0.56151324  1  0.060358  0.518844  -9.4e-05  4.196519  0.0
N  N83  1  0.51895961  0.61200303  0.54355991  1  0.059353  0.510502  -9.3e-05  4.192862  0.0
N  N84  1  0.48103569  0.38800537  0.45643486  1  0.059202  0.510203  9.3e-05  4.193146  0.0
O  O85  1  0.10799577  0.57108685  0.07132007  1  -0.30028  -0.508796  0.056425  2.387051  0.077
O  O86  1  0.89201349  0.42891867  0.92867537  1  -0.300258  -0.508717  -0.054854  2.386935  -0.077
O  O87  1  0.09583218  0.29658181  0.96875721  1  -0.301494  -0.501769  0.057289  2.388359  0.078
O  O88  1  0.90416767  0.70341799  0.03125268  1  -0.301518  -0.50187  -0.056526  2.388396  -0.079
O  O89  1  0.36132611  0.76444511  0.13744317  1  -0.110156  -0.304737  0.000694  1.914779  0.001
O  O90  1  0.63867534  0.23556805  0.86255011  1  -0.110115  -0.304688  0.000709  1.914879  0.001
O  O91  1  0.27895995  0.97386464  0.11259636  1  -0.115328  -0.340059  0.00045  2.038559  0.0
O  O92  1  0.72103248  0.02615043  0.88740452  1  -0.115282  -0.339965  0.000792  2.038565  0.0
O  O93  1  0.79266733  0.19794731  0.19404904  1  -0.126228  -0.327098  0.000166  1.966749  0.0
O  O94  1  0.20730937  0.80205347  0.80595944  1  -0.126229  -0.327043  -0.000194  1.96707  0.0
O  O95  1  0.68432942  0.12860314  0.13352557  1  -0.117639  -0.316116  4.4e-05  1.970575  0.0
O  O96  1  0.31566898  0.87138524  0.86646977  1  -0.117631  -0.316008  2e-05  1.970549  0.0
O  O97  1  0.31457964  0.29290619  0.05462135  1  -0.309608  -0.535341  -0.001346  2.300446  -0.001
O  O98  1  0.68542641  0.70708980  0.94538150  1  -0.309583  -0.535301  -0.00017  2.300305  -0.001
O  O99  1  0.44209893  0.09172795  0.12481109  1  -0.310461  -0.528373  -0.057983  2.397954  -0.082
O  O100  1  0.55791622  0.90826804  0.87518677  1  -0.310421  -0.528375  -0.057555  2.398038  -0.081
O  O101  1  0.38493787  0.94372702  0.52147429  1  -0.133308  -0.341797  -1.4e-05  1.954575  0.0
O  O102  1  0.61505592  0.05626993  0.47853656  1  -0.133285  -0.341811  -2.6e-05  1.954649  0.0
O  O103  1  0.28536376  0.07901077  0.64028409  1  -0.120911  -0.325244  -1.2e-05  1.969697  0.0
O  O104  1  0.71463638  0.92099476  0.35972104  1  -0.120911  -0.325255  -0.0  1.969766  0.0
O  O105  1  0.10860129  0.52918905  0.50567653  1  -0.128606  -0.341905  -0.000202  2.0066  0.0
O  O106  1  0.89139626  0.47080981  0.49432016  1  -0.128573  -0.341875  -0.000224  2.00659  0.0
O  O107  1  0.11874530  0.60329381  0.32597440  1  -0.126473  -0.322588  7.6e-05  1.949812  0.0
O  O108  1  0.88125298  0.39670125  0.67402075  1  -0.126474  -0.322549  -5.4e-05  1.950059  0.0
O  O109  1  0.18716063  0.48997025  0.86544791  1  -0.301237  -0.503088  0.056983  2.343523  0.078
O  O110  1  0.81284568  0.51001241  0.13455139  1  -0.301405  -0.503383  -0.055578  2.343493  -0.078
O  O111  1  0.01656985  0.37540301  0.17426870  1  -0.304451  -0.512543  0.05759  2.356126  0.078
O  O112  1  0.98343839  0.62460060  0.82573539  1  -0.304593  -0.512758  -0.055808  2.356093  -0.078
O  O113  1  0.58134211  0.53018532  0.61389278  1  -0.122322  -0.325284  -3.6e-05  1.946348  0.0
O  O114  1  0.41865175  0.46983071  0.38610350  1  -0.122276  -0.325172  8e-06  1.946308  0.0
O  O115  1  0.57074267  0.66227292  0.45347083  1  -0.114023  -0.315907  -0.00033  1.968853  0.0
O  O116  1  0.42925272  0.33773739  0.54652262  1  -0.113884  -0.315699  -5.9e-05  1.969077  0.0
O  O117  1  0.14469705  0.92484867  0.35387702  1  -0.126414  -0.328993  0.000155  1.97368  0.0
O  O118  1  0.85529400  0.07515688  0.64612368  1  -0.126422  -0.329084  -0.000182  1.97351  0.0
O  O119  1  0.96446144  0.90101060  0.46069874  1  -0.130273  -0.336033  2.3e-05  1.958575  0.0
O  O120  1  0.03553074  0.09899017  0.53930370  1  -0.130278  -0.336106  -1.6e-05  1.958546  0.0
O  O121  1  0.61629842  0.85130753  0.08973321  1  -0.409257  -0.441619  -0.054094  2.593974  -0.076
O  O122  1  0.38369621  0.14868752  0.91027085  1  -0.409259  -0.441767  -0.053753  2.593803  -0.076
