# generated using pymatgen
data_AgH10C9(NO3)2
_symmetry_space_group_name_H-M   'P 1'
_cell_length_a   8.50308689
_cell_length_b   10.91635136
_cell_length_c   12.67585899
_cell_angle_alpha   90.15742584
_cell_angle_beta   70.41959180
_cell_angle_gamma   90.46983357
_symmetry_Int_Tables_number   1
_chemical_formula_structural   AgH10C9(NO3)2
_chemical_formula_sum   'Ag4 H40 C36 N8 O24'
_cell_volume   1108.52926026
_cell_formula_units_Z   4
loop_
 _symmetry_equiv_pos_site_id
 _symmetry_equiv_pos_as_xyz
  1  'x, y, z'
loop_
 _atom_site_type_symbol
 _atom_site_label
 _atom_site_symmetry_multiplicity
 _atom_site_fract_x
 _atom_site_fract_y
 _atom_site_fract_z
 _atom_site_occupancy
 _atom_site_hle17_bader_spin_density
 _atom_site_hle17_ddec_charge
 _atom_site_hle17_ddec_spin_density
 _atom_site_hle17_ddec_sum_bond_order
 _atom_site_hle17_magmom
 _atom_site_hse06_10hf_bader_spin_density
 _atom_site_hse06_10hf_ddec_charge
 _atom_site_hse06_10hf_ddec_spin_density
 _atom_site_hse06_10hf_ddec_sum_bond_order
 _atom_site_hse06_10hf_magmom
 _atom_site_hse06_bader_spin_density
 _atom_site_hse06_ddec_charge
 _atom_site_hse06_ddec_spin_density
 _atom_site_hse06_ddec_sum_bond_order
 _atom_site_hse06_magmom
 _atom_site_pbe_bader_charge
 _atom_site_pbe_bader_spin_density
 _atom_site_pbe_cm5_charge
 _atom_site_pbe_ddec_charge
 _atom_site_pbe_ddec_spin_density
 _atom_site_pbe_ddec_sum_bond_order
 _atom_site_pbe_magmom
Ag  Ag0  1  0.15276267  0.24986661  0.69406759  1  0  0.612352  0  1.291985  0  0  0.486283  0  1.711808  0  0  0.521243  0  1.658971  0  0.684024  0  0.447219  0.460903  0  1.748736  0
Ag  Ag1  1  0.84723589  0.75013299  0.30593219  1  0  0.612363  0  1.292014  0  0  0.4863  0  1.711836  0  0  0.521258  0  1.659001  0  0.684018  0  0.447234  0.460919  0  1.748773  0
Ag  Ag2  1  0.99999918  0.49999980  0.00000037  1  0  0.516813  0  1.353203  0  0  0.365126  0  1.758476  0  0  0.390931  0  1.728843  0  0.552449  0  0.473895  0.34662  0  1.779738  0
Ag  Ag3  1  0.99999726  0.99999908  0.00000124  1  0  0.517271  0  1.350416  0  0  0.365399  0  1.755982  0  0  0.3915  0  1.725865  0  0.552623  0  0.473484  0.346793  0  1.777354  0
H  H4  1  0.69497009  0.09336217  0.61796926  1  0  0.086304  0  0.919438  0  0  0.100265  0  0.981349  0  0  0.100503  0  0.980199  0  0.102125  0  0.114576  0.099984  0  0.982312  0
H  H5  1  0.68711405  0.40633166  0.61794752  1  0  0.085889  0  0.919405  0  0  0.099769  0  0.981586  0  0  0.099992  0  0.980539  0  0.11511  0  0.114708  0.099491  0  0.982567  0
H  H6  1  0.30503007  0.90664018  0.38202895  1  0  0.086315  0  0.919446  0  0  0.100278  0  0.981353  0  0  0.100518  0  0.9802  0  0.10211  0  0.114585  0.099998  0  0.982315  0
H  H7  1  0.31288473  0.59367161  0.38205334  1  0  0.085876  0  0.919351  0  0  0.099744  0  0.981562  0  0  0.099986  0  0.980501  0  0.115105  0  0.114697  0.099466  0  0.982543  0
H  H8  1  0.87829931  0.02124133  0.62548016  1  0  0.084774  0  0.921658  0  0  0.095951  0  0.988263  0  0  0.096407  0  0.987431  0  0.067376  0  0.112803  0.095491  0  0.989021  0
H  H9  1  0.49646353  0.47871267  0.62541245  1  0  0.084086  0  0.921425  0  0  0.095284  0  0.988227  0  0  0.095752  0  0.987448  0  0.071498  0  0.11299  0.094834  0  0.988982  0
H  H10  1  0.12170225  0.97876011  0.37451540  1  0  0.084829  0  0.921659  0  0  0.095986  0  0.98828  0  0  0.096441  0  0.987452  0  0.067412  0  0.11283  0.095525  0  0.98904  0
H  H11  1  0.50353188  0.52128785  0.37459049  1  0  0.084106  0  0.921429  0  0  0.095307  0  0.988235  0  0  0.09578  0  0.987463  0  0.071814  0  0.11301  0.094855  0  0.98899  0
H  H12  1  0.90997804  0.14639083  0.44547891  1  0  0.072088  0  0.940601  0  0  0.08268  0  1.007129  0  0  0.083109  0  1.006964  0  0.096193  0  0.103422  0.082254  0  1.007453  0
H  H13  1  0.64404543  0.35345140  0.44551275  1  0  0.072208  0  0.94022  0  0  0.082814  0  1.007197  0  0  0.083242  0  1.007076  0  0.110431  0  0.103527  0.082369  0  1.007512  0
H  H14  1  0.09002410  0.85361519  0.55451986  1  0  0.072069  0  0.940576  0  0  0.082657  0  1.007134  0  0  0.083084  0  1.006967  0  0.096107  0  0.10341  0.082232  0  1.007458  0
H  H15  1  0.35595396  0.64655186  0.55448625  1  0  0.072123  0  0.940295  0  0  0.082741  0  1.007282  0  0  0.083167  0  1.007159  0  0.110457  0  0.103491  0.082295  0  1.007593  0
H  H16  1  0.88609883  0.28016347  0.52930523  1  0  0.068249  0  0.934599  0  0  0.081686  0  0.999335  0  0  0.081975  0  0.999173  0  0.07736  0  0.105898  0.081348  0  0.999645  0
H  H17  1  0.58434824  0.21967694  0.52936882  1  0  0.068888  0  0.933506  0  0  0.082459  0  0.998664  0  0  0.082826  0  0.998371  0  0.072012  0  0.105984  0.082089  0  0.998999  0
H  H18  1  0.11390270  0.71984163  0.47069540  1  0  0.068238  0  0.934629  0  0  0.081694  0  0.999362  0  0  0.081979  0  0.999204  0  0.077446  0  0.1059  0.081355  0  0.999673  0
H  H19  1  0.41565213  0.78032725  0.47063046  1  0  0.068843  0  0.933485  0  0  0.082413  0  0.998665  0  0  0.082778  0  0.99837  0  0.072479  0  0.105958  0.082025  0  0.999017  0
H  H20  1  0.56981264  0.05403086  0.03303019  1  0  0.111457  0  0.968973  0  0  0.119109  0  1.032536  0  0  0.122651  0  1.028974  0  0.11807  0  0.110396  0.116501  0  1.035159  0
H  H21  1  0.39681271  0.44631156  0.03295255  1  0  0.111387  0  0.969591  0  0  0.11909  0  1.032696  0  0  0.122582  0  1.029232  0  0.112021  0  0.110649  0.116518  0  1.035246  0
H  H22  1  0.43018783  0.94596600  0.96697016  1  0  0.111478  0  0.968909  0  0  0.11913  0  1.032479  0  0  0.122675  0  1.028908  0  0.118214  0  0.110414  0.116522  0  1.035102  0
H  H23  1  0.60319012  0.55368529  0.96704543  1  0  0.11139  0  0.969627  0  0  0.119139  0  1.03269  0  0  0.122635  0  1.029217  0  0.111915  0  0.110678  0.116567  0  1.035239  0
H  H24  1  0.88546156  0.34056113  0.83540265  1  0  0.080308  0  0.998216  0  0  0.080824  0  1.080326  0  0  0.084911  0  1.074426  0  0.152807  0  0.110747  0.077693  0  1.084688  0
H  H25  1  0.27933385  0.15959715  0.83522518  1  0  0.07997  0  0.998108  0  0  0.080026  0  1.080892  0  0  0.084133  0  1.074936  0  0.145114  0  0.110606  0.076909  0  1.085247  0
H  H26  1  0.11453463  0.65943755  0.16459950  1  0  0.080259  0  0.998253  0  0  0.080785  0  1.080353  0  0  0.084871  0  1.074456  0  0.152769  0  0.110728  0.077652  0  1.08472  0
H  H27  1  0.72066292  0.84039879  0.16477512  1  0  0.079907  0  0.998201  0  0  0.080028  0  1.080932  0  0  0.084137  0  1.074971  0  0.145127  0  0.110603  0.07691  0  1.085293  0
H  H28  1  0.58791389  0.15786483  0.20359383  1  0  0.123291  0  0.94715  0  0  0.131913  0  1.00465  0  0  0.135002  0  1.004346  0  0.132046  0  0.116567  0.129612  0  1.00512  0
H  H29  1  0.20846941  0.34227513  0.20352502  1  0  0.122917  0  0.946938  0  0  0.131565  0  1.004605  0  0  0.13464  0  1.004307  0  0.139502  0  0.116506  0.129258  0  1.005117  0
H  H30  1  0.41208659  0.84213294  0.79640652  1  0  0.123328  0  0.947197  0  0  0.131947  0  1.004672  0  0  0.135035  0  1.004368  0  0.131802  0  0.116589  0.129645  0  1.005143  0
H  H31  1  0.79153091  0.65772447  0.79647426  1  0  0.122874  0  0.947019  0  0  0.131512  0  1.004692  0  0  0.134588  0  1.004395  0  0.13951  0  0.116488  0.129225  0  1.005181  0
H  H32  1  0.76906656  0.34512050  0.18158182  1  0  0.093195  0  0.96428  0  0  0.093745  0  1.040531  0  0  0.098219  0  1.034777  0  0.171326  0  0.116636  0.090378  0  1.044726  0
H  H33  1  0.04958900  0.15490587  0.18141059  1  0  0.094278  0  0.962377  0  0  0.094475  0  1.039431  0  0  0.098994  0  1.033609  0  0.180054  0  0.116786  0.091097  0  1.043625  0
H  H34  1  0.23093236  0.65487910  0.81842010  1  0  0.09318  0  0.964326  0  0  0.093754  0  1.040565  0  0  0.09823  0  1.034806  0  0.171349  0  0.116615  0.090385  0  1.044756  0
H  H35  1  0.95040975  0.84509465  0.81859027  1  0  0.094193  0  0.962487  0  0  0.094434  0  1.039499  0  0  0.098952  0  1.033676  0  0.179653  0  0.116777  0.09106  0  1.043695  0
H  H36  1  0.15164005  0.34359522  0.42679250  1  0  0.071798  0  0.92675  0  0  0.080151  0  0.999486  0  0  0.081768  0  0.997205  0  0.094204  0  0.103254  0.078838  0  1.001283  0
H  H37  1  0.42110341  0.15620854  0.42706554  1  0  0.07131  0  0.927516  0  0  0.079693  0  1.000204  0  0  0.081265  0  0.997962  0  0.062767  0  0.102713  0.078423  0  1.001941  0
H  H38  1  0.84836285  0.65640713  0.57320548  1  0  0.071837  0  0.926768  0  0  0.080182  0  0.99949  0  0  0.081795  0  0.997215  0  0.09424  0  0.103251  0.078878  0  1.001263  0
H  H39  1  0.57889632  0.84379289  0.57293560  1  0  0.071269  0  0.927529  0  0  0.079675  0  1.000201  0  0  0.081247  0  0.997958  0  0.062757  0  0.102699  0.078406  0  1.001936  0
H  H40  1  0.19811866  0.20762947  0.34292952  1  0  0.054366  0  0.926821  0  0  0.071969  0  0.988746  0  0  0.071548  0  0.989132  0  0.037493  0  0.100877  0.072245  0  0.988571  0
H  H41  1  0.45890362  0.29218070  0.34319670  1  0  0.055028  0  0.926491  0  0  0.072247  0  0.988711  0  0  0.071799  0  0.989128  0  0.031775  0  0.101294  0.072553  0  0.988479  0
H  H42  1  0.80188361  0.79237197  0.65707032  1  0  0.054391  0  0.926812  0  0  0.071975  0  0.988737  0  0  0.071553  0  0.989122  0  0.037487  0  0.100875  0.072248  0  0.988565  0
H  H43  1  0.54110040  0.70781981  0.65680263  1  0  0.054962  0  0.926444  0  0  0.072161  0  0.988717  0  0  0.071713  0  0.989134  0  0.031782  0  0.101257  0.072468  0  0.988484  0
C  C44  1  0.72871355  0.18799862  0.92026152  1  0  -0.131821  0  3.786221  0  0  -0.107549  0  4.025939  0  0  -0.121287  0  4.050088  0  0.005386  0  -0.018736  -0.098986  0  4.010144  0
C  C45  1  0.35084086  0.31224486  0.92019610  1  0  -0.130015  0  3.785433  0  0  -0.106177  0  4.025382  0  0  -0.119842  0  4.049338  0  0.007974  0  -0.017732  -0.097677  0  4.009772  0
C  C46  1  0.27128596  0.81199915  0.07973855  1  0  -0.131967  0  3.786482  0  0  -0.107732  0  4.026212  0  0  -0.121473  0  4.05036  0  0.005355  0  -0.018802  -0.099171  0  4.010425  0
C  C47  1  0.64915925  0.68775108  0.07980211  1  0  -0.129958  0  3.78539  0  0  -0.10616  0  4.025352  0  0  -0.119827  0  4.049309  0  0.00794  0  -0.017726  -0.09766  0  4.009742  0
C  C48  1  0.82090909  0.10993512  0.62113031  1  0  0.073722  0  3.562989  0  0  0.003478  0  3.84004  0  0  0.013011  0  3.842407  0  0.361296  0  -0.064858  -0.002883  0  3.838557  0
C  C49  1  0.55796568  0.38993460  0.62113757  1  0  0.075455  0  3.561886  0  0  0.005558  0  3.839557  0  0  0.014949  0  3.842254  0  0.354996  0  -0.065734  -0.000894  0  3.838061  0
C  C50  1  0.17909302  0.89006815  0.37886846  1  0  0.073678  0  3.563001  0  0  0.003429  0  3.840059  0  0  0.012964  0  3.84243  0  0.361274  0  -0.064895  -0.002951  0  3.838575  0
C  C51  1  0.44203309  0.61006683  0.37886329  1  0  0.075425  0  3.561842  0  0  0.005522  0  3.839566  0  0  0.014874  0  3.8423  0  0.354528  0  -0.065762  -0.000934  0  3.838073  0
C  C52  1  0.72334840  0.12052967  0.81902860  1  0  0.595235  0  3.811653  0  0  0.542381  0  4.10799  0  0  0.575919  0  4.101169  0  1.513753  0  0.234246  0.519571  0  4.112434  0
C  C53  1  0.45745237  0.37968908  0.81900125  1  0  0.595316  0  3.813767  0  0  0.542351  0  4.110697  0  0  0.575954  0  4.103764  0  1.514426  0  0.233972  0.519455  0  4.115209  0
C  C54  1  0.27665456  0.87946260  0.18097045  1  0  0.59528  0  3.811491  0  0  0.542486  0  4.107695  0  0  0.576035  0  4.100872  0  1.514038  0  0.234281  0.519653  0  4.112142  0
C  C55  1  0.54255339  0.62031053  0.18099757  1  0  0.595212  0  3.81351  0  0  0.542363  0  4.110273  0  0  0.575969  0  4.103338  0  1.514028  0  0.233959  0.51947  0  4.114786  0
C  C56  1  0.92571435  0.18380019  0.52231244  1  0  0.045784  0  3.653883  0  0  -0.01167  0  3.923037  0  0  -0.005627  0  3.928961  0  0.412473  0  -0.07694  -0.015761  0  3.919069  0
C  C57  1  0.55166342  0.31603380  0.52240952  1  0  0.045466  0  3.652542  0  0  -0.012856  0  3.923725  0  0  -0.006867  0  3.929745  0  0.399258  0  -0.076766  -0.016931  0  3.919826  0
C  C58  1  0.07428601  0.81620399  0.47768684  1  0  0.045821  0  3.653802  0  0  -0.011668  0  3.923032  0  0  -0.005616  0  3.928941  0  0.412495  0  -0.076936  -0.015768  0  3.919077  0
C  C59  1  0.44833694  0.68396947  0.47758976  1  0  0.045705  0  3.652433  0  0  -0.012651  0  3.92366  0  0  -0.006644  0  3.929679  0  0.398819  0  -0.076683  -0.016708  0  3.919755  0
C  C60  1  0.64347145  0.13743149  0.02550615  1  0  -0.012865  0  3.704712  0  0  -0.041908  0  3.953228  0  0  -0.035444  0  3.968834  0  -0.0708  0  -0.06136  -0.045664  0  3.942796  0
C  C61  1  0.33080175  0.36283306  0.02543830  1  0  -0.015885  0  3.705262  0  0  -0.044643  0  3.954021  0  0  -0.038132  0  3.969469  0  -0.076751  0  -0.06261  -0.048461  0  3.943714  0
C  C62  1  0.35652919  0.86256536  0.97449527  1  0  -0.012814  0  3.704689  0  0  -0.04187  0  3.953217  0  0  -0.035404  0  3.968822  0  -0.070742  0  -0.061361  -0.045628  0  3.942786  0
C  C63  1  0.66919854  0.63716379  0.97456098  1  0  -0.015874  0  3.705311  0  0  -0.04467  0  3.954075  0  0  -0.038161  0  3.969528  0  -0.076748  0  -0.062619  -0.048492  0  3.943776  0
C  C64  1  0.82026607  0.29611530  0.91514294  1  0  0.114279  0  3.657161  0  0  0.0708  0  3.906336  0  0  0.080485  0  3.922673  0  0.475286  0  0.046722  0.064373  0  3.895516  0
C  C65  1  0.26457706  0.20403932  0.91500623  1  0  0.115496  0  3.65652  0  0  0.072529  0  3.906061  0  0  0.082229  0  3.922257  0  0.487427  0  0.046867  0.066068  0  3.895365  0
C  C66  1  0.17973248  0.70388338  0.08485685  1  0  0.114394  0  3.657241  0  0  0.070922  0  3.906394  0  0  0.080608  0  3.922731  0  0.475298  0  0.046771  0.064495  0  3.89558  0
C  C67  1  0.73542166  0.79595845  0.08499462  1  0  0.115553  0  3.656473  0  0  0.072544  0  3.905978  0  0  0.082246  0  3.922171  0  0.487453  0  0.04685  0.066082  0  3.895282  0
C  C68  1  0.65291647  0.19526869  0.12087739  1  0  -0.108023  0  3.700866  0  0  -0.118474  0  3.951891  0  0  -0.126739  0  3.971987  0  0.028759  0  -0.078884  -0.113423  0  3.938891  0
C  C69  1  0.22613105  0.30492165  0.12078265  1  0  -0.105853  0  3.698544  0  0  -0.116625  0  3.949527  0  0  -0.124834  0  3.96957  0  0.025857  0  -0.078923  -0.111669  0  3.936654  0
C  C70  1  0.34708482  0.80473091  0.87912217  1  0  -0.108094  0  3.700901  0  0  -0.118527  0  3.951927  0  0  -0.126794  0  3.972024  0  0.028971  0  -0.078901  -0.113476  0  3.938925  0
C  C71  1  0.77386909  0.69507795  0.87921556  1  0  -0.105847  0  3.698558  0  0  -0.116603  0  3.94957  0  0  -0.124813  0  3.969614  0  0.025803  0  -0.078926  -0.111659  0  3.936689  0
C  C72  1  0.75157690  0.30008746  0.10933029  1  0  0.150102  0  3.638473  0  0  0.11343  0  3.889018  0  0  0.123304  0  3.904263  0  0.416735  0  0.055376  0.106918  0  3.878838  0
C  C73  1  0.13917950  0.20002411  0.10917793  1  0  0.14871  0  3.637803  0  0  0.112477  0  3.888005  0  0  0.122253  0  3.903242  0  0.422206  0  0.055422  0.10604  0  3.877835  0
C  C74  1  0.24842341  0.69991123  0.89066899  1  0  0.150127  0  3.638424  0  0  0.113449  0  3.88894  0  0  0.123323  0  3.904182  0  0.416696  0  0.055415  0.106944  0  3.878758  0
C  C75  1  0.86081924  0.79997550  0.89082293  1  0  0.148795  0  3.637838  0  0  0.112505  0  3.888076  0  0  0.122286  0  3.903309  0  0.422656  0  0.055447  0.106059  0  3.877916  0
C  C76  1  0.20055416  0.24962843  0.42176870  1  0  0.053974  0  3.651777  0  0  -0.007137  0  3.923244  0  0  -0.000671  0  3.929345  0  0.428012  0  -0.075072  -0.01145  0  3.918895  0
C  C77  1  0.37737314  0.25018907  0.42191806  1  0  0.053533  0  3.653572  0  0  -0.00723  0  3.9252  0  0  -0.000741  0  3.931294  0  0.423872  0  -0.075791  -0.01157  0  3.920817  0
C  C78  1  0.79944715  0.75037301  0.57823086  1  0  0.053812  0  3.651839  0  0  -0.007226  0  3.923236  0  0  -0.000759  0  3.929326  0  0.427932  0  -0.075079  -0.011539  0  3.918889  0
C  C79  1  0.62262915  0.74981328  0.57808178  1  0  0.053718  0  3.653474  0  0  -0.007088  0  3.925121  0  0  -0.000596  0  3.931212  0  0.423872  0  -0.075738  -0.011428  0  3.920736  0
N  N80  1  0.83411274  0.34961025  0.00790353  1  0  -0.299275  0  3.332201  0  0  -0.200481  0  3.605221  0  0  -0.222505  0  3.623912  0  -1.183984  0  -0.349006  -0.185347  0  3.592288  0
N  N81  1  0.15804565  0.15049765  0.00774061  1  0  -0.30042  0  3.332057  0  0  -0.202136  0  3.605334  0  0  -0.224034  0  3.623853  0  -1.200819  0  -0.349362  -0.187086  0  3.592526  0
N  N82  1  0.16588580  0.65038752  0.99209626  1  0  -0.299272  0  3.332252  0  0  -0.200501  0  3.605281  0  0  -0.222526  0  3.623973  0  -1.184005  0  -0.349025  -0.185376  0  3.592356  0
N  N83  1  0.84195290  0.84950104  0.99225917  1  0  -0.300375  0  3.331945  0  0  -0.202091  0  3.605276  0  0  -0.223989  0  3.623788  0  -1.200832  0  -0.349333  -0.187041  0  3.592471  0
N  N84  1  0.23069638  0.98821138  0.69444427  1  0  0.67921  0  4.141618  0  0  0.707043  0  4.433918  0  0  0.735971  0  4.440701  0  0.792088  0  0.086705  0.689104  0  4.428345  0
N  N85  1  0.07496925  0.51168175  0.69443880  1  0  0.678952  0  4.141057  0  0  0.710915  0  4.4304  0  0  0.738222  0  4.437409  0  0.797788  0  0.088627  0.69124  0  4.425185  0
N  N86  1  0.76930332  0.01178822  0.30555687  1  0  0.679266  0  4.141621  0  0  0.707102  0  4.433922  0  0  0.736031  0  4.440703  0  0.792028  0  0.086752  0.689165  0  4.428348  0
N  N87  1  0.92503046  0.48831877  0.30556234  1  0  0.679089  0  4.141024  0  0  0.710952  0  4.430506  0  0  0.738262  0  4.437512  0  0.797703  0  0.088648  0.691276  0  4.425289  0
O  O88  1  0.80720149  0.17839894  0.72292311  1  0  -0.322472  0  2.32373  0  0  -0.244077  0  2.568279  0  0  -0.267794  0  2.567574  0  -1.043954  0  -0.160621  -0.227885  0  2.568485  0
O  O89  1  0.46982375  0.32163568  0.72295271  1  0  -0.323029  0  2.325207  0  0  -0.244436  0  2.569229  0  0  -0.268209  0  2.568671  0  -1.044048  0  -0.160144  -0.228045  0  2.569316  0
O  O90  1  0.19279902  0.82160158  0.27707724  1  0  -0.322538  0  2.323813  0  0  -0.244093  0  2.568284  0  0  -0.26783  0  2.56759  0  -1.044293  0  -0.160632  -0.227844  0  2.568462  0
O  O91  1  0.53017735  0.67836301  0.27704578  1  0  -0.322991  0  2.325257  0  0  -0.244425  0  2.56925  0  0  -0.268193  0  2.568706  0  -1.044028  0  -0.160113  -0.228036  0  2.569341  0
O  O92  1  0.65166813  0.02164074  0.82368445  1  0  -0.514052  0  1.934561  0  0  -0.471038  0  2.151275  0  0  -0.49177  0  2.14581  0  -1.139906  0  -0.272137  -0.456937  0  2.154842  0
O  O93  1  0.52433864  0.47862747  0.82360066  1  0  -0.514199  0  1.935855  0  0  -0.471195  0  2.152778  0  0  -0.491874  0  2.147198  0  -1.139312  0  -0.272269  -0.457124  0  2.156425  0
O  O94  1  0.34834133  0.97835886  0.17631443  1  0  -0.51406  0  1.934298  0  0  -0.471085  0  2.15098  0  0  -0.491819  0  2.145511  0  -1.13984  0  -0.272152  -0.456984  0  2.154557  0
O  O95  1  0.47566255  0.52136388  0.17639890  1  0  -0.514228  0  1.935476  0  0  -0.471283  0  2.152364  0  0  -0.491963  0  2.146787  0  -1.138855  0  -0.272306  -0.457193  0  2.155972  0
O  O96  1  0.09755715  0.17835222  0.51468317  1  0  -0.3139  0  2.284994  0  0  -0.234294  0  2.541481  0  0  -0.253107  0  2.543067  0  -1.034734  0  -0.234409  -0.220929  0  2.539989  0
O  O97  1  0.38736483  0.32143139  0.51490619  1  0  -0.314378  0  2.285333  0  0  -0.235062  0  2.542441  0  0  -0.253705  0  2.543952  0  -1.041412  0  -0.234376  -0.221755  0  2.540979  0
O  O98  1  0.90244321  0.82165105  0.48531611  1  0  -0.313842  0  2.284987  0  0  -0.234252  0  2.541478  0  0  -0.253063  0  2.543058  0  -1.034708  0  -0.234388  -0.220878  0  2.539983  0
O  O99  1  0.61263552  0.67857096  0.48509309  1  0  -0.314433  0  2.285272  0  0  -0.235091  0  2.542395  0  0  -0.253736  0  2.543899  0  -1.041361  0  -0.23437  -0.221785  0  2.540929  0
O  O100  1  0.09865755  0.04980036  0.75251863  1  0  -0.53886  0  1.858075  0  0  -0.507802  0  2.130598  0  0  -0.530701  0  2.119509  0  -0.587975  0  -0.231193  -0.491485  0  2.137195  0
O  O101  1  0.14843099  0.44993927  0.75276084  1  0  -0.538875  0  1.858432  0  0  -0.509629  0  2.130236  0  0  -0.531836  0  2.119129  0  -0.59619  0  -0.232488  -0.49269  0  2.136954  0
O  O102  1  0.90134313  0.95019924  0.24748279  1  0  -0.538895  0  1.85809  0  0  -0.507842  0  2.130623  0  0  -0.530735  0  2.119526  0  -0.587958  0  -0.231239  -0.491524  0  2.137219  0
O  O103  1  0.85157030  0.55006125  0.24723872  1  0  -0.538919  0  1.858455  0  0  -0.509662  0  2.130316  0  0  -0.53187  0  2.119208  0  -0.596186  0  -0.232495  -0.492723  0  2.137037  0
O  O104  1  0.21836582  0.87419143  0.68945947  1  0  -0.435178  0  1.791103  0  0  -0.418724  0  2.010002  0  0  -0.434014  0  2.005458  0  -0.488889  0  -0.166832  -0.408543  0  2.012766  0
O  O105  1  0.09268004  0.62567972  0.68937768  1  0  -0.435193  0  1.790186  0  0  -0.420533  0  2.008246  0  0  -0.434962  0  2.003494  0  -0.489612  0  -0.167539  -0.409652  0  2.011116  0
O  O106  1  0.78163468  0.12580817  0.31054088  1  0  -0.435184  0  1.791082  0  0  -0.418731  0  2.009985  0  0  -0.434027  0  2.005447  0  -0.488862  0  -0.16683  -0.40855  0  2.012745  0
O  O107  1  0.90732223  0.37432080  0.31062217  1  0  -0.435251  0  1.790199  0  0  -0.420528  0  2.008254  0  0  -0.434955  0  2.0035  0  -0.489585  0  -0.16755  -0.409645  0  2.011121  0
O  O108  1  0.36441816  0.04563400  0.64655401  1  0  -0.446112  0  1.736027  0  0  -0.436774  0  1.954478  0  0  -0.450503  0  1.946171  0  -0.528873  0  -0.187934  -0.427601  0  1.959876  0
O  O109  1  0.98916143  0.45443726  0.64639852  1  0  -0.44601  0  1.735783  0  0  -0.437779  0  1.953013  0  0  -0.450885  0  1.944817  0  -0.526179  0  -0.188084  -0.427829  0  1.958379  0
O  O110  1  0.63557961  0.95436560  0.35344656  1  0  -0.446147  0  1.736062  0  0  -0.436804  0  1.954504  0  0  -0.450534  0  1.946193  0  -0.528854  0  -0.187942  -0.427638  0  1.959914  0
O  O111  1  0.01083829  0.54556326  0.35360262  1  0  -0.44606  0  1.735777  0  0  -0.437793  0  1.953039  0  0  -0.450901  0  1.944846  0  -0.526123  0  -0.188082  -0.427844  0  1.958407  0
