# generated using pymatgen
data_CuH18C12(NO2)2
_symmetry_space_group_name_H-M   'P 1'
_cell_length_a   6.61093106
_cell_length_b   8.98300433
_cell_length_c   10.59210583
_cell_angle_alpha   89.99966670
_cell_angle_beta   89.99977324
_cell_angle_gamma   89.82450124
_symmetry_Int_Tables_number   1
_chemical_formula_structural   CuH18C12(NO2)2
_chemical_formula_sum   'Cu2 H36 C24 N4 O8'
_cell_volume   629.02008242
_cell_formula_units_Z   2
loop_
 _symmetry_equiv_pos_site_id
 _symmetry_equiv_pos_as_xyz
  1  'x, y, z'
loop_
 _atom_site_type_symbol
 _atom_site_label
 _atom_site_symmetry_multiplicity
 _atom_site_fract_x
 _atom_site_fract_y
 _atom_site_fract_z
 _atom_site_occupancy
 _atom_site_hle17_ddec_charge
 _atom_site_hle17_ddec_spin_density
 _atom_site_hle17_ddec_sum_bond_order
 _atom_site_hle17_magmom
 _atom_site_hse06_10hf_ddec_charge
 _atom_site_hse06_10hf_ddec_spin_density
 _atom_site_hse06_10hf_ddec_sum_bond_order
 _atom_site_hse06_10hf_magmom
 _atom_site_hse06_ddec_charge
 _atom_site_hse06_ddec_spin_density
 _atom_site_hse06_ddec_sum_bond_order
 _atom_site_hse06_magmom
 _atom_site_pbe_cm5_charge
 _atom_site_pbe_ddec_charge
 _atom_site_pbe_ddec_spin_density
 _atom_site_pbe_ddec_sum_bond_order
 _atom_site_pbe_magmom
Cu  Cu0  1  0.99999727  0.00001066  0.49999284  1  0.905969  -0.652385  1.653008  -0.48  0.893998  -0.749101  2.037451  -0.595  0.984239  -0.811916  1.965291  -0.675  0.710007  0.836917  -0.706725  2.088992  -0.545
Cu  Cu1  1  0.49999784  0.00000177  0.00000411  1  0.906  -0.652386  1.652916  -0.48  0.894029  -0.749099  2.037392  -0.595  0.98428  -0.811916  1.965194  -0.675  0.709997  0.836972  -0.706724  2.088892  -0.545
H  H2  1  0.12155853  0.34474591  0.68688509  1  0.100683  -0.00011  0.970819  0.0  0.122386  -0.000217  1.029955  0.0  0.124014  -0.000159  1.029393  0.0  0.088539  0.12126  -0.000295  1.030385  0.0
H  H3  1  0.37844909  0.65524451  0.18687487  1  0.10067  -0.000108  0.970991  0.0  0.122397  -0.000217  1.030079  0.0  0.124015  -0.000159  1.029521  0.0  0.088544  0.121271  -0.000295  1.030505  0.0
H  H4  1  0.87844352  0.65524699  0.31311261  1  0.100711  -0.00011  0.970869  0.0  0.122405  -0.000217  1.029998  0.0  0.124033  -0.000159  1.029439  0.0  0.088546  0.121279  -0.000295  1.030425  0.0
H  H5  1  0.62154848  0.34475178  0.81312095  1  0.100667  -0.000107  0.97094  0.0  0.12238  -0.000217  1.030049  0.0  0.124004  -0.000159  1.029493  0.0  0.08852  0.121254  -0.000295  1.030475  0.0
H  H6  1  0.62527997  0.26887571  0.25014337  1  0.119341  -0.000164  0.969033  0.0  0.139707  -0.000153  1.032029  0.0  0.142102  -8.2e-05  1.031384  0.0  0.090284  0.137863  -0.000191  1.032561  0.0
H  H7  1  0.87472011  0.73113009  0.75014828  1  0.11931  -0.000171  0.969056  0.0  0.139655  -0.000152  1.032073  0.0  0.142046  -8.2e-05  1.031434  0.0  0.090278  0.137814  -0.00019  1.0326  0.0
H  H8  1  0.37472223  0.73112610  0.74985528  1  0.119298  -0.000169  0.969038  0.0  0.139647  -0.000152  1.032072  0.0  0.142042  -8.2e-05  1.031427  0.0  0.090268  0.137802  -0.00019  1.032603  0.0
H  H9  1  0.12527752  0.26886954  0.24986075  1  0.119344  -0.000167  0.968962  0.0  0.139686  -0.000152  1.031979  0.0  0.142078  -8.2e-05  1.031338  0.0  0.090274  0.137845  -0.000191  1.032508  0.0
H  H10  1  0.81654165  0.23600768  0.36157714  1  0.107894  0.000388  0.974467  0.0  0.125795  0.000419  1.044127  0.0  0.127205  0.000462  1.043166  0.0  0.08942  0.12461  0.00038  1.04496  0.0
H  H11  1  0.68345613  0.76399291  0.86158614  1  0.107913  0.000378  0.974394  0.0  0.125824  0.000419  1.044036  0.0  0.127235  0.000462  1.043076  0.0  0.089456  0.12464  0.00038  1.04487  0.0
H  H12  1  0.18345594  0.76398973  0.63842056  1  0.107928  0.000381  0.974399  0.0  0.125811  0.000419  1.04408  0.0  0.127222  0.000462  1.043119  0.0  0.089429  0.124626  0.00038  1.04491  0.0
H  H13  1  0.31654454  0.23600780  0.13842572  1  0.107886  0.000381  0.974448  0.0  0.125755  0.000419  1.044144  0.0  0.127165  0.000462  1.043185  0.0  0.08941  0.124571  0.00038  1.044977  0.0
H  H14  1  0.58133008  0.14391453  0.37674744  1  0.115751  8.1e-05  0.982829  0.0  0.132755  9.2e-05  1.04724  0.0  0.134546  0.000103  1.047191  0.0  0.088207  0.132671  9.4e-05  1.044896  0.0
H  H15  1  0.91867511  0.85608252  0.87675637  1  0.115724  7.9e-05  0.982844  0.0  0.132722  9.2e-05  1.047258  0.0  0.134513  0.000103  1.047209  0.0  0.088209  0.132636  9.4e-05  1.044916  0.0
H  H16  1  0.41867207  0.85608394  0.62324837  1  0.115734  8e-05  0.982868  0.0  0.132736  9.2e-05  1.047268  0.0  0.134526  0.000103  1.047219  0.0  0.08822  0.132651  9.4e-05  1.044925  0.0
H  H17  1  0.08132843  0.14390925  0.12325550  1  0.115762  7.3e-05  0.982748  0.0  0.132705  9.2e-05  1.047227  0.0  0.134496  0.000103  1.047178  0.0  0.088199  0.132624  9.4e-05  1.044878  0.0
H  H18  1  0.32475206  0.90204251  0.39083472  1  0.349246  0.000823  0.913381  0.001  0.338084  -0.000121  0.970673  0.0  0.346519  8.7e-05  0.964721  0.0  0.285344  0.331871  -0.000248  0.975525  0.0
H  H19  1  0.17524856  0.09796660  0.89084790  1  0.349212  0.000819  0.913582  0.001  0.338041  -0.000121  0.970874  0.0  0.346477  8.8e-05  0.964921  0.0  0.285358  0.331826  -0.000248  0.975727  0.0
H  H20  1  0.67524558  0.09795824  0.60916015  1  0.349272  0.000824  0.913426  0.001  0.338112  -0.00012  0.970711  0.0  0.346549  8.8e-05  0.964757  0.0  0.28532  0.331896  -0.000248  0.975565  0.0
H  H21  1  0.82475082  0.90204638  0.10915830  1  0.349299  0.000823  0.91341  0.001  0.338118  -0.000121  0.97071  0.0  0.346553  8.8e-05  0.964758  0.0  0.28536  0.331905  -0.000248  0.975563  0.0
H  H22  1  0.19744672  0.50827269  0.76605866  1  0.106672  -4e-06  0.972087  0.0  0.126238  -2.4e-05  1.037869  0.0  0.126716  -1e-05  1.039985  0.0  0.091599  0.125787  -7.8e-05  1.036642  0.0
H  H23  1  0.30256799  0.49171931  0.26605224  1  0.10672  0.0  0.972064  0.0  0.126265  -2.4e-05  1.037877  0.0  0.126747  -1.1e-05  1.039985  0.0  0.091564  0.125814  -7.8e-05  1.036655  0.0
H  H24  1  0.80256585  0.49171674  0.23394281  1  0.106673  4e-06  0.972095  0.0  0.126221  -2.4e-05  1.037907  0.0  0.126698  -1.1e-05  1.040025  0.0  0.091585  0.12577  -7.8e-05  1.036685  0.0
H  H25  1  0.69743121  0.50828364  0.73394923  1  0.106684  5e-06  0.971947  0.0  0.126198  -2.4e-05  1.037827  0.0  0.126679  -1.1e-05  1.039936  0.0  0.091536  0.125746  -7.8e-05  1.036603  0.0
H  H26  1  0.13986626  0.90626629  0.28435658  1  0.350569  0.000695  0.906068  0.001  0.342229  -0.00027  0.95982  0.0  0.350112  -4.1e-05  0.954223  0.0  0.288862  0.336924  -0.000437  0.963459  0.0
H  H27  1  0.36013361  0.09374802  0.78436461  1  0.35049  0.000691  0.905908  0.001  0.342171  -0.000271  0.959663  0.0  0.35005  -4.1e-05  0.954076  0.0  0.288879  0.33687  -0.000438  0.963294  0.0
H  H28  1  0.86013595  0.09373551  0.71564206  1  0.350558  0.000693  0.906016  0.001  0.342225  -0.00027  0.959775  0.0  0.350106  -4.2e-05  0.954186  0.0  0.288841  0.33692  -0.000438  0.963407  0.0
H  H29  1  0.63987020  0.90625933  0.21564253  1  0.350572  0.000695  0.90602  0.001  0.342229  -0.00027  0.959789  0.0  0.350113  -4.1e-05  0.95419  0.0  0.288841  0.336925  -0.000437  0.963421  0.0
H  H30  1  0.02476350  0.52129753  0.63997344  1  0.113611  -1e-06  0.945827  0.0  0.135972  -6.4e-05  1.006364  0.0  0.137462  -3.9e-05  1.006238  0.0  0.093417  0.134593  -0.000108  1.006979  0.0
H  H31  1  0.47524751  0.47869764  0.13996571  1  0.11368  -2e-06  0.945897  0.0  0.136009  -6.4e-05  1.006443  0.0  0.137504  -3.9e-05  1.006318  0.0  0.093407  0.13463  -0.000108  1.007063  0.0
H  H32  1  0.97524921  0.47869970  0.36002521  1  0.113617  -3e-06  0.945889  0.0  0.135958  -6.4e-05  1.006445  0.0  0.137454  -3.9e-05  1.006316  0.0  0.093397  0.134579  -0.000108  1.007062  0.0
H  H33  1  0.52474854  0.52129867  0.86003954  1  0.113633  4e-06  0.945891  0.0  0.135991  -6.4e-05  1.006395  0.0  0.137485  -3.9e-05  1.006269  0.0  0.093395  0.134609  -0.000108  1.007018  0.0
H  H34  1  0.14516991  0.77608833  0.39360523  1  0.32846  0.001636  0.892405  0.001  0.325172  0.000229  0.942615  0.0  0.331354  0.000473  0.940015  0.001  0.295254  0.32097  5e-06  0.944535  0.0
H  H35  1  0.35482626  0.22392637  0.89361359  1  0.328424  0.001637  0.89236  0.001  0.325142  0.000229  0.942586  0.0  0.331324  0.000473  0.939987  0.001  0.295251  0.320937  5e-06  0.944517  0.0
H  H36  1  0.85482185  0.22392139  0.60639530  1  0.328438  0.001637  0.892413  0.001  0.325156  0.000229  0.942615  0.0  0.33134  0.000474  0.940014  0.001  0.295268  0.320953  5e-06  0.944544  0.0
H  H37  1  0.64518216  0.77608426  0.10639450  1  0.328473  0.001637  0.892402  0.001  0.325185  0.000229  0.942606  0.0  0.331369  0.000473  0.940002  0.001  0.295285  0.320981  5e-06  0.944529  0.0
C  C38  1  0.41078562  0.36103168  0.51225370  1  -0.166515  -0.016206  3.729531  -0.016  -0.164835  -0.008275  3.978766  -0.009  -0.170879  -0.005383  3.997975  -0.006  -0.024964  -0.160776  -0.01018  3.966208  -0.011
C  C39  1  0.08920967  0.63897014  0.01225559  1  -0.166491  -0.016158  3.729285  -0.016  -0.164902  -0.008276  3.978697  -0.009  -0.170858  -0.005384  3.997797  -0.006  -0.024948  -0.160882  -0.010181  3.96619  -0.011
C  C40  1  0.58921665  0.63897346  0.48773644  1  -0.166457  -0.0162  3.729658  -0.016  -0.164914  -0.008269  3.978921  -0.009  -0.170899  -0.005381  3.998061  -0.006  -0.024933  -0.160896  -0.010175  3.966404  -0.011
C  C41  1  0.91078622  0.36101727  0.98774589  1  -0.166558  -0.01622  3.72956  -0.016  -0.164901  -0.008268  3.978775  -0.009  -0.17095  -0.005379  3.997993  -0.006  -0.024975  -0.16087  -0.010174  3.966256  -0.011
C  C42  1  0.33366305  0.48145592  0.58216029  1  0.067838  -0.000396  3.727756  0.0  0.079588  -0.000913  3.974003  -0.001  0.080265  -0.000433  3.997348  0.0  -0.016466  0.078849  -0.002186  3.957611  -0.002
C  C43  1  0.16634527  0.51853746  0.08215973  1  0.067927  -0.000439  3.727609  0.0  0.07964  -0.000913  3.973936  -0.001  0.080292  -0.000434  3.997258  0.0  -0.016505  0.078915  -0.002186  3.957558  -0.002
C  C44  1  0.66634365  0.51854360  0.41783930  1  0.067811  -0.000398  3.727851  0.0  0.079598  -0.000915  3.974123  -0.001  0.080259  -0.000435  3.997447  0.0  -0.016471  0.078873  -0.002188  3.957744  -0.002
C  C45  1  0.83365681  0.48145766  0.91784646  1  0.067874  -0.000358  3.727716  0.0  0.07964  -0.000915  3.97402  -0.001  0.080311  -0.000435  3.997373  0.0  -0.016451  0.078923  -0.002188  3.957622  -0.002
C  C46  1  0.57586853  0.37742470  0.42987513  1  0.072804  -0.003128  3.73583  -0.003  0.081486  -0.001934  3.983275  -0.002  0.081708  -0.001078  4.007611  -0.001  -0.016295  0.081453  -0.002099  3.966434  -0.002
C  C47  1  0.92413468  0.62256532  0.92988045  1  0.072868  -0.003182  3.735634  -0.003  0.081484  -0.001933  3.983228  -0.002  0.081682  -0.001078  4.007543  -0.001  -0.016257  0.081464  -0.002098  3.96639  -0.002
C  C48  1  0.42413819  0.62257594  0.57012540  1  0.072731  -0.003151  3.735843  -0.003  0.081497  -0.001934  3.983237  -0.002  0.081697  -0.001079  4.007568  -0.001  -0.016303  0.081481  -0.0021  3.966392  -0.002
C  C49  1  0.07586426  0.37742316  0.07012858  1  0.07269  -0.003112  3.735955  -0.003  0.081499  -0.001935  3.983252  -0.002  0.081716  -0.00108  4.007604  -0.001  -0.01629  0.081479  -0.0021  3.966414  -0.002
C  C50  1  0.31247314  0.21089453  0.52836807  1  0.664667  0.009174  3.903082  0.008  0.620682  0.002727  4.203162  0.003  0.657095  0.00352  4.196055  0.003  0.211961  0.595417  0.001951  4.208395  0.003
C  C51  1  0.18752505  0.78910603  0.02838127  1  0.664695  0.009141  3.902991  0.008  0.620787  0.002723  4.203006  0.003  0.657177  0.003519  4.19589  0.003  0.211976  0.595512  0.001949  4.208264  0.003
C  C52  1  0.68751232  0.78910190  0.47161074  1  0.664658  0.009167  3.903127  0.008  0.620835  0.002722  4.202946  0.003  0.657234  0.003518  4.195829  0.003  0.212125  0.59557  0.001948  4.208178  0.003
C  C53  1  0.81248619  0.21089344  0.97162776  1  0.664943  0.009141  3.902463  0.008  0.620971  0.002725  4.202528  0.003  0.657393  0.00352  4.195407  0.003  0.212124  0.595688  0.001951  4.207796  0.003
C  C54  1  0.16095985  0.46195706  0.67282429  1  -0.327016  7.7e-05  3.717985  0.0  -0.405706  -0.000204  3.953434  0.0  -0.408119  -0.000118  3.963608  0.0  -0.242987  -0.403697  -0.000405  3.946487  0.0
C  C55  1  0.33905243  0.53803563  0.17281756  1  -0.32716  6.2e-05  3.718264  0.0  -0.405828  -0.000203  3.95369  0.0  -0.408238  -0.000117  3.963865  0.0  -0.242935  -0.403816  -0.000404  3.946745  0.0
C  C56  1  0.83904980  0.53803797  0.32717624  1  -0.327027  6.9e-05  3.718084  0.0  -0.405682  -0.000204  3.953488  0.0  -0.408102  -0.000118  3.963672  0.0  -0.242948  -0.403668  -0.000405  3.94654  0.0
C  C57  1  0.66094961  0.46195727  0.82718675  1  -0.327057  5e-05  3.717979  0.0  -0.40571  -0.000204  3.95341  0.0  -0.408122  -0.000118  3.963584  0.0  -0.24288  -0.403699  -0.000404  3.94646  0.0
C  C58  1  0.65203645  0.24978324  0.35141031  1  -0.347299  0.000145  3.711571  0.0  -0.42608  0.000136  3.950982  0.0  -0.429362  0.000311  3.961078  0.0  -0.25235  -0.422871  -2.7e-05  3.941734  0.0
C  C59  1  0.84796440  0.75021627  0.85141803  1  -0.347289  0.000183  3.711256  0.0  -0.426013  0.000135  3.950677  0.0  -0.429295  0.000311  3.960782  0.0  -0.252399  -0.422805  -2.7e-05  3.94142  0.0
C  C60  1  0.34796872  0.75021519  0.64858456  1  -0.347205  0.000169  3.711633  0.0  -0.425976  0.000135  3.951036  0.0  -0.429257  0.000311  3.961141  0.0  -0.252316  -0.422768  -2.7e-05  3.941774  0.0
C  C61  1  0.15203930  0.24978440  0.14859006  1  -0.347304  0.000185  3.711491  0.0  -0.426016  0.000135  3.950931  0.0  -0.429294  0.000311  3.961032  0.0  -0.252336  -0.422808  -2.7e-05  3.941673  0.0
N  N62  1  0.17098513  0.88680077  0.37828976  1  -0.864466  -0.074056  2.941689  -0.092  -0.858165  -0.052054  3.176621  -0.066  -0.89022  -0.042624  3.159106  -0.059  -0.79407  -0.838307  -0.056675  3.190562  -0.068
N  N63  1  0.32901265  0.11321402  0.87829776  1  -0.86441  -0.074048  2.941734  -0.092  -0.858079  -0.052054  3.176645  -0.066  -0.890151  -0.042624  3.15915  -0.059  -0.794108  -0.838222  -0.056675  3.190569  -0.068
N  N64  1  0.82901414  0.11320663  0.62170795  1  -0.86454  -0.074059  2.941758  -0.092  -0.858218  -0.052058  3.176638  -0.066  -0.890282  -0.042626  3.159128  -0.059  -0.794041  -0.838356  -0.056676  3.19059  -0.068
N  N65  1  0.67098970  0.88679558  0.12170844  1  -0.864538  -0.074068  2.941609  -0.092  -0.858215  -0.05206  3.176565  -0.066  -0.890276  -0.042629  3.159047  -0.059  -0.794091  -0.838356  -0.05668  3.190505  -0.068
O  O66  1  0.14788703  0.19165712  0.46533931  1  -0.604116  -0.093717  2.039343  -0.13  -0.569187  -0.064928  2.312143  -0.097  -0.612842  -0.050337  2.305463  -0.082  -0.317666  -0.54073  -0.07417  2.317756  -0.105
O  O67  1  0.35209965  0.80835942  0.96534862  1  -0.604162  -0.093691  2.03946  -0.13  -0.569242  -0.064916  2.31219  -0.097  -0.612893  -0.050329  2.3055  -0.082  -0.317679  -0.540788  -0.074162  2.317804  -0.105
O  O68  1  0.85208548  0.80837621  0.53464329  1  -0.604144  -0.093699  2.039484  -0.13  -0.569268  -0.06492  2.312195  -0.097  -0.612916  -0.050333  2.305504  -0.082  -0.31772  -0.540814  -0.074167  2.31781  -0.105
O  O69  1  0.64789340  0.19163804  0.03465663  1  -0.604253  -0.093713  2.039216  -0.13  -0.569331  -0.064926  2.312019  -0.097  -0.612985  -0.050338  2.305316  -0.082  -0.317751  -0.540876  -0.074171  2.317638  -0.105
O  O70  1  0.38807538  0.11524255  0.60173228  1  -0.641027  0.000962  1.986246  -0.001  -0.593094  0.000103  2.210887  -0.002  -0.61976  0.001307  2.202356  0.0  -0.313102  -0.574317  -0.00197  2.215023  -0.004
O  O71  1  0.11190563  0.88475325  0.10174237  1  -0.641118  0.000965  1.986209  -0.001  -0.593116  0.000102  2.210707  -0.002  -0.619794  0.001306  2.202206  0.0  -0.313099  -0.574333  -0.001971  2.214843  -0.004
O  O72  1  0.61190545  0.88474838  0.39822765  1  -0.641105  0.000959  1.986131  -0.001  -0.593156  0.000102  2.210608  -0.002  -0.619846  0.001307  2.202126  0.0  -0.313249  -0.574377  -0.001971  2.214735  -0.004
O  O73  1  0.88809327  0.11523301  0.89825816  1  -0.641136  0.000975  1.98566  -0.001  -0.593184  0.000101  2.210239  -0.002  -0.61986  0.001308  2.201725  0.0  -0.313169  -0.574398  -0.00197  2.214382  -0.004
