# generated using pymatgen
data_CuH18C14(NO)4
_symmetry_space_group_name_H-M   'P 1'
_cell_length_a   9.23726865
_cell_length_b   9.23724524
_cell_length_c   9.48619032
_cell_angle_alpha   96.60348877
_cell_angle_beta   96.60396107
_cell_angle_gamma   96.09533373
_symmetry_Int_Tables_number   1
_chemical_formula_structural   CuH18C14(NO)4
_chemical_formula_sum   'Cu2 H36 C28 N8 O8'
_cell_volume   792.85289251
_cell_formula_units_Z   2
loop_
 _symmetry_equiv_pos_site_id
 _symmetry_equiv_pos_as_xyz
  1  'x, y, z'
loop_
 _atom_site_type_symbol
 _atom_site_label
 _atom_site_symmetry_multiplicity
 _atom_site_fract_x
 _atom_site_fract_y
 _atom_site_fract_z
 _atom_site_occupancy
 _atom_site_pbe_cm5_charge
 _atom_site_pbe_ddec_charge
 _atom_site_pbe_ddec_spin_density
 _atom_site_pbe_ddec_sum_bond_order
 _atom_site_pbe_magmom
Cu  Cu0  1  0.61043280  0.38956892  0.24999700  1  0.737939  0.794072  0.743993  2.319057  0.576
Cu  Cu1  1  0.38956415  0.61043051  0.74999688  1  0.737958  0.794051  -0.744019  2.319037  -0.576
H  H2  1  0.78627564  0.28295804  0.98525469  1  0.136906  0.108212  0.000229  0.995102  0.0
H  H3  1  0.71706126  0.21372593  0.51473817  1  0.136897  0.108174  0.000229  0.995088  0.0
H  H4  1  0.21372220  0.71706113  0.01473728  1  0.136908  0.108214  -0.000229  0.995064  0.0
H  H5  1  0.28293503  0.78627787  0.48525823  1  0.136909  0.108194  -0.000229  0.995026  0.0
H  H6  1  0.93149493  0.50100875  0.39947105  1  0.12015  0.120284  0.000403  1.027266  0.001
H  H7  1  0.49899283  0.06850534  0.10052785  1  0.120135  0.120237  0.000403  1.027317  0.001
H  H8  1  0.06849960  0.49897748  0.60053268  1  0.120172  0.120278  -0.000403  1.027289  -0.001
H  H9  1  0.50101253  0.93149099  0.89946662  1  0.120128  0.120237  -0.000403  1.027309  -0.001
H  H10  1  0.17774708  0.44369894  0.26428419  1  0.119395  0.133621  0.000766  1.054802  0.001
H  H11  1  0.55629426  0.82225072  0.23572224  1  0.119375  0.133593  0.000767  1.05483  0.001
H  H12  1  0.82224712  0.55628401  0.73572440  1  0.119363  0.133574  -0.000767  1.054813  -0.001
H  H13  1  0.44371470  0.17774896  0.76427722  1  0.119382  0.133626  -0.000767  1.054745  -0.001
H  H14  1  0.18154656  0.37791909  0.97055806  1  0.111188  0.098944  0.000101  0.998275  0.0
H  H15  1  0.62208184  0.81845219  0.52944538  1  0.11119  0.098925  0.000101  0.998259  0.0
H  H16  1  0.81844951  0.62208252  0.02944228  1  0.11119  0.098949  -0.000101  0.998305  0.0
H  H17  1  0.37791904  0.18155389  0.47056128  1  0.111209  0.09896  -0.000101  0.998281  0.0
H  H18  1  0.02399801  0.26337022  0.88422907  1  0.10855  0.082045  2e-05  0.991625  0.0
H  H19  1  0.73663343  0.97599960  0.61577332  1  0.108568  0.082093  2e-05  0.991656  0.0
H  H20  1  0.97599981  0.73662704  0.11577520  1  0.108524  0.082119  -2e-05  0.99165  0.0
H  H21  1  0.26337390  0.02400553  0.38422446  1  0.108521  0.082106  -2e-05  0.991638  0.0
H  H22  1  0.24637746  0.19647389  0.12825000  1  0.096104  0.102711  6e-06  0.99011  0.0
H  H23  1  0.80352747  0.75361928  0.37175431  1  0.096131  0.102701  6e-06  0.990095  0.0
H  H24  1  0.75362441  0.80353112  0.87175349  1  0.096114  0.102718  -6e-06  0.990021  0.0
H  H25  1  0.19647035  0.24637798  0.62824153  1  0.096138  0.102691  -6e-06  0.990109  0.0
H  H26  1  0.22859286  0.11829833  0.94815024  1  0.093775  0.097518  8e-05  0.995991  0.0
H  H27  1  0.88170226  0.77140347  0.55185520  1  0.093834  0.097603  8e-05  0.995922  0.0
H  H28  1  0.77140529  0.88170222  0.05185654  1  0.093828  0.097601  -8e-05  0.99588  0.0
H  H29  1  0.11829534  0.22859159  0.44814248  1  0.093821  0.097573  -8e-05  0.995953  0.0
H  H30  1  0.11621424  0.95154997  0.10875346  1  0.083932  0.068759  -6e-06  1.011729  0.0
H  H31  1  0.04845140  0.88377769  0.39125407  1  0.083917  0.068724  -6e-06  1.011752  0.0
H  H32  1  0.88378325  0.04845495  0.89125796  1  0.083904  0.068732  6e-06  1.011764  0.0
H  H33  1  0.95155001  0.11621198  0.60874554  1  0.083939  0.068753  6e-06  1.011799  0.0
H  H34  1  0.99314165  0.07759150  0.15061629  1  0.085182  0.075003  -1.3e-05  1.012901  0.0
H  H35  1  0.92241571  0.00685180  0.34938656  1  0.085242  0.07499  -1.3e-05  1.012945  0.0
H  H36  1  0.00685978  0.92242007  0.84939526  1  0.085195  0.07497  1.3e-05  1.012889  0.0
H  H37  1  0.07759030  0.99314015  0.65060961  1  0.08519  0.074965  1.3e-05  1.012895  0.0
C  C38  1  0.57714576  0.52050242  0.54595144  1  0.193536  0.458124  0.00018  4.227916  0.002
C  C39  1  0.47949075  0.42285382  0.95404171  1  0.193493  0.458142  0.000179  4.228231  0.002
C  C40  1  0.42285817  0.47949059  0.45404355  1  0.193482  0.458191  -0.000181  4.227939  -0.002
C  C41  1  0.52050150  0.57714223  0.04594704  1  0.193489  0.458147  -0.000182  4.22765  -0.002
C  C42  1  0.85842753  0.33510251  0.07982409  1  0.137284  0.082705  -0.00044  3.924404  -0.001
C  C43  1  0.66491174  0.14157298  0.42017242  1  0.13726  0.082649  -0.00044  3.92437  -0.001
C  C44  1  0.14156953  0.66490898  0.92017115  1  0.137222  0.082624  0.00044  3.924439  0.001
C  C45  1  0.33508761  0.85842869  0.57982620  1  0.137284  0.082697  0.00044  3.924377  0.001
C  C46  1  0.93965094  0.44805482  0.29324790  1  -0.004745  -0.043059  0.001558  4.001798  0.001
C  C47  1  0.55195086  0.06034927  0.20675170  1  -0.004699  -0.042982  0.001558  4.001702  0.001
C  C48  1  0.06034644  0.55193804  0.70675583  1  -0.004725  -0.043022  -0.001558  4.001871  -0.001
C  C49  1  0.44805362  0.93964922  0.79324397  1  -0.004647  -0.042926  -0.001558  4.001721  -0.001
C  C50  1  0.06098977  0.42254160  0.22661513  1  -0.00176  -0.10739  0.002598  3.907771  0.003
C  C51  1  0.57745892  0.93900873  0.27338654  1  -0.001689  -0.107371  0.002598  3.90766  0.003
C  C52  1  0.93900717  0.57744688  0.77339122  1  -0.00175  -0.107385  -0.002598  3.907657  -0.003
C  C53  1  0.42254884  0.06098983  0.72661161  1  -0.001745  -0.107446  -0.002598  3.907652  -0.003
C  C54  1  0.09629418  0.29140015  0.98612790  1  -0.052072  -0.056075  0.00076  3.86597  0.001
C  C55  1  0.70860364  0.90370628  0.51387606  1  -0.052129  -0.056204  0.00076  3.865935  0.001
C  C56  1  0.90370627  0.70860155  0.01387506  1  -0.052081  -0.056292  -0.00076  3.866201  -0.001
C  C57  1  0.29140019  0.09629658  0.48612424  1  -0.052063  -0.056214  -0.000761  3.86602  -0.001
C  C58  1  0.16556799  0.15865950  0.03313008  1  -0.166123  -0.173574  8.1e-05  3.918699  0.0
C  C59  1  0.84134510  0.83442902  0.46687444  1  -0.166144  -0.173574  8.1e-05  3.918601  0.0
C  C60  1  0.83443388  0.84134551  0.96687657  1  -0.166141  -0.173583  -8.1e-05  3.918502  0.0
C  C61  1  0.15865512  0.16557048  0.53312297  1  -0.166183  -0.173577  -8.1e-05  3.91863  0.0
C  C62  1  0.05445496  0.03541892  0.06475879  1  -0.169446  -0.146122  5e-06  3.958836  0.0
C  C63  1  0.96458408  0.94554043  0.43524436  1  -0.169499  -0.146034  5e-06  3.958772  0.0
C  C64  1  0.94554385  0.96458822  0.93525091  1  -0.169427  -0.146011  -5e-06  3.958763  0.0
C  C65  1  0.03541559  0.05445358  0.56475132  1  -0.169457  -0.146068  -4e-06  3.9588  0.0
N  N66  1  0.00744020  0.35171612  0.09149177  1  -0.246347  0.033982  0.001263  3.78408  0.002
N  N67  1  0.64829086  0.99256184  0.40850794  1  -0.246365  0.034073  0.001263  3.783989  0.002
N  N68  1  0.99255915  0.64828555  0.90851001  1  -0.246344  0.034043  -0.001263  3.784108  -0.002
N  N69  1  0.35171297  0.00744103  0.59149026  1  -0.246362  0.03403  -0.001264  3.784092  -0.002
N  N70  1  0.81479096  0.39310476  0.20058106  1  -0.377216  -0.295836  0.051424  3.682359  0.066
N  N71  1  0.60690921  0.18521058  0.29941511  1  -0.377272  -0.295819  0.051425  3.682307  0.066
N  N72  1  0.18520457  0.60690231  0.79941457  1  -0.377182  -0.295765  -0.051424  3.682412  -0.066
N  N73  1  0.39309014  0.81479109  0.70058139  1  -0.377301  -0.295855  -0.051425  3.682445  -0.066
O  O74  1  0.68858174  0.48665763  0.49162769  1  -0.313962  -0.525543  -0.012441  2.257745  -0.017
O  O75  1  0.51333896  0.31142325  0.00837130  1  -0.313959  -0.525541  -0.01244  2.25787  -0.016
O  O76  1  0.31142077  0.51333206  0.50836783  1  -0.313943  -0.525569  0.012441  2.25785  0.017
O  O77  1  0.48665985  0.68858389  0.99162154  1  -0.313955  -0.525552  0.012443  2.257718  0.017
O  O78  1  0.58129545  0.58767286  0.67257305  1  -0.323277  -0.511349  -0.05694  2.369703  -0.08
O  O79  1  0.41232789  0.41870226  0.82742682  1  -0.323258  -0.511351  -0.056929  2.369961  -0.08
O  O80  1  0.41870444  0.41232335  0.32742080  1  -0.323297  -0.511415  0.056944  2.369707  0.08
O  O81  1  0.58766928  0.58129937  0.17257892  1  -0.323282  -0.511422  0.056954  2.369506  0.08
