# generated using pymatgen
data_LiH2C2O3
_symmetry_space_group_name_H-M   'P 1'
_cell_length_a   7.07767254
_cell_length_b   7.27343730
_cell_length_c   7.56383713
_cell_angle_alpha   96.82172397
_cell_angle_beta   94.54427188
_cell_angle_gamma   115.02344224
_symmetry_Int_Tables_number   1
_chemical_formula_structural   LiH2C2O3
_chemical_formula_sum   'Li4 H8 C8 O12'
_cell_volume   346.68554886
_cell_formula_units_Z   4
loop_
 _symmetry_equiv_pos_site_id
 _symmetry_equiv_pos_as_xyz
  1  'x, y, z'
loop_
 _atom_site_type_symbol
 _atom_site_label
 _atom_site_symmetry_multiplicity
 _atom_site_fract_x
 _atom_site_fract_y
 _atom_site_fract_z
 _atom_site_occupancy
 _atom_site_hle17_bader_spin_density
 _atom_site_hle17_ddec_charge
 _atom_site_hle17_ddec_spin_density
 _atom_site_hle17_ddec_sum_bond_order
 _atom_site_hle17_magmom
 _atom_site_hse06_10hf_bader_spin_density
 _atom_site_hse06_10hf_ddec_charge
 _atom_site_hse06_10hf_ddec_spin_density
 _atom_site_hse06_10hf_ddec_sum_bond_order
 _atom_site_hse06_10hf_magmom
 _atom_site_hse06_bader_spin_density
 _atom_site_hse06_ddec_charge
 _atom_site_hse06_ddec_spin_density
 _atom_site_hse06_ddec_sum_bond_order
 _atom_site_hse06_magmom
 _atom_site_pbe_bader_spin_density
 _atom_site_pbe_cm5_charge
 _atom_site_pbe_ddec_charge
 _atom_site_pbe_ddec_spin_density
 _atom_site_pbe_ddec_sum_bond_order
 _atom_site_pbe_magmom
Li  Li0  1  0.11260953  0.49880502  0.77229667  1  0  0.852659  0  0.394695  0  0  0.815717  0  0.492189  0  0  0.824918  0  0.475879  0  0  0.515458  0.809095  0  0.503823  0
Li  Li1  1  0.88738921  0.50119587  0.22770741  1  0  0.852666  0  0.394682  0  0  0.815733  0  0.492162  0  0  0.824932  0  0.475853  0  0  0.515463  0.809118  0  0.5038  0
Li  Li2  1  0.82340642  0.10059366  0.94222663  1  0  0.857181  0  0.393454  0  0  0.816902  0  0.498946  0  0  0.826305  0  0.482083  0  0  0.515482  0.810068  0  0.511056  0
Li  Li3  1  0.17659304  0.89940568  0.05777337  1  0  0.857179  0  0.393458  0  0  0.816892  0  0.498972  0  0  0.826294  0  0.482109  0  0  0.51549  0.810058  0  0.511083  0
H  H4  1  0.40898549  0.73909349  0.96576973  1  0  0.434418  0  0.863701  0  0  0.404052  0  0.925446  0  0  0.415224  0  0.908995  0  0  0.312034  0.396182  0  0.937018  0
H  H5  1  0.59101606  0.26090738  0.03422927  1  0  0.434443  0  0.863669  0  0  0.404076  0  0.925413  0  0  0.415249  0  0.908961  0  0  0.312046  0.396203  0  0.936992  0
H  H6  1  0.90582579  0.67858061  0.74182173  1  0  0.432935  0  0.863873  0  0  0.402672  0  0.927219  0  0  0.411984  0  0.913588  0  0  0.314977  0.396135  0  0.936779  0
H  H7  1  0.09417713  0.32142334  0.25817771  1  0  0.432978  0  0.86382  0  0  0.402716  0  0.927162  0  0  0.41203  0  0.91353  0  0  0.314989  0.396179  0  0.936725  0
H  H8  1  0.77559569  0.47183878  0.59644409  1  0  0.434146  0  0.870171  0  0  0.40183  0  0.935478  0  0  0.412396  0  0.920243  0  0  0.301433  0.394443  0  0.946096  0
H  H9  1  0.22440231  0.52816363  0.40355879  1  0  0.43414  0  0.870191  0  0  0.40183  0  0.935484  0  0  0.412396  0  0.920249  0  0  0.301434  0.394446  0  0.946098  0
H  H10  1  0.26613562  0.60521582  0.10907614  1  0  0.450399  0  0.839742  0  0  0.423084  0  0.895697  0  0  0.433191  0  0.880881  0  0  0.31551  0.41596  0  0.906141  0
H  H11  1  0.73386731  0.39478814  0.89092595  1  0  0.450419  0  0.839711  0  0  0.423103  0  0.895669  0  0  0.43321  0  0.880853  0  0  0.315513  0.415983  0  0.906106  0
C  C12  1  0.50687903  0.76169543  0.66124448  1  0  0.763148  0  3.953101  0  0  0.709412  0  4.249075  0  0  0.74638  0  4.233403  0  0  0.248402  0.684202  0  4.259319  0
C  C13  1  0.49311696  0.23829928  0.33875608  1  0  0.763184  0  3.953005  0  0  0.709369  0  4.249114  0  0  0.746337  0  4.233448  0  0  0.248458  0.684161  0  4.259355  0
C  C14  1  0.86693253  0.90339696  0.25196643  1  0  0.770605  0  3.986564  0  0  0.718262  0  4.283296  0  0  0.754915  0  4.266045  0  0  0.249733  0.693267  0  4.294663  0
C  C15  1  0.13306976  0.09660238  0.74803377  1  0  0.770649  0  3.986413  0  0  0.718296  0  4.283147  0  0  0.754947  0  4.265894  0  0  0.249773  0.693295  0  4.294523  0
C  C16  1  0.63298811  0.82265213  0.51802629  1  0  -0.136174  0  3.663334  0  0  -0.136032  0  3.923169  0  0  -0.139479  0  3.940676  0  0  -0.007697  -0.134066  0  3.911769  0
C  C17  1  0.36700370  0.17733951  0.48197759  1  0  -0.136159  0  3.663575  0  0  -0.135986  0  3.92342  0  0  -0.139432  0  3.940917  0  0  -0.007723  -0.134019  0  3.912015  0
C  C18  1  0.73913199  0.85942534  0.39600986  1  0  -0.118575  0  3.64929  0  0  -0.11658  0  3.90576  0  0  -0.119236  0  3.922449  0  0  -0.001628  -0.115223  0  3.894954  0
C  C19  1  0.26086960  0.14057244  0.60398483  1  0  -0.118635  0  3.649558  0  0  -0.116633  0  3.906008  0  0  -0.119286  0  3.922696  0  0  -0.00164  -0.115271  0  3.895198  0
O  O20  1  0.89202248  0.06197277  0.18414622  1  0  -0.718444  0  1.961064  0  0  -0.671105  0  2.197928  0  0  -0.693194  0  2.181637  0  0  -0.351984  -0.655543  0  2.208758  0
O  O21  1  0.10797903  0.93803118  0.81585576  1  0  -0.718438  0  1.961082  0  0  -0.671096  0  2.197953  0  0  -0.693183  0  2.18166  0  0  -0.351986  -0.655533  0  2.208784  0
O  O22  1  0.31866013  0.62304367  0.61501580  1  0  -0.695073  0  1.969007  0  0  -0.639663  0  2.188822  0  0  -0.66481  0  2.175797  0  0  -0.351446  -0.622085  0  2.197264  0
O  O23  1  0.68133438  0.37695410  0.38498235  1  0  -0.695075  0  1.968952  0  0  -0.639649  0  2.188839  0  0  -0.664787  0  2.175796  0  0  -0.351442  -0.622068  0  2.197282  0
O  O24  1  0.26790528  0.67986136  0.00661658  1  0  -0.96526  0  1.802167  0  0  -0.918539  0  1.975553  0  0  -0.934648  0  1.941408  0  0  -0.676668  -0.907256  0  1.999416  0
O  O25  1  0.73209629  0.32013953  0.99338506  1  0  -0.96529  0  1.802099  0  0  -0.918571  0  1.975484  0  0  -0.934682  0  1.941338  0  0  -0.676667  -0.907289  0  1.999349  0
O  O26  1  0.94554294  0.78026984  0.20362702  1  0  -0.764322  0  1.92522  0  0  -0.718172  0  2.156861  0  0  -0.740235  0  2.14069  0  0  -0.418678  -0.702708  0  2.167625  0
O  O27  1  0.05445936  0.21972951  0.79637450  1  0  -0.764372  0  1.925166  0  0  -0.718219  0  2.156805  0  0  -0.740286  0  2.140646  0  0  -0.418724  -0.702729  0  2.167521  0
O  O28  1  0.59248586  0.84611159  0.82208574  1  0  -0.694844  0  1.931905  0  0  -0.642935  0  2.152736  0  0  -0.666665  0  2.138124  0  0  -0.350489  -0.626363  0  2.162437  0
O  O29  1  0.40751780  0.15389083  0.17791490  1  0  -0.694869  0  1.931928  0  0  -0.642935  0  2.15281  0  0  -0.666663  0  2.138196  0  0  -0.350546  -0.626362  0  2.162514  0
O  O30  1  0.85013866  0.52719439  0.72353986  1  0  -0.902784  0  1.814457  0  0  -0.848887  0  1.977804  0  0  -0.867032  0  1.946286  0  0  -0.614428  -0.836112  0  1.999635  0
O  O31  1  0.14986216  0.47280802  0.27646058  1  0  -0.902835  0  1.814437  0  0  -0.848945  0  1.977778  0  0  -0.86709  0  1.946256  0  0  -0.614449  -0.83617  0  1.999614  0
