# generated using pymatgen
data_MnH19C22N2O7
_symmetry_space_group_name_H-M   'P 1'
_cell_length_a   10.12228526
_cell_length_b   9.91333232
_cell_length_c   12.76779028
_cell_angle_alpha   100.55350819
_cell_angle_beta   105.95409015
_cell_angle_gamma   115.10868700
_symmetry_Int_Tables_number   1
_chemical_formula_structural   MnH19C22N2O7
_chemical_formula_sum   'Mn2 H38 C44 N4 O14'
_cell_volume   1047.22517614
_cell_formula_units_Z   2
loop_
 _symmetry_equiv_pos_site_id
 _symmetry_equiv_pos_as_xyz
  1  'x, y, z'
loop_
 _atom_site_type_symbol
 _atom_site_label
 _atom_site_symmetry_multiplicity
 _atom_site_fract_x
 _atom_site_fract_y
 _atom_site_fract_z
 _atom_site_occupancy
 _atom_site_hle17_ddec_charge
 _atom_site_hle17_ddec_spin_density
 _atom_site_hle17_ddec_sum_bond_order
 _atom_site_hle17_magmom
 _atom_site_hse06_10hf_ddec_charge
 _atom_site_hse06_10hf_ddec_spin_density
 _atom_site_hse06_10hf_ddec_sum_bond_order
 _atom_site_hse06_10hf_magmom
 _atom_site_hse06_ddec_charge
 _atom_site_hse06_ddec_spin_density
 _atom_site_hse06_ddec_sum_bond_order
 _atom_site_hse06_magmom
 _atom_site_pbe_cm5_charge
 _atom_site_pbe_ddec_charge
 _atom_site_pbe_ddec_spin_density
 _atom_site_pbe_ddec_sum_bond_order
 _atom_site_pbe_magmom
Mn  Mn0  1  0.91226224  0.74599815  0.02886584  1  1.163203  4.81933  1.663298  4.686  0.99735  4.754432  2.138903  4.553  1.060612  4.792219  2.069259  4.611  0.58118  0.945385  4.71768  2.193234  4.498
Mn  Mn1  1  0.08773218  0.25400368  0.97113497  1  1.163159  4.819335  1.663336  4.686  0.997319  4.754434  2.138936  4.553  1.060574  4.792223  2.069297  4.611  0.581176  0.945349  4.71768  2.193269  4.498
H  H2  1  0.64493307  0.48228997  0.92977058  1  0.428677  -0.000218  0.823194  0.0  0.408408  0.000609  0.882488  0.001  0.417543  0.000271  0.871913  0.001  0.31798  0.401617  0.0009  0.890311  0.001
H  H3  1  0.35506544  0.51771180  0.07022879  1  0.428701  -0.000215  0.82319  0.0  0.40843  0.000609  0.882486  0.001  0.417565  0.00027  0.871911  0.001  0.317979  0.40164  0.0009  0.89031  0.001
H  H4  1  0.76168931  0.41124376  0.93972126  1  0.422138  -8e-06  0.890179  0.001  0.388177  0.000664  0.960878  0.002  0.39979  0.000385  0.943982  0.001  0.288572  0.379844  0.000803  0.972947  0.002
H  H5  1  0.23830861  0.58875682  0.06027782  1  0.42216  -6e-06  0.890152  0.001  0.388202  0.000664  0.960843  0.002  0.399815  0.000385  0.943948  0.001  0.288584  0.37987  0.000803  0.972912  0.002
H  H6  1  0.12526524  0.05794850  0.13923101  1  0.425705  -0.000238  0.878743  0.001  0.395176  0.000568  0.942668  0.002  0.406259  0.000257  0.926666  0.001  0.297176  0.387234  0.000828  0.954151  0.002
H  H7  1  0.87473047  0.94204973  0.86076808  1  0.425677  -0.000239  0.878777  0.001  0.395147  0.000568  0.942706  0.002  0.406229  0.000257  0.926705  0.001  0.297146  0.387205  0.000828  0.954189  0.002
H  H8  1  0.96371130  0.04283547  0.12036974  1  0.426543  -0.000282  0.872984  0.001  0.396313  0.000463  0.936514  0.002  0.407209  0.000147  0.920763  0.002  0.300064  0.388435  0.000626  0.947917  0.002
H  H9  1  0.03628443  0.95716279  0.87963014  1  0.426559  -0.000284  0.872978  0.001  0.396307  0.000463  0.936533  0.002  0.407203  0.000147  0.920781  0.002  0.300041  0.388427  0.000626  0.947937  0.002
H  H10  1  0.42537833  0.73446661  0.02126547  1  0.092671  -0.000254  0.979235  0.0  0.10051  7.8e-05  1.048362  0.0  0.105056  -8.4e-05  1.043707  0.0  0.104134  0.097121  0.000216  1.052039  0.0
H  H11  1  0.57461635  0.26553159  0.97873260  1  0.092694  -0.000247  0.97919  0.0  0.10052  7.8e-05  1.048328  0.0  0.105064  -8.4e-05  1.043675  0.0  0.104136  0.09713  0.000216  1.052007  0.0
H  H12  1  0.18876082  0.91098545  0.79717228  1  0.122113  -0.000259  0.963186  0.0  0.12945  -0.000153  1.027604  0.0  0.134074  -0.000203  1.023211  0.0  0.113307  0.126157  -9.1e-05  1.030687  0.0
H  H13  1  0.81123516  0.08900917  0.20282485  1  0.122122  -0.000248  0.963165  0.0  0.129477  -0.000153  1.027568  0.0  0.134103  -0.000203  1.023174  0.0  0.113321  0.126187  -9.1e-05  1.030649  0.0
H  H14  1  0.60544362  0.90460832  0.77804142  1  0.107163  -0.000141  0.966113  0.0  0.116165  6e-05  1.032664  0.0  0.119668  -2.4e-05  1.030354  0.0  0.108428  0.113655  0.000122  1.034296  0.0
H  H15  1  0.39455415  0.09538989  0.22195734  1  0.107184  -0.000136  0.966176  0.0  0.116186  6e-05  1.032715  0.0  0.11969  -2.3e-05  1.030402  0.0  0.108426  0.113677  0.000122  1.034347  0.0
H  H16  1  0.59280671  0.02169908  0.65215027  1  0.084043  -2.2e-05  0.943767  0.0  0.100425  -1.2e-05  1.007856  0.0  0.099616  -1.4e-05  1.010147  0.0  0.110439  0.101059  -3e-06  1.006087  0.0
H  H17  1  0.40719049  0.97829801  0.34784978  1  0.084053  -6e-06  0.943768  0.0  0.100429  -1.3e-05  1.007859  0.0  0.099619  -1.4e-05  1.010152  0.0  0.110431  0.101063  -3e-06  1.006091  0.0
H  H18  1  0.63025566  0.18706213  0.76323132  1  0.103227  -0.00018  0.930602  0.0  0.118712  -7.8e-05  0.992248  0.0  0.119826  -0.000148  0.991049  0.0  0.114326  0.117704  -3.8e-05  0.993521  0.0
H  H19  1  0.36974522  0.81293619  0.23677049  1  0.103233  -0.000148  0.930606  0.0  0.118719  -7.8e-05  0.992249  0.0  0.119834  -0.000148  0.991046  0.0  0.114328  0.117711  -3.8e-05  0.99352  0.0
H  H20  1  0.10560537  0.06798393  0.43369475  1  0.116104  -3.1e-05  0.960705  0.0  0.120481  -3.9e-05  1.030368  0.0  0.124566  -4.4e-05  1.02683  0.0  0.107499  0.117666  -2.8e-05  1.032655  0.0
H  H21  1  0.89439938  0.93201801  0.56630993  1  0.116112  -3.2e-05  0.96066  0.0  0.120457  -4e-05  1.030357  0.0  0.124544  -4.4e-05  1.026815  0.0  0.107477  0.117642  -2.8e-05  1.032645  0.0
H  H22  1  0.25664275  0.24985978  0.34419976  1  0.104809  -8.6e-05  0.940516  0.0  0.117031  2e-06  0.99453  0.0  0.120778  -5.6e-05  0.992562  0.0  0.105901  0.114143  9.1e-05  0.996291  0.0
H  H23  1  0.74335846  0.75014334  0.65580428  1  0.104799  -8.5e-05  0.940513  0.0  0.117043  2e-06  0.994498  0.0  0.120791  -5.6e-05  0.992528  0.0  0.105914  0.114153  9.1e-05  0.996265  0.0
H  H24  1  0.54789501  0.36899826  0.41223653  1  0.088187  3e-06  0.944196  0.0  0.101025  1.7e-05  1.001195  0.0  0.103618  1.1e-05  1.000281  0.0  0.101468  0.099081  2.1e-05  1.00199  0.0
H  H25  1  0.45210735  0.63100710  0.58776491  1  0.088229  6e-06  0.944177  0.0  0.101071  1.7e-05  1.001173  0.0  0.103667  1.1e-05  1.000253  0.0  0.101484  0.099127  2.1e-05  1.001969  0.0
H  H26  1  0.69689399  0.30401901  0.56716615  1  0.091711  -5.2e-05  0.978192  0.0  0.100382  -5e-05  1.04473  0.0  0.102882  -5.4e-05  1.044864  0.0  0.097419  0.098547  -4.6e-05  1.044842  0.0
H  H27  1  0.30310657  0.69598274  0.43283288  1  0.091673  -5.3e-05  0.978155  0.0  0.100304  -4.9e-05  1.044745  0.0  0.102829  -5.5e-05  1.044856  0.0  0.097405  0.098469  -4.6e-05  1.044855  0.0
H  H28  1  0.82642461  0.78321268  0.23763445  1  0.089549  0.000114  0.93089  0.0  0.09769  0.000477  0.992587  0.001  0.100244  0.00032  0.990226  0.0  0.121408  0.096028  0.000629  0.993835  0.001
H  H29  1  0.17358305  0.21679508  0.76236846  1  0.08953  0.000103  0.930967  0.0  0.097682  0.000477  0.992658  0.001  0.100236  0.00032  0.990296  0.0  0.121392  0.09602  0.000629  0.993901  0.001
H  H30  1  0.81122390  0.67598632  0.39898355  1  0.106044  0.000206  0.962432  0.0  0.115947  0.000172  1.024047  0.0  0.118421  0.000124  1.024543  0.0  0.1053  0.114008  0.000223  1.024198  0.0
H  H31  1  0.18878258  0.32401907  0.60101881  1  0.106058  0.0002  0.962434  0.0  0.115995  0.000172  1.024009  0.0  0.118472  0.000124  1.024498  0.0  0.105311  0.114054  0.000223  1.02416  0.0
H  H32  1  0.05164164  0.43807756  0.29687411  1  0.114773  0.000128  0.930037  0.0  0.129289  6.3e-05  0.980916  0.0  0.132326  1.9e-05  0.980372  0.0  0.113106  0.126894  0.000177  0.981911  0.0
H  H33  1  0.94835050  0.56191349  0.70312173  1  0.114776  0.000135  0.930033  0.0  0.129271  6.4e-05  0.980944  0.0  0.132323  1.9e-05  0.980379  0.0  0.113119  0.126878  0.000177  0.98194  0.0
H  H34  1  0.06273149  0.56056086  0.14438426  1  0.085909  6.6e-05  0.964227  0.0  0.095928  0.000563  1.027013  0.001  0.098112  0.000349  1.025086  0.0  0.119061  0.09418  0.00078  1.028801  0.001
H  H35  1  0.93726450  0.43943380  0.85561366  1  0.085862  5.5e-05  0.964261  0.0  0.095868  0.000563  1.027063  0.001  0.098062  0.000349  1.025122  0.0  0.119037  0.094121  0.00078  1.028851  0.001
H  H36  1  0.84742964  0.50206214  0.49592696  1  0.075878  3e-06  0.937596  0.0  0.095222  2.5e-05  0.995834  0.0  0.096284  1.9e-05  0.995451  0.0  0.096581  0.094505  3.5e-05  0.996055  0.0
H  H37  1  0.15257050  0.49794085  0.50407370  1  0.075868  9e-06  0.93756  0.0  0.095235  2.4e-05  0.995825  0.0  0.096297  1.9e-05  0.995444  0.0  0.096578  0.094516  3.5e-05  0.996048  0.0
H  H38  1  0.85571308  0.34242717  0.41380778  1  0.089166  0.000129  0.952899  0.0  0.102327  0.000217  1.019803  0.0  0.103409  0.000184  1.020418  0.0  0.095662  0.101456  0.000264  1.019482  0.0
H  H39  1  0.14428545  0.65757466  0.58619316  1  0.089123  0.000135  0.952956  0.0  0.102335  0.000217  1.019841  0.0  0.103417  0.000184  1.020458  0.0  0.095662  0.101464  0.000264  1.019524  0.0
C  C40  1  0.17259047  0.78046067  0.96710877  1  0.652193  0.004407  3.905065  0.003  0.595428  0.008404  4.203831  0.006  0.629595  0.006641  4.198271  0.005  0.217341  0.5719  0.010237  4.206697  0.007
C  C41  1  0.82740670  0.21953633  0.03288892  1  0.652285  0.004403  3.905008  0.003  0.59556  0.008406  4.203747  0.006  0.629732  0.006645  4.198183  0.005  0.217381  0.572031  0.010238  4.206617  0.007
C  C42  1  0.65264290  0.77384263  0.94318366  1  0.637229  0.002237  3.913617  0.001  0.591094  0.005182  4.194488  0.003  0.624623  0.004015  4.190401  0.002  0.206196  0.568206  0.006528  4.195874  0.004
C  C43  1  0.34735602  0.22615787  0.05681328  1  0.637279  0.002234  3.913444  0.001  0.591129  0.005181  4.194359  0.003  0.624658  0.004016  4.190272  0.002  0.20619  0.568237  0.006528  4.195746  0.004
C  C44  1  0.41289723  0.78158116  0.95112533  1  -0.070913  0.001715  3.721864  0.002  -0.111147  0.001981  3.970536  0.002  -0.109663  0.001671  3.990834  0.002  -0.080934  -0.112501  0.003052  3.957975  0.003
C  C45  1  0.58710064  0.21841105  0.04887035  1  -0.070984  0.00166  3.721812  0.002  -0.111176  0.00198  3.970497  0.002  -0.109692  0.001671  3.990798  0.002  -0.080939  -0.112529  0.003052  3.957934  0.003
C  C46  1  0.29168030  0.81599605  0.91338011  1  -0.072339  -0.002431  3.807779  -0.001  -0.044196  -0.002007  4.044295  -0.001  -0.053444  -0.002324  4.069854  -0.001  -0.020038  -0.038296  -0.001511  4.027758  -0.001
C  C47  1  0.70831877  0.18399860  0.08661771  1  -0.072248  -0.002411  3.807574  -0.001  -0.044164  -0.002007  4.044147  -0.001  -0.053413  -0.002323  4.069707  -0.001  -0.020049  -0.038264  -0.001511  4.027612  -0.001
C  C48  1  0.28277461  0.88377204  0.82648812  1  -0.126172  0.00216  3.652661  0.002  -0.165254  0.002523  3.911046  0.002  -0.16466  0.002143  3.926737  0.002  -0.076403  -0.165033  0.002232  3.900463  0.002
C  C49  1  0.71722240  0.11622259  0.17350925  1  -0.126249  0.002133  3.652498  0.002  -0.165337  0.002522  3.910953  0.002  -0.164745  0.00214  3.926649  0.002  -0.076422  -0.165116  0.002232  3.900371  0.002
C  C50  1  0.39662561  0.91805172  0.77767930  1  0.203587  -0.001462  3.771157  -0.001  0.198535  -0.000659  4.025899  -0.001  0.204353  -0.000951  4.046727  -0.001  0.099363  0.194199  -0.000492  4.012121  0.0
C  C51  1  0.60337215  0.08194647  0.22231867  1  0.203642  -0.001464  3.771054  -0.001  0.198564  -0.000656  4.025841  -0.001  0.204374  -0.000951  4.046677  -0.001  0.099392  0.194228  -0.000492  4.012065  0.0
C  C52  1  0.51645973  0.88040974  0.81495075  1  -0.138694  0.002245  3.674619  0.002  -0.175388  0.002702  3.930982  0.002  -0.175496  0.002259  3.94857  0.002  -0.080524  -0.174479  0.002446  3.918934  0.002
C  C53  1  0.48353642  0.11958731  0.18504829  1  -0.138783  0.002226  3.674623  0.002  -0.175474  0.0027  3.931011  0.002  -0.175579  0.002257  3.948596  0.002  -0.080575  -0.174564  0.002446  3.918961  0.002
C  C54  1  0.52399648  0.81183425  0.90111235  1  -0.054015  -0.002594  3.791474  -0.002  -0.028287  -0.001658  4.026087  -0.001  -0.03627  -0.002089  4.049153  -0.001  -0.019473  -0.023391  -0.001028  4.011106  -0.001
C  C55  1  0.47600153  0.18816030  0.09888287  1  -0.053962  -0.002536  3.791272  -0.002  -0.028233  -0.001657  4.025886  -0.001  -0.036216  -0.002083  4.04895  -0.001  -0.019404  -0.023335  -0.001028  4.010902  -0.001
C  C56  1  0.26146046  0.98650885  0.61831199  1  0.483467  -0.000106  3.847292  0.0  0.435449  -6.9e-05  4.137342  0.0  0.465202  -7.7e-05  4.136598  0.0  0.233535  0.415881  -3.6e-05  4.136291  0.0
C  C57  1  0.73853794  0.01349067  0.38169020  1  0.483238  -0.000109  3.847413  0.0  0.435307  -6.4e-05  4.137313  0.0  0.465058  -8.5e-05  4.136575  0.0  0.233472  0.415738  -3.6e-05  4.13626  0.0
C  C58  1  0.54102260  0.09214606  0.68025008  1  -0.043026  2.7e-05  3.663887  0.0  -0.112518  0.000151  3.921012  0.0  -0.107745  7.1e-05  3.931614  0.0  -0.051792  -0.115684  0.000231  3.913797  0.0
C  C59  1  0.45897888  0.90785345  0.31975201  1  -0.043076  -5.5e-05  3.663858  0.0  -0.112548  0.000149  3.921011  0.0  -0.10777  7.6e-05  3.931599  0.0  -0.051763  -0.115718  0.000231  3.913807  0.0
C  C60  1  0.48421642  0.15211798  0.58805534  1  0.072496  -8e-06  3.754683  0.0  0.087351  0.000149  3.989976  0.0  0.089616  8.9e-05  4.012521  0.0  -0.000928  0.085852  0.000135  3.974629  0.0
C  C61  1  0.51578770  0.84788266  0.41194590  1  0.072552  1e-06  3.754635  0.0  0.087318  0.00015  3.989982  0.0  0.089583  8e-05  4.012532  0.0  -0.000938  0.08582  0.000135  3.974633  0.0
C  C62  1  0.31962366  0.08725729  0.55063102  1  -0.113611  3.9e-05  3.81107  0.0  -0.099153  3.2e-05  4.044364  0.0  -0.108071  9e-06  4.067718  0.0  -0.020761  -0.093096  4.8e-05  4.028099  0.0
C  C63  1  0.68038166  0.91274579  0.44937236  1  -0.113637  4.6e-05  3.811335  0.0  -0.099107  2.4e-05  4.044522  0.0  -0.108028  2.7e-05  4.06788  0.0  -0.020772  -0.093049  4.8e-05  4.028256  0.0
C  C64  1  0.23397015  0.11963891  0.46255548  1  -0.056567  -0.00014  3.71704  0.0  -0.079346  -3.6e-05  3.967579  0.0  -0.077033  -6e-05  3.985177  0.0  -0.077231  -0.080683  -1e-05  3.955467  0.0
C  C65  1  0.76603429  0.88036656  0.53744879  1  -0.056493  -0.000137  3.717164  0.0  -0.079279  -3.4e-05  3.967703  0.0  -0.076965  -6.8e-05  3.985301  0.0  -0.077185  -0.080617  -1e-05  3.955592  0.0
C  C66  1  0.31912009  0.22258041  0.41382045  1  -0.083135  1.1e-05  3.747906  0.0  -0.099589  4.1e-05  4.005615  0.0  -0.10363  -2e-05  4.025515  0.0  -0.090518  -0.096585  0.000145  3.991921  0.0
C  C67  1  0.68088315  0.77742263  0.58618168  1  -0.083098  3e-06  3.74791  0.0  -0.099566  4.1e-05  4.005619  0.0  -0.103609  -1.7e-05  4.025518  0.0  -0.090489  -0.096561  0.000145  3.99193  0.0
C  C68  1  0.48456775  0.28946342  0.45217614  1  -0.054929  -1.5e-05  3.762943  0.0  -0.073528  7e-05  4.022718  0.0  -0.072563  4.5e-05  4.042507  0.0  -0.084768  -0.07427  6.7e-05  4.009408  0.0
C  C69  1  0.51543284  0.71053838  0.54782447  1  -0.055032  -2.8e-05  3.762947  0.0  -0.07364  7e-05  4.022717  0.0  -0.072673  4.4e-05  4.042512  0.0  -0.084781  -0.074382  6.7e-05  4.009406  0.0
C  C70  1  0.56887341  0.25396806  0.53906483  1  -0.122609  2.8e-05  3.741179  0.0  -0.142704  -9e-06  3.99118  0.0  -0.146503  -2.9e-05  4.011339  0.0  -0.093624  -0.140547  3.1e-05  3.978  0.0
C  C71  1  0.43112802  0.74603130  0.46093332  1  -0.122531  3.7e-05  3.74103  0.0  -0.142564  -1.2e-05  3.991041  0.0  -0.146384  -2.1e-05  4.011185  0.0  -0.093638  -0.140407  3.1e-05  3.977859  0.0
C  C72  1  0.87548679  0.70675921  0.25454570  1  0.146649  0.004327  3.692977  0.004  0.116855  0.006108  3.943642  0.005  0.124875  0.005424  3.961647  0.005  0.056147  0.11157  0.007084  3.930983  0.006
C  C73  1  0.12451749  0.29324383  0.74545666  1  0.146783  0.004353  3.692951  0.004  0.116973  0.006107  3.943618  0.005  0.124995  0.005425  3.961622  0.005  0.056185  0.111688  0.007084  3.930956  0.006
C  C74  1  0.86639759  0.64535236  0.34356618  1  -0.168882  -0.003032  3.69899  -0.002  -0.186079  -0.001791  3.942621  -0.001  -0.194422  -0.002644  3.964183  -0.001  -0.0829  -0.181143  -0.001229  3.92895  -0.001
C  C75  1  0.13360681  0.35465299  0.65643493  1  -0.168961  -0.00302  3.69894  -0.002  -0.186197  -0.001791  3.942552  -0.001  -0.194543  -0.002641  3.964116  -0.001  -0.082903  -0.181261  -0.001229  3.92888  -0.001
C  C76  1  0.92828235  0.54534542  0.36130517  1  0.16259  0.003983  3.708968  0.003  0.177199  0.00503  3.94748  0.004  0.18287  0.00459  3.969554  0.004  0.014661  0.173518  0.005934  3.932583  0.005
C  C77  1  0.07171986  0.45465758  0.63869594  1  0.162548  0.003974  3.708977  0.003  0.177216  0.005031  3.947473  0.004  0.182885  0.004585  3.969554  0.004  0.01466  0.173536  0.005934  3.932576  0.005
C  C78  1  0.00173371  0.51573371  0.28869593  1  -0.183154  -0.00284  3.72181  -0.002  -0.19938  -0.001707  3.970824  -0.001  -0.208134  -0.002532  3.992454  -0.001  -0.087697  -0.193642  -0.001233  3.956591  0.0
C  C79  1  0.99826568  0.48426573  0.71130412  1  -0.183115  -0.002884  3.721792  -0.002  -0.199343  -0.001707  3.970803  -0.001  -0.208107  -0.002528  3.992426  -0.001  -0.087706  -0.193607  -0.001233  3.956576  0.0
C  C80  1  0.00740156  0.58244783  0.20233879  1  0.130539  0.004804  3.720099  0.005  0.097982  0.006539  3.97506  0.006  0.105611  0.005697  3.993794  0.005  0.045108  0.092903  0.00764  3.962108  0.007
C  C81  1  0.99259886  0.41755162  0.79766149  1  0.130538  0.004845  3.72012  0.005  0.097995  0.006539  3.975082  0.006  0.105619  0.005696  3.993814  0.005  0.045098  0.092915  0.00764  3.962133  0.007
C  C82  1  0.91753854  0.47232062  0.45393779  1  -0.149913  6.4e-05  3.675484  0.0  -0.193074  0.000427  3.9255  0.0  -0.194455  0.000307  3.936284  0.0  -0.153199  -0.191983  0.000554  3.917869  0.0
C  C83  1  0.08245998  0.52768117  0.54606236  1  -0.149796  4e-05  3.675438  0.0  -0.193129  0.000428  3.925542  0.0  -0.194511  0.00031  3.936329  0.0  -0.153224  -0.192043  0.000554  3.917917  0.0
N  N84  1  0.94348675  0.67495563  0.18356323  1  -0.360316  0.025278  3.261069  0.01  -0.28763  0.027679  3.539256  0.008  -0.309828  0.023816  3.555184  0.005  -0.328541  -0.271119  0.031177  3.527437  0.01
N  N85  1  0.05651589  0.32504619  0.81643784  1  -0.360335  0.025274  3.261172  0.01  -0.287653  0.02768  3.539368  0.008  -0.309854  0.023817  3.555301  0.005  -0.328531  -0.271141  0.031178  3.527547  0.01
N  N86  1  0.39497627  0.99297337  0.69411800  1  -0.240971  -2.3e-05  3.402951  0.0  -0.156854  3.4e-05  3.632162  0.0  -0.179045  -1.6e-05  3.653349  0.0  -0.254745  -0.141927  2.9e-05  3.617514  0.0
N  N87  1  0.60502800  0.00702964  0.30588357  1  -0.240852  3e-05  3.402854  0.0  -0.156754  2.8e-05  3.632031  0.0  -0.178942  7e-06  3.653219  0.0  -0.254747  -0.141827  2.9e-05  3.617384  0.0
O  O88  1  0.06590082  0.81953876  0.93629762  1  -0.656471  0.02937  2.068549  0.018  -0.578159  0.032877  2.318011  0.018  -0.609743  0.029295  2.305839  0.015  -0.303776  -0.554853  0.036258  2.327171  0.021
O  O89  1  0.93409696  0.18045948  0.06370193  1  -0.65648  0.029362  2.068546  0.018  -0.578215  0.032878  2.318024  0.018  -0.609794  0.029291  2.305827  0.015  -0.303803  -0.554912  0.036259  2.327192  0.021
O  O90  1  0.73952904  0.49422072  0.91708440  1  -0.826463  0.027972  1.8579  0.017  -0.771744  0.036957  2.057809  0.022  -0.794258  0.032885  2.025751  0.019  -0.567534  -0.754434  0.040942  2.080914  0.025
O  O91  1  0.26047049  0.50578102  0.08291440  1  -0.826493  0.027965  1.857891  0.017  -0.771777  0.036957  2.057807  0.022  -0.794289  0.032885  2.025748  0.019  -0.567537  -0.754465  0.040943  2.080912  0.025
O  O92  1  0.17587295  0.71116822  0.04135363  1  -0.646123  0.007692  2.015475  0.003  -0.588151  0.014947  2.258155  0.009  -0.61464  0.012698  2.247853  0.007  -0.301096  -0.568433  0.017313  2.264571  0.011
O  O93  1  0.82412189  0.28883237  0.95864556  1  -0.646171  0.007713  2.015462  0.003  -0.588198  0.014948  2.258142  0.009  -0.614676  0.012701  2.247813  0.007  -0.301091  -0.568478  0.017314  2.264559  0.011
O  O94  1  0.02344458  0.98858040  0.14480611  1  -0.830509  0.032287  1.873618  0.022  -0.774064  0.041081  2.080341  0.027  -0.799281  0.036269  2.045602  0.023  -0.572573  -0.754985  0.045758  2.104887  0.031
O  O95  1  0.97655172  0.01141899  0.85519247  1  -0.830496  0.03229  1.873615  0.022  -0.774039  0.04108  2.080321  0.027  -0.79925  0.03627  2.045582  0.023  -0.572529  -0.754959  0.045757  2.104866  0.031
O  O96  1  0.66259284  0.71998474  0.02637956  1  -0.641221  0.02079  1.904165  0.017  -0.587286  0.027339  2.131944  0.022  -0.615103  0.023402  2.122452  0.019  -0.318243  -0.566258  0.031404  2.137392  0.026
O  O97  1  0.33740358  0.28001695  0.97361776  1  -0.641301  0.020798  1.904109  0.017  -0.587367  0.027338  2.131912  0.022  -0.615183  0.023399  2.122419  0.019  -0.318282  -0.566339  0.031403  2.137364  0.026
O  O98  1  0.75183226  0.79683719  0.89450779  1  -0.665396  0.025109  2.026875  0.02  -0.59321  0.029681  2.258173  0.023  -0.623921  0.02581  2.247882  0.019  -0.314913  -0.570235  0.033122  2.265409  0.026
O  O99  1  0.24816427  0.20315850  0.10548646  1  -0.66536  0.025102  2.02682  0.02  -0.59316  0.029681  2.258093  0.023  -0.623869  0.025809  2.247804  0.019  -0.314889  -0.570194  0.033122  2.265348  0.026
O  O100  1  0.12375916  0.90998024  0.61086916  1  -0.520973  -9.1e-05  1.936111  0.0  -0.479135  -8.2e-05  2.152404  0.0  -0.499132  -7.9e-05  2.146335  0.0  -0.289149  -0.465136  -2.1e-05  2.155162  0.0
O  O101  1  0.87625311  0.09002648  0.38913778  1  -0.520939  -0.000139  1.935956  0.0  -0.47916  -6.5e-05  2.152239  0.0  -0.499148  -0.000117  2.14615  0.0  -0.28913  -0.465159  -2.1e-05  2.154993  0.0
