# generated using pymatgen
data_CuH26C30NO6
_symmetry_space_group_name_H-M   'P 1'
_cell_length_a   10.40109985
_cell_length_b   13.98391662
_cell_length_c   14.50695205
_cell_angle_alpha   117.13200503
_cell_angle_beta   96.54033879
_cell_angle_gamma   112.87429340
_symmetry_Int_Tables_number   1
_chemical_formula_structural   CuH26C30NO6
_chemical_formula_sum   'Cu2 H52 C60 N2 O12'
_cell_volume   1617.39178592
_cell_formula_units_Z   2
loop_
 _symmetry_equiv_pos_site_id
 _symmetry_equiv_pos_as_xyz
  1  'x, y, z'
loop_
 _atom_site_type_symbol
 _atom_site_label
 _atom_site_symmetry_multiplicity
 _atom_site_fract_x
 _atom_site_fract_y
 _atom_site_fract_z
 _atom_site_occupancy
 _atom_site_pbe_bader_charge
 _atom_site_pbe_bader_spin_density
 _atom_site_pbe_cm5_charge
 _atom_site_pbe_ddec_charge
 _atom_site_pbe_ddec_spin_density
 _atom_site_pbe_ddec_sum_bond_order
 _atom_site_pbe_magmom
Cu  Cu0  1  0.99990658  0.59410691  0.50581308  1  1.063282  -0.549532  0.682337  0.751339  -0.708786  2.420649  -0.547
Cu  Cu1  1  0.00010089  0.40590292  0.49418776  1  1.062647  0.549532  0.682315  0.751302  0.70879  2.420764  0.547
H  H2  1  0.57942582  0.12928566  0.24553515  1  0.091967  0.000131  0.106457  0.112517  0.000127  0.991787  0.0
H  H3  1  0.42059239  0.87071939  0.75447227  1  0.09282  -0.000133  0.10645  0.112534  -0.000128  0.991825  0.0
H  H4  1  0.34756745  0.97670819  0.07588128  1  0.070453  -0.000196  0.096161  0.092856  -0.000107  1.029321  0.0
H  H5  1  0.65244057  0.02329775  0.92414220  1  0.070411  0.000196  0.096094  0.092858  0.000108  1.02929  0.0
H  H6  1  0.29580453  0.03020484  0.93920010  1  0.067267  -1.7e-05  0.101393  0.098399  -1.2e-05  0.986919  0.0
H  H7  1  0.70418193  0.96978060  0.06081403  1  0.067187  1.7e-05  0.101363  0.098408  1.2e-05  0.986996  0.0
H  H8  1  0.46836483  0.23315557  0.97286273  1  0.031693  0.00023  0.096504  0.101429  0.000118  1.047928  0.0
H  H9  1  0.53161083  0.76682948  0.02713376  1  0.031397  -0.000231  0.096494  0.101456  -0.000118  1.047935  0.0
H  H10  1  0.61129950  0.43392001  0.03856574  1  0.051142  -2.4e-05  0.100335  0.069436  -1e-05  1.016967  0.0
H  H11  1  0.38868653  0.56606789  0.96143140  1  0.051022  2.4e-05  0.10036  0.06954  1e-05  1.016921  0.0
H  H12  1  0.70254738  0.34657362  0.98812379  1  0.032333  1.2e-05  0.099561  0.058354  1e-05  1.029055  0.0
H  H13  1  0.29744008  0.65341175  0.01187521  1  0.032412  -1.2e-05  0.099588  0.058413  -1e-05  1.02907  0.0
H  H14  1  0.97630652  0.82638352  0.13104162  1  0.043685  -2e-06  0.09578  0.098636  -2e-06  1.01245  0.0
H  H15  1  0.02367729  0.17360054  0.86895172  1  0.043498  3e-06  0.09575  0.098589  2e-06  1.012441  0.0
H  H16  1  0.72274791  0.72988879  0.07718112  1  0.033376  -7e-06  0.090396  0.127407  -3e-06  1.005608  0.0
H  H17  1  0.27723740  0.27010290  0.92281954  1  0.03324  7e-06  0.090373  0.127372  3e-06  1.005613  0.0
H  H18  1  0.62542327  0.61191079  0.10082237  1  0.041193  1.9e-05  0.088317  0.120519  1.4e-05  1.030328  0.0
H  H19  1  0.37455451  0.38807957  0.89917298  1  0.040075  -1.9e-05  0.088268  0.12045  -1.4e-05  1.03024  0.0
H  H20  1  0.64088204  0.57232027  0.96928813  1  0.078039  -3e-06  0.089231  0.124831  -3e-06  1.020974  0.0
H  H21  1  0.35910180  0.42767386  0.03070924  1  0.078164  3e-06  0.089257  0.124804  3e-06  1.021008  0.0
H  H22  1  0.23105407  0.94968473  0.20904703  1  0.03302  -5e-06  0.094843  0.132122  -3e-06  0.998081  0.0
H  H23  1  0.76893401  0.05029489  0.79093177  1  0.032677  5e-06  0.09481  0.132201  3e-06  0.998091  0.0
H  H24  1  0.33005512  0.86969798  0.16176518  1  0.048613  -6e-06  0.089038  0.119525  -5e-06  1.017682  0.0
H  H25  1  0.66991666  0.13027020  0.83820559  1  0.048565  6e-06  0.089054  0.119595  5e-06  1.017669  0.0
H  H26  1  0.32722979  0.92529236  0.29783893  1  0.066329  -2e-06  0.100267  0.141451  -1e-06  0.978193  0.0
H  H27  1  0.67276511  0.07468900  0.70213770  1  0.066109  1e-06  0.100367  0.141558  0.0  0.978356  0.0
H  H28  1  0.09572761  0.44099354  0.10876766  1  0.023274  2e-06  0.087976  0.121988  3e-06  1.032014  0.0
H  H29  1  0.90425449  0.55899251  0.89121528  1  0.022988  -2e-06  0.087937  0.12193  -3e-06  1.032028  0.0
H  H30  1  0.89883916  0.35570798  0.05946345  1  0.045094  2e-06  0.087238  0.120568  2e-06  1.02841  0.0
H  H31  1  0.10114202  0.64427993  0.94053466  1  0.045227  -2e-06  0.087258  0.120586  -2e-06  1.028306  0.0
H  H32  1  0.00086369  0.45172478  0.20386789  1  0.066985  6e-05  0.101689  0.155838  4.6e-05  0.991458  0.0
H  H33  1  0.99914506  0.54827057  0.79612932  1  0.067049  -5.9e-05  0.101658  0.155789  -4.6e-05  0.991485  0.0
H  H34  1  0.28081739  0.59751937  0.13973740  1  0.054816  -7e-06  0.097356  0.054519  1e-06  1.045024  0.0
H  H35  1  0.71916474  0.40246343  0.86025046  1  0.055069  7e-06  0.097338  0.054384  -1e-06  1.045244  0.0
H  H36  1  0.36585830  0.76079266  0.23400446  1  0.04262  -4.6e-05  0.100212  0.068237  -2.1e-05  0.994869  0.0
H  H37  1  0.63412798  0.23919054  0.76597494  1  0.042674  4.6e-05  0.100178  0.068214  2e-05  0.994841  0.0
H  H38  1  0.51812627  0.67785056  0.24438006  1  0.03545  0.000232  0.094155  0.100061  0.000117  1.041099  0.0
H  H39  1  0.48187991  0.32216373  0.75562107  1  0.035649  -0.000232  0.094205  0.100107  -0.000117  1.041074  0.0
H  H40  1  0.67349468  0.59098619  0.27577676  1  0.084608  -1.8e-05  0.097683  0.095969  -1.1e-05  1.026931  0.0
H  H41  1  0.32651893  0.40903090  0.72422475  1  0.084363  1.8e-05  0.097627  0.095853  1.1e-05  1.026998  0.0
H  H42  1  0.61005430  0.47316881  0.36489131  1  0.093618  -0.000243  0.09964  0.113061  -0.000154  1.029959  0.0
H  H43  1  0.38996604  0.52684818  0.63510727  1  0.093312  0.000243  0.099632  0.113039  0.000154  1.029883  0.0
H  H44  1  0.38389013  0.43898891  0.41999946  1  0.078203  0.000204  0.104611  0.110133  0.000211  1.016436  0.0
H  H45  1  0.61615510  0.56103936  0.58001679  1  0.078819  -0.000204  0.104584  0.110142  -0.000211  1.016481  0.0
H  H46  1  0.97941426  0.66839547  0.34134482  1  0.108617  0.000103  0.120316  0.096314  8.4e-05  1.003907  0.0
H  H47  1  0.02058181  0.33160645  0.65866017  1  0.108559  -0.000102  0.120322  0.096322  -8.4e-05  1.003818  0.0
H  H48  1  0.98190006  0.83964980  0.32987814  1  0.069945  1.4e-05  0.097742  0.098415  2e-06  1.067451  0.0
H  H49  1  0.01809508  0.16035384  0.67012607  1  0.069966  -1.4e-05  0.097723  0.098359  -2e-06  1.06751  0.0
H  H50  1  0.01208497  0.01803389  0.67294940  1  0.071107  2.1e-05  0.102371  0.105051  6e-06  1.033104  0.0
H  H51  1  0.98795701  0.98198878  0.32706365  1  0.071243  -2.1e-05  0.102354  0.104931  -6e-06  1.033188  0.0
H  H52  1  0.00672082  0.83636458  0.66765018  1  0.084299  9.3e-05  0.120626  0.093443  6.4e-05  0.973464  0.0
H  H53  1  0.99332379  0.16366098  0.33236563  1  0.084565  -9.3e-05  0.120594  0.093444  -6.4e-05  0.973438  0.0
C  C54  1  0.78625821  0.35240736  0.31076318  1  1.529749  -0.000458  0.212129  0.585668  -0.00038  4.165248  0.0
C  C55  1  0.21374203  0.64760338  0.68923948  1  1.530021  0.000459  0.211897  0.585501  0.000384  4.166129  0.0
C  C56  1  0.65172212  0.26687975  0.20653009  1  -0.055954  -0.000294  -0.022934  -0.129196  -0.000147  3.928614  0.0
C  C57  1  0.34827728  0.73312288  0.79347132  1  -0.0562  0.000296  -0.022887  -0.129128  0.000149  3.928644  0.0
C  C58  1  0.55170368  0.15105877  0.18542761  1  0.012902  -0.000516  -0.083895  -0.076127  -0.000326  3.99  -0.001
C  C59  1  0.44830677  0.84894626  0.81458122  1  0.01219  0.000516  -0.083928  -0.076083  0.000326  3.989867  0.001
C  C60  1  0.42290867  0.06664101  0.09124478  1  -0.02438  -0.000868  -0.108585  -0.119279  -0.000607  4.067091  -0.001
C  C61  1  0.57709261  0.93336160  0.90876990  1  -0.024081  0.000866  -0.108521  -0.119365  0.000606  4.066981  0.001
C  C62  1  0.39424406  0.09669228  0.01479316  1  -0.09188  0.000542  -0.087789  -0.046056  0.000352  4.050224  0.0
C  C63  1  0.60574608  0.90330279  0.98521755  1  -0.092378  -0.000542  -0.087712  -0.045998  -0.000353  4.050036  0.0
C  C64  1  0.49232404  0.21088153  0.03316513  1  0.010948  0.000112  -0.120291  -0.242809  9.9e-05  4.045639  0.0
C  C65  1  0.50765999  0.78911297  0.96683793  1  0.011144  -0.000113  -0.120351  -0.242879  -0.0001  4.045648  0.0
C  C66  1  0.62019609  0.29761496  0.12948966  1  0.494507  0.001668  0.091287  0.243719  0.001072  4.020563  0.001
C  C67  1  0.37979148  0.70238396  0.87051202  1  0.494945  -0.001671  0.091277  0.243732  -0.001074  4.020676  -0.001
C  C68  1  0.71144887  0.42815438  0.06086793  1  0.407404  -5.8e-05  -0.064314  -0.009636  -3.2e-05  3.924426  0.0
C  C69  1  0.28853716  0.57183517  0.93912711  1  0.407515  5.9e-05  -0.064406  -0.009874  3.3e-05  3.924628  0.0
C  C70  1  0.85186924  0.54415384  0.09612840  1  -0.029577  -3e-05  -0.023432  -0.059911  -1.8e-05  3.91842  0.0
C  C71  1  0.14811509  0.45583276  0.90386254  1  -0.029957  3e-05  -0.023464  -0.060009  1.8e-05  3.918378  0.0
C  C72  1  0.84600075  0.64335328  0.09660458  1  0.010052  8e-06  -0.01022  0.131165  5e-06  3.988716  0.0
C  C73  1  0.15398062  0.35663156  0.90338748  1  0.009784  -8e-06  -0.01031  0.130965  -5e-06  3.988724  0.0
C  C74  1  0.98035274  0.74990339  0.13206517  1  -0.101599  -1e-06  -0.104043  -0.229233  -1e-06  4.000325  0.0
C  C75  1  0.01963010  0.25008066  0.86792808  1  -0.101292  1e-06  -0.103892  -0.228989  1e-06  4.000143  0.0
C  C76  1  0.11941864  0.76274363  0.16998489  1  -0.004689  6e-06  -0.009311  0.133062  4e-06  3.994564  0.0
C  C77  1  0.88056359  0.23723935  0.83000581  1  -0.004681  -6e-06  -0.009258  0.133005  -4e-06  3.994507  0.0
C  C78  1  0.12400624  0.66267716  0.16830056  1  0.01387  -4.4e-05  -0.019  -0.049746  -2.6e-05  3.901516  0.0
C  C79  1  0.87597963  0.33730877  0.83169371  1  0.014448  4.4e-05  -0.019059  -0.049575  2.6e-05  3.901284  0.0
C  C80  1  0.99059488  0.55211300  0.12923027  1  -0.016262  7e-06  0.006124  0.11397  4e-06  3.906446  0.0
C  C81  1  0.00938963  0.44787561  0.87076426  1  -0.016701  -7e-06  0.00611  0.113988  -4e-06  3.906212  0.0
C  C82  1  0.70115662  0.63874260  0.05925655  1  -0.114859  9e-06  -0.238713  -0.411907  6e-06  3.968584  0.0
C  C83  1  0.29882657  0.36124708  0.94074106  1  -0.113608  -9e-06  -0.23863  -0.411681  -6e-06  3.968413  0.0
C  C84  1  0.25901320  0.88279973  0.21177329  1  -0.097936  -7e-06  -0.236162  -0.413279  -9e-06  3.9739  0.0
C  C85  1  0.74096991  0.11717801  0.78820503  1  -0.097505  7e-06  -0.236276  -0.413608  8e-06  3.974275  0.0
C  C86  1  0.99669874  0.44443027  0.12485325  1  -0.046148  5.7e-05  -0.243658  -0.414042  4.7e-05  3.95366  0.0
C  C87  1  0.00328712  0.55555732  0.87513892  1  -0.045891  -5.8e-05  -0.243605  -0.413932  -4.7e-05  3.953506  0.0
C  C88  1  0.27057695  0.67107809  0.20737343  1  0.396244  -7.3e-05  -0.062831  -0.005413  -4.4e-05  3.924127  0.0
C  C89  1  0.72941171  0.32890927  0.79261474  1  0.396077  7.3e-05  -0.062753  -0.005228  4.4e-05  3.924223  0.0
C  C90  1  0.36340652  0.60823822  0.31541447  1  0.444631  0.001642  0.08557  0.239969  0.001034  4.024474  0.001
C  C91  1  0.63660127  0.39176882  0.68458459  1  0.44502  -0.001639  0.085643  0.240109  -0.001032  4.024408  -0.001
C  C92  1  0.48778070  0.62436121  0.28207024  1  -0.045649  0.000172  -0.122927  -0.249358  0.000138  4.059326  0.0
C  C93  1  0.51222718  0.37564931  0.71792746  1  -0.045158  -0.000172  -0.123004  -0.249521  -0.000138  4.059456  0.0
C  C94  1  0.57579466  0.57622789  0.30024617  1  -0.075151  0.000461  -0.094716  -0.048727  0.000297  4.028175  0.0
C  C95  1  0.42421673  0.42378535  0.69975154  1  -0.075419  -0.000462  -0.094745  -0.048607  -0.000298  4.028413  0.0
C  C96  1  0.53979852  0.50921845  0.35003696  1  0.03497  -0.000972  -0.104241  -0.107915  -0.000699  4.008965  -0.001
C  C97  1  0.46021985  0.49079681  0.64996283  1  0.03514  0.000972  -0.104142  -0.107907  0.000699  4.00911  0.001
C  C98  1  0.41542158  0.49171179  0.38173091  1  -0.05761  -0.00068  -0.083825  -0.074026  -0.000405  3.981102  -0.001
C  C99  1  0.58460358  0.50830854  0.61827702  1  -0.058102  0.000679  -0.083876  -0.074137  0.000404  3.981317  0.001
C  C100  1  0.32665379  0.54145036  0.36711849  1  0.013407  -0.00059  -0.026137  -0.132055  -0.000403  3.92252  -0.001
C  C101  1  0.67336388  0.45856543  0.63288974  1  0.012436  0.000587  -0.026183  -0.131994  0.0004  3.922594  0.001
C  C102  1  0.20024395  0.52266533  0.40980321  1  1.536774  -1e-05  0.209763  0.585497  -0.000105  4.163305  0.0
C  C103  1  0.79977708  0.47734792  0.59020636  1  1.536099  1e-05  0.209512  0.585308  0.000107  4.163453  0.0
C  C104  1  0.98656484  0.74804574  0.41296747  1  0.511734  0.000814  0.054727  0.1145  0.000541  3.925661  0.001
C  C105  1  0.01344018  0.25195993  0.58703839  1  0.511641  -0.000813  0.054665  0.114486  -0.00054  3.925587  -0.001
C  C106  1  0.98817544  0.84526820  0.40766443  1  -0.025664  -0.000395  -0.084901  -0.17397  -0.000264  3.936705  0.0
C  C107  1  0.01183009  0.15473835  0.59234114  1  -0.025702  0.000395  -0.084895  -0.173963  0.000264  3.936615  0.0
C  C108  1  0.99828214  0.94711344  0.50119935  1  -0.031345  0.000797  0.008375  0.102169  0.000511  3.977247  0.001
C  C109  1  0.00173833  0.05289884  0.49880909  1  0.003236  -0.000797  0.008417  0.10225  -0.000511  3.977234  -0.001
C  C110  1  0.00490054  0.94329657  0.59678050  1  -0.032399  -0.00041  -0.088157  -0.18364  -0.000272  3.956823  0.0
C  C111  1  0.99513846  0.05672430  0.40323295  1  -0.040915  0.00041  -0.088173  -0.18362  0.000272  3.956882  0.0
C  C112  1  0.00199863  0.84213346  0.59487861  1  0.510276  0.000789  0.052011  0.101948  0.00052  3.963055  0.001
C  C113  1  0.99803689  0.15788643  0.40513415  1  0.518133  -0.000789  0.052122  0.102082  -0.00052  3.963016  -0.001
N  N114  1  0.99352180  0.74599272  0.50488752  1  -1.213849  0.001423  -0.33099  -0.221911  0.000595  3.49561  0.0
N  N115  1  0.00649576  0.25401954  0.49512136  1  -1.213498  -0.001423  -0.331035  -0.221995  -0.000595  3.495703  0.0
O  O116  1  0.83560669  0.46842449  0.35787841  1  -1.100791  -0.083815  -0.303717  -0.511613  -0.054828  2.403997  -0.076
O  O117  1  0.16423039  0.53157271  0.64221132  1  -1.10144  0.083841  -0.303576  -0.511544  0.054842  2.404004  0.076
O  O118  1  0.83727398  0.30083294  0.34559402  1  -1.101923  0.08349  -0.316017  -0.522242  0.054599  2.343124  0.076
O  O119  1  0.16288237  0.69919592  0.65432488  1  -1.102161  -0.083507  -0.315837  -0.522121  -0.05462  2.343884  -0.076
O  O120  1  0.71805417  0.41093007  0.15150514  1  -1.052747  -0.000528  -0.167814  -0.181938  -0.000475  2.591932  0.0
O  O121  1  0.28193426  0.58906699  0.84849518  1  -1.05237  0.000537  -0.167754  -0.181905  0.000481  2.592253  0.0
O  O122  1  0.27453239  0.65348624  0.29782842  1  -1.044952  -0.0011  -0.175102  -0.180712  -0.000864  2.551549  -0.001
O  O123  1  0.72546705  0.34651140  0.70216478  1  -1.04513  0.001098  -0.175198  -0.180935  0.000862  2.551607  0.001
O  O124  1  0.15452621  0.60058044  0.43499090  1  -1.082346  -0.092047  -0.311238  -0.513058  -0.059994  2.373151  -0.083
O  O125  1  0.84536765  0.39934301  0.56489669  1  -1.082384  0.092066  -0.311188  -0.513004  0.060009  2.373093  0.083
O  O126  1  0.15134802  0.43087026  0.42094444  1  -1.107347  0.084928  -0.317169  -0.526167  0.055488  2.351947  0.077
O  O127  1  0.84879352  0.56922629  0.57918463  1  -1.106399  -0.084957  -0.317025  -0.526123  -0.055504  2.351759  -0.077
