# generated using pymatgen
data_CuH8C12(NO2)2
_symmetry_space_group_name_H-M   'P 1'
_cell_length_a   7.79148102
_cell_length_b   7.83348853
_cell_length_c   10.14856136
_cell_angle_alpha   89.18362868
_cell_angle_beta   88.35813738
_cell_angle_gamma   60.17606174
_symmetry_Int_Tables_number   1
_chemical_formula_structural   CuH8C12(NO2)2
_chemical_formula_sum   'Cu2 H16 C24 N4 O8'
_cell_volume   537.15517369
_cell_formula_units_Z   2
loop_
 _symmetry_equiv_pos_site_id
 _symmetry_equiv_pos_as_xyz
  1  'x, y, z'
loop_
 _atom_site_type_symbol
 _atom_site_label
 _atom_site_symmetry_multiplicity
 _atom_site_fract_x
 _atom_site_fract_y
 _atom_site_fract_z
 _atom_site_occupancy
 _atom_site_hle17_ddec_charge
 _atom_site_hle17_ddec_spin_density
 _atom_site_hle17_ddec_sum_bond_order
 _atom_site_hle17_magmom
 _atom_site_hse06_10hf_ddec_charge
 _atom_site_hse06_10hf_ddec_spin_density
 _atom_site_hse06_10hf_ddec_sum_bond_order
 _atom_site_hse06_10hf_magmom
 _atom_site_hse06_ddec_charge
 _atom_site_hse06_ddec_spin_density
 _atom_site_hse06_ddec_sum_bond_order
 _atom_site_hse06_magmom
 _atom_site_pbe_cm5_charge
 _atom_site_pbe_ddec_charge
 _atom_site_pbe_ddec_spin_density
 _atom_site_pbe_ddec_sum_bond_order
 _atom_site_pbe_magmom
Cu  Cu0  1  0.56634277  0.86735338  0.25000896  1  0.831931  -0.710518  1.803918  -0.491  0.803474  -0.79118  2.19262  -0.603  0.897794  -0.870981  2.121313  -0.692  0.755913  0.744833  -0.732978  2.244171  -0.545
Cu  Cu1  1  0.43365199  0.13264723  0.74999386  1  0.831993  0.710483  1.804008  0.491  0.803526  0.791149  2.192743  0.603  0.89774  0.870938  2.121509  0.692  0.755909  0.744889  0.73295  2.244329  0.545
H  H2  1  0.39397592  0.52626086  0.07223493  1  0.120228  -0.000774  0.978829  -0.001  0.125804  -0.000628  1.04701  -0.001  0.12975  -0.000473  1.044677  -0.001  0.110488  0.122948  -0.000701  1.048319  -0.001
H  H3  1  0.07976895  0.52626356  0.42777335  1  0.120233  -0.000774  0.978828  -0.001  0.125724  -0.000628  1.047079  -0.001  0.129654  -0.000473  1.044776  -0.001  0.11046  0.12287  -0.000701  1.04838  -0.001
H  H4  1  0.60601496  0.47376035  0.92775197  1  0.120278  0.00077  0.978958  0.001  0.12585  0.000627  1.047106  0.001  0.129808  0.000472  1.044751  0.001  0.110536  0.122964  0.000699  1.048494  0.001
H  H5  1  0.92021148  0.47376059  0.57223446  1  0.120454  0.000769  0.979017  0.001  0.125908  0.000627  1.047243  0.001  0.129856  0.000472  1.044896  0.001  0.110566  0.123041  0.000699  1.048588  0.001
H  H6  1  0.14665690  0.70668221  0.25000233  1  0.110518  -9.2e-05  0.929127  0.0  0.12263  8.1e-05  0.982515  0.0  0.125788  7.3e-05  0.979981  0.0  0.117027  0.1202  8.3e-05  0.984755  0.0
H  H7  1  0.85334448  0.29330515  0.74999458  1  0.110433  9.5e-05  0.928847  0.0  0.122506  -8.2e-05  0.982294  0.0  0.125667  -7.3e-05  0.979759  0.0  0.116957  0.120074  -8.3e-05  0.98453  0.0
H  H8  1  0.57921950  0.57192424  0.42810402  1  0.08469  -0.000615  0.959062  -0.001  0.09394  -0.000576  1.023345  -0.001  0.095959  -0.000443  1.02217  -0.001  0.117447  0.092341  -0.000675  1.02438  -0.001
H  H9  1  0.84884142  0.57192203  0.07189039  1  0.084694  -0.000615  0.958983  -0.001  0.093925  -0.000576  1.023309  -0.001  0.095945  -0.000443  1.022135  -0.001  0.117457  0.092325  -0.000675  1.024343  -0.001
H  H10  1  0.42077819  0.42808078  0.57189770  1  0.08469  0.000616  0.959146  0.001  0.093939  0.000575  1.023425  0.001  0.095959  0.000442  1.022247  0.001  0.117437  0.092341  0.000674  1.024462  0.001
H  H11  1  0.15114948  0.42808888  0.92811043  1  0.084701  0.000616  0.959012  0.001  0.093907  0.000576  1.023364  0.001  0.095927  0.000443  1.022186  0.001  0.117427  0.092306  0.000675  1.024404  0.001
H  H12  1  0.75847801  0.20102252  0.43665177  1  0.124686  -0.0002  0.964093  0.0  0.132807  -9.4e-05  1.023896  0.0  0.137975  -8.9e-05  1.020839  0.0  0.108064  0.129045  -8.7e-05  1.026174  0.0
H  H13  1  0.04050067  0.20101814  0.06334772  1  0.124689  -0.0002  0.964179  0.0  0.132812  -9.4e-05  1.023977  0.0  0.137983  -8.8e-05  1.020912  0.0  0.108064  0.12907  -8.6e-05  1.026237  0.0
H  H14  1  0.24152170  0.79898103  0.56334795  1  0.124643  0.000199  0.964155  0.0  0.132773  9.5e-05  1.023948  0.0  0.13794  8.9e-05  1.020892  0.0  0.108044  0.129012  8.8e-05  1.026222  0.0
H  H15  1  0.95950014  0.79898835  0.93665096  1  0.12475  0.000199  0.96418  0.0  0.13287  9.5e-05  1.02397  0.0  0.138041  8.9e-05  1.020902  0.0  0.108086  0.129109  8.8e-05  1.026254  0.0
H  H16  1  0.99300593  0.01400186  0.25000219  1  0.100372  -0.00026  0.937872  0.0  0.112117  -3.7e-05  0.995521  0.0  0.115009  2e-06  0.992769  0.0  0.111803  0.109837  -7e-05  0.997851  0.0
H  H17  1  0.00699341  0.98600758  0.74999747  1  0.100356  0.000262  0.937871  0.0  0.112113  3.6e-05  0.995515  0.0  0.11501  -2e-06  0.992754  0.0  0.111785  0.109829  7e-05  0.997839  0.0
C  C18  1  0.62050190  0.09928622  0.05483784  1  0.60008  0.003087  3.9329  0.005  0.555573  -0.001215  4.239768  0.0  0.591739  -0.001113  4.234395  0.0  0.203511  0.530499  -0.001322  4.242611  0.001
C  C19  1  0.28022190  0.09928339  0.44517026  1  0.600069  0.003085  3.93287  0.005  0.555598  -0.001217  4.23969  0.0  0.591769  -0.001114  4.234313  0.0  0.203454  0.530512  -0.001324  4.242562  0.001
C  C20  1  0.37952906  0.90067025  0.94516367  1  0.599461  -0.003097  3.932092  -0.005  0.555079  0.001208  4.238816  0.0  0.59125  0.001108  4.233443  0.0  0.20312  0.529999  0.001313  4.241667  -0.001
C  C21  1  0.71977824  0.90067307  0.55483096  1  0.599511  -0.003092  3.931975  -0.005  0.5552  0.001209  4.238592  0.0  0.591377  0.001108  4.233223  0.0  0.203099  0.530117  0.001314  4.241458  -0.001
C  C22  1  0.46481811  0.23995973  0.15202662  1  0.10677  0.005689  3.731302  0.006  0.111593  0.000962  3.97216  0.002  0.115175  0.001965  3.99211  0.003  0.117028  0.109237  0.00012  3.959386  0.001
C  C23  1  0.29522408  0.23995758  0.34797480  1  0.106794  0.005688  3.731309  0.006  0.111548  0.000962  3.972238  0.002  0.115128  0.001965  3.992188  0.003  0.116994  0.109197  0.000116  3.959456  0.001
C  C24  1  0.53519523  0.76000115  0.84797426  1  0.106759  -0.005719  3.731357  -0.006  0.11159  -0.000961  3.972127  -0.002  0.115166  -0.001965  3.992066  -0.003  0.116957  0.109242  -0.00012  3.959341  -0.001
C  C25  1  0.70479090  0.76000771  0.65202303  1  0.106799  -0.005721  3.731541  -0.006  0.111554  -0.00096  3.972332  -0.002  0.115128  -0.001964  3.992272  -0.003  0.11698  0.109198  -0.000116  3.95957  -0.001
C  C26  1  0.36500376  0.44486541  0.14902427  1  -0.096123  -0.006713  3.661981  -0.006  -0.121697  -0.002938  3.911508  -0.003  -0.125566  -0.00306  3.929747  -0.003  -0.066473  -0.11844  -0.002662  3.899255  -0.002
C  C27  1  0.19013184  0.44486775  0.35098311  1  -0.096123  -0.006714  3.661811  -0.006  -0.121592  -0.002939  3.911387  -0.003  -0.125456  -0.003061  3.929623  -0.003  -0.066445  -0.118348  -0.002662  3.899126  -0.002
C  C28  1  0.63497855  0.55512931  0.85098678  1  -0.096153  0.006744  3.662462  0.006  -0.121757  0.002935  3.91195  0.003  -0.125623  0.003057  3.93018  0.003  -0.066567  -0.118511  0.002658  3.899688  0.002
C  C29  1  0.80988053  0.55512845  0.64900163  1  -0.096372  0.006751  3.662338  0.006  -0.121842  0.002936  3.911856  0.003  -0.125699  0.003058  3.930083  0.003  -0.066582  -0.118606  0.002658  3.899607  0.002
C  C30  1  0.22671849  0.54656458  0.25000224  1  0.019362  0.008097  3.632823  0.007  0.003135  0.002733  3.883185  0.002  0.006675  0.003111  3.898041  0.003  -0.052177  -0.000557  0.002434  3.874083  0.002
C  C31  1  0.77326120  0.45346104  0.74999867  1  0.019629  -0.008146  3.632192  -0.007  0.003454  -0.002737  3.882482  -0.002  0.006997  -0.003115  3.897331  -0.003  -0.051997  -0.000227  -0.002437  3.873372  -0.002
C  C32  1  0.68359693  0.48201618  0.35062488  1  0.110028  0.004598  3.693177  0.005  0.083718  0.00067  3.943114  0.001  0.091438  0.001482  3.963936  0.002  0.042183  0.078716  9.9e-05  3.929557  0.0
C  C33  1  0.83437128  0.48201117  0.14936954  1  0.110107  0.004598  3.693216  0.005  0.083782  0.00067  3.943217  0.001  0.091499  0.001481  3.964041  0.002  0.042207  0.078799  9.4e-05  3.929654  0.0
C  C34  1  0.31640425  0.51798443  0.64937286  1  0.11005  -0.004631  3.693058  -0.005  0.083731  -0.00067  3.942988  -0.001  0.091453  -0.001482  3.963801  -0.002  0.042208  0.078724  -9.9e-05  3.929443  0.0
C  C35  1  0.16562606  0.51798943  0.85063224  1  0.110205  -0.004632  3.693002  -0.005  0.083894  -0.000672  3.942975  -0.001  0.091615  -0.001483  3.963786  -0.002  0.04228  0.078911  -9.5e-05  3.929423  0.0
C  C36  1  0.78370294  0.27764021  0.35442375  1  -0.11111  -0.006901  3.701133  -0.007  -0.120501  -0.002824  3.943511  -0.003  -0.127878  -0.002734  3.962891  -0.003  -0.081083  -0.115852  -0.002853  3.930725  -0.003
C  C37  1  0.93866028  0.27763809  0.14557211  1  -0.111095  -0.006902  3.701136  -0.007  -0.120485  -0.002824  3.943533  -0.003  -0.127855  -0.002734  3.962902  -0.003  -0.081074  -0.115863  -0.002855  3.930727  -0.003
C  C38  1  0.21630043  0.72236628  0.64557487  1  -0.111054  0.006938  3.701023  0.007  -0.120461  0.002825  3.943426  0.003  -0.127841  0.002735  3.962811  0.003  -0.081081  -0.115811  0.002854  3.93063  0.003
C  C39  1  0.06133832  0.72237281  0.85443149  1  -0.111205  0.006938  3.70111  0.007  -0.120591  0.002825  3.943495  0.003  -0.127965  0.002735  3.962871  0.003  -0.08114  -0.115957  0.002856  3.930695  0.003
C  C40  1  0.91295686  0.17408418  0.25000240  1  0.013729  0.006614  3.678995  0.006  -0.005325  0.002383  3.92533  0.002  4.8e-05  0.002569  3.940817  0.002  -0.05847  -0.009123  0.002299  3.91559  0.002
C  C41  1  0.08704580  0.82591349  0.74999929  1  0.013691  -0.006648  3.67911  -0.006  -0.005372  -0.002384  3.925452  -0.002  -2e-06  -0.00257  3.940949  -0.002  -0.058488  -0.009163  -0.0023  3.9157  -0.002
N  N42  1  0.70870453  0.58257866  0.24999766  1  -0.307555  -0.057345  3.382136  -0.068  -0.252938  -0.037972  3.680966  -0.048  -0.283302  -0.033155  3.701232  -0.044  -0.366119  -0.234923  -0.039614  3.670216  -0.048
N  N43  1  0.29129592  0.41742342  0.75000206  1  -0.307625  0.057383  3.382023  0.068  -0.252972  0.037981  3.680836  0.048  -0.283307  0.033163  3.701068  0.044  -0.366109  -0.234961  0.039624  3.670098  0.048
N  N44  1  0.42660662  0.14677521  0.25000133  1  -0.315508  -0.090151  3.467817  -0.109  -0.276958  -0.061369  3.752605  -0.079  -0.307327  -0.051681  3.775809  -0.07  -0.364034  -0.259977  -0.065395  3.740388  -0.081
N  N45  1  0.57338335  0.85324011  0.74999749  1  -0.315388  0.090117  3.467009  0.109  -0.276887  0.061338  3.751855  0.079  -0.30722  0.051664  3.775012  0.07  -0.363852  -0.259909  0.065363  3.739656  0.081
O  O46  1  0.69970244  0.91464235  0.08803830  1  -0.597466  -0.09534  2.000337  -0.124  -0.570344  -0.066601  2.276173  -0.095  -0.613589  -0.051066  2.268611  -0.077  -0.322087  -0.541512  -0.075966  2.281895  -0.104
O  O47  1  0.38566808  0.91464646  0.41197130  1  -0.597413  -0.09532  2.000351  -0.124  -0.570316  -0.066588  2.276172  -0.095  -0.613558  -0.051056  2.268599  -0.077  -0.322103  -0.541495  -0.075951  2.281908  -0.104
O  O48  1  0.30027908  0.08538475  0.91197043  1  -0.597348  0.095446  1.999251  0.124  -0.570278  0.066656  2.275015  0.095  -0.613517  0.051108  2.267449  0.077  -0.322012  -0.541433  0.076029  2.280743  0.104
O  O49  1  0.61430885  0.08538210  0.58802175  1  -0.597323  0.095439  1.999288  0.124  -0.570257  0.066652  2.275005  0.095  -0.613498  0.051104  2.267436  0.077  -0.321996  -0.541423  0.07603  2.280737  0.104
O  O50  1  0.66327382  0.16115131  0.95256043  1  -0.568331  -0.022984  1.923388  -0.027  -0.544029  -0.01213  2.163949  -0.015  -0.572436  -0.006055  2.156569  -0.008  -0.301086  -0.522177  -0.018933  2.16787  -0.023
O  O51  1  0.17558905  0.16115018  0.54745350  1  -0.568306  -0.022987  1.923403  -0.027  -0.544052  -0.01213  2.164055  -0.015  -0.572445  -0.006056  2.156635  -0.008  -0.300981  -0.52219  -0.018926  2.167979  -0.023
O  O52  1  0.33672243  0.83884635  0.04745224  1  -0.567938  0.022933  1.923277  0.027  -0.543685  0.012109  2.163792  0.015  -0.572088  0.006047  2.156416  0.008  -0.30078  -0.521844  0.018901  2.167717  0.023
O  O53  1  0.82440076  0.83884749  0.45253468  1  -0.567951  0.022936  1.923128  0.027  -0.543736  0.012111  2.163658  0.015  -0.572091  0.006047  2.156158  0.008  -0.300755  -0.521883  0.018898  2.167576  0.023
