# generated using pymatgen
data_RbH2C6(NO3)3
_symmetry_space_group_name_H-M   'P 1'
_cell_length_a   9.47261671
_cell_length_b   9.82754759
_cell_length_c   11.77763024
_cell_angle_alpha   85.95297137
_cell_angle_beta   66.28070892
_cell_angle_gamma   79.87404251
_symmetry_Int_Tables_number   1
_chemical_formula_structural   RbH2C6(NO3)3
_chemical_formula_sum   'Rb4 H8 C24 N12 O36'
_cell_volume   988.15782858
_cell_formula_units_Z   4
loop_
 _symmetry_equiv_pos_site_id
 _symmetry_equiv_pos_as_xyz
  1  'x, y, z'
loop_
 _atom_site_type_symbol
 _atom_site_label
 _atom_site_symmetry_multiplicity
 _atom_site_fract_x
 _atom_site_fract_y
 _atom_site_fract_z
 _atom_site_occupancy
 _atom_site_hle17_bader_spin_density
 _atom_site_hle17_ddec_charge
 _atom_site_hle17_ddec_spin_density
 _atom_site_hle17_ddec_sum_bond_order
 _atom_site_hle17_magmom
 _atom_site_hse06_10hf_bader_spin_density
 _atom_site_hse06_10hf_ddec_charge
 _atom_site_hse06_10hf_ddec_spin_density
 _atom_site_hse06_10hf_ddec_sum_bond_order
 _atom_site_hse06_10hf_magmom
 _atom_site_hse06_bader_spin_density
 _atom_site_hse06_ddec_charge
 _atom_site_hse06_ddec_spin_density
 _atom_site_hse06_ddec_sum_bond_order
 _atom_site_hse06_magmom
 _atom_site_pbe_bader_spin_density
 _atom_site_pbe_cm5_charge
 _atom_site_pbe_ddec_charge
 _atom_site_pbe_ddec_spin_density
 _atom_site_pbe_ddec_sum_bond_order
 _atom_site_pbe_magmom
Rb  Rb0  1  0.68442962  0.76125337  0.10046396  1  0  0.932525  0  0.456036  0  0  0.870342  0  0.670599  0  0  0.88719  0  0.645322  0  0  0.798663  0.858047  0  0.688506  0
Rb  Rb1  1  0.21520932  0.73879594  0.10028711  1  0  0.932301  0  0.456702  0  0  0.870338  0  0.670999  0  0  0.887187  0  0.645694  0  0  0.7989  0.857999  0  0.688977  0
Rb  Rb2  1  0.31557467  0.23874446  0.89953085  1  0  0.93254  0  0.456015  0  0  0.870355  0  0.670583  0  0  0.887201  0  0.645309  0  0  0.798682  0.858066  0  0.688494  0
Rb  Rb3  1  0.78479225  0.26120706  0.89971183  1  0  0.932304  0  0.456697  0  0  0.870335  0  0.671008  0  0  0.88718  0  0.645704  0  0  0.798909  0.858003  0  0.688987  0
H  H4  1  0.39784444  0.96360394  0.61464467  1  0  0.374188  0  0.92599  0  0  0.343529  0  1.004593  0  0  0.356867  0  0.991433  0  0  0.309772  0.334256  0  1.013773  0
H  H5  1  0.98736930  0.53624433  0.61483566  1  0  0.373468  0  0.927896  0  0  0.343287  0  1.005672  0  0  0.356533  0  0.99268  0  0  0.309878  0.334035  0  1.014782  0
H  H6  1  0.60215578  0.03639700  0.38535597  1  0  0.374209  0  0.925941  0  0  0.34355  0  1.004543  0  0  0.356889  0  0.991382  0  0  0.309776  0.33428  0  1.013711  0
H  H7  1  0.01263194  0.46375557  0.38516413  1  0  0.373483  0  0.927978  0  0  0.343313  0  1.005724  0  0  0.356557  0  0.992736  0  0  0.309896  0.334065  0  1.014829  0
H  H8  1  0.64614805  0.58940698  0.44075995  1  0  0.389186  0  0.884481  0  0  0.360078  0  0.959996  0  0  0.372227  0  0.947075  0  0  0.319212  0.351623  0  0.968712  0
H  H9  1  0.91269998  0.91082157  0.44080537  1  0  0.38894  0  0.884733  0  0  0.35964  0  0.960541  0  0  0.371797  0  0.947626  0  0  0.319606  0.351166  0  0.969283  0
H  H10  1  0.35385408  0.41059186  0.55924145  1  0  0.389254  0  0.884406  0  0  0.360167  0  0.959879  0  0  0.37233  0  0.946945  0  0  0.319231  0.351678  0  0.968649  0
H  H11  1  0.08729679  0.08917631  0.55919463  1  0  0.38892  0  0.884774  0  0  0.359694  0  0.960475  0  0  0.371853  0  0.947559  0  0  0.319622  0.35122  0  0.969223  0
C  C12  1  0.09198957  0.74997631  0.81597579  1  0  0.405213  0  3.835929  0  0  0.383794  0  4.112674  0  0  0.410386  0  4.11559  0  0  0.139873  0.365526  0  4.111347  0
C  C13  1  0.90801082  0.25002359  0.18402485  1  0  0.405177  0  3.835968  0  0  0.383771  0  4.112684  0  0  0.410367  0  4.115596  0  0  0.139846  0.365507  0  4.111361  0
C  C14  1  0.20904017  0.83739491  0.74194156  1  0  -0.175734  0  3.566048  0  0  -0.208326  0  3.837981  0  0  -0.22216  0  3.86043  0  0  0.059073  -0.196413  0  3.82622  0
C  C15  1  0.04885475  0.66255065  0.74201711  1  0  -0.175535  0  3.567482  0  0  -0.207273  0  3.837979  0  0  -0.225972  0  3.856788  0  0  0.059328  -0.195268  0  3.82607  0
C  C16  1  0.79095926  0.16260603  0.25805871  1  0  -0.175768  0  3.566107  0  0  -0.208367  0  3.838043  0  0  -0.222205  0  3.860497  0  0  0.059043  -0.196464  0  3.826284  0
C  C17  1  0.95114753  0.33744821  0.25798184  1  0  -0.175528  0  3.567525  0  0  -0.207252  0  3.838034  0  0  -0.225954  0  3.856846  0  0  0.059355  -0.195248  0  3.826131  0
C  C18  1  0.27977743  0.83215083  0.60924265  1  0  0.357362  0  3.786305  0  0  0.322705  0  4.077519  0  0  0.350424  0  4.082663  0  0  0.123895  0.304505  0  4.073453  0
C  C19  1  0.11082007  0.66771444  0.60929786  1  0  0.354924  0  3.788828  0  0  0.321255  0  4.078512  0  0  0.348823  0  4.084328  0  0  0.123256  0.303059  0  4.074383  0
C  C20  1  0.72022321  0.16784805  0.39075677  1  0  0.357309  0  3.786327  0  0  0.322681  0  4.077489  0  0  0.350406  0  4.082629  0  0  0.123878  0.304485  0  4.073421  0
C  C21  1  0.88917954  0.33228547  0.39070242  1  0  0.355034  0  3.788829  0  0  0.321307  0  4.078589  0  0  0.348872  0  4.084409  0  0  0.123256  0.303106  0  4.074468  0
C  C22  1  0.22718491  0.74995963  0.54537803  1  0  -0.144201  0  3.603786  0  0  -0.180385  0  3.876523  0  0  -0.199141  0  3.893685  0  0  0.051124  -0.167623  0  3.865119  0
C  C23  1  0.77281425  0.25004339  0.45462102  1  0  -0.14421  0  3.603757  0  0  -0.180388  0  3.876475  0  0  -0.199143  0  3.893636  0  0  0.051118  -0.16763  0  3.865083  0
C  C24  1  0.60286536  0.75001285  0.79439757  1  0  0.386034  0  3.912252  0  0  0.357573  0  4.201638  0  0  0.38489  0  4.20691  0  0  0.122077  0.339741  0  4.196884  0
C  C25  1  0.39713734  0.24998806  0.20560175  1  0  0.386127  0  3.912093  0  0  0.357654  0  4.20149  0  0  0.384971  0  4.206758  0  0  0.122113  0.339818  0  4.196752  0
C  C26  1  0.57258387  0.65442278  0.72098416  1  0  -0.186151  0  3.61038  0  0  -0.215815  0  3.883284  0  0  -0.234292  0  3.902201  0  0  0.040529  -0.204083  0  3.87139  0
C  C27  1  0.70667864  0.84550280  0.72098907  1  0  -0.187372  0  3.610415  0  0  -0.216556  0  3.88281  0  0  -0.235044  0  3.901729  0  0  0.040324  -0.20482  0  3.870925  0
C  C28  1  0.42741284  0.34557922  0.27901866  1  0  -0.186142  0  3.610473  0  0  -0.215843  0  3.883345  0  0  -0.234314  0  3.902244  0  0  0.040523  -0.204111  0  3.871457  0
C  C29  1  0.29332363  0.15449606  0.27900988  1  0  -0.187401  0  3.610501  0  0  -0.216599  0  3.882891  0  0  -0.235091  0  3.901815  0  0  0.040287  -0.204851  0  3.87098  0
C  C30  1  0.63005431  0.65675254  0.59184563  1  0  0.344388  0  3.797353  0  0  0.309654  0  4.085712  0  0  0.334547  0  4.09282  0  0  0.114926  0.293626  0  4.080839  0
C  C31  1  0.77809512  0.84331916  0.59183823  1  0  0.344621  0  3.794889  0  0  0.310076  0  4.082903  0  0  0.334866  0  4.09008  0  0  0.115494  0.294073  0  4.07802  0
C  C32  1  0.36994289  0.34324740  0.40815474  1  0  0.344408  0  3.797373  0  0  0.309656  0  4.085758  0  0  0.334549  0  4.092868  0  0  0.114901  0.293623  0  4.080882  0
C  C33  1  0.22190449  0.15668075  0.40816204  1  0  0.344591  0  3.794978  0  0  0.310035  0  4.083014  0  0  0.334823  0  4.090196  0  0  0.115463  0.294032  0  4.078135  0
C  C34  1  0.73758334  0.75002686  0.52481276  1  0  -0.166023  0  3.627332  0  0  -0.186304  0  3.907538  0  0  -0.201842  0  3.924636  0  0  0.063992  -0.177427  0  3.897794  0
C  C35  1  0.26241566  0.24997204  0.47518714  1  0  -0.165969  0  3.627342  0  0  -0.186223  0  3.907516  0  0  -0.201761  0  3.924618  0  0  0.064023  -0.17735  0  3.897779  0
N  N36  1  0.25043510  0.93130549  0.80234655  1  0  0.488874  0  3.908798  0  0  0.547213  0  4.161866  0  0  0.554365  0  4.19651  0  0  0.009958  0.531929  0  4.154231  0
N  N37  1  0.94707150  0.56863438  0.80247979  1  0  0.489563  0  3.909442  0  0  0.547065  0  4.163579  0  0  0.569933  0  4.174612  0  0  0.010384  0.531756  0  4.155929  0
N  N38  1  0.74956434  0.06869546  0.19765373  1  0  0.488915  0  3.908669  0  0  0.547239  0  4.161742  0  0  0.554389  0  4.196408  0  0  0.010007  0.531966  0  4.1541  0
N  N39  1  0.05292839  0.43136346  0.19752170  1  0  0.489586  0  3.909466  0  0  0.547074  0  4.163609  0  0  0.569943  0  4.174645  0  0  0.01038  0.531766  0  4.155966  0
N  N40  1  0.29383961  0.75000293  0.41180553  1  0  0.515026  0  3.944898  0  0  0.586557  0  4.18221  0  0  0.611355  0  4.187486  0  0  0.046982  0.569491  0  4.179186  0
N  N41  1  0.70615990  0.24999802  0.58819352  1  0  0.515045  0  3.94491  0  0  0.586601  0  4.182187  0  0  0.611403  0  4.18746  0  0  0.047008  0.569543  0  4.179159  0
N  N42  1  0.48149725  0.54867727  0.78591311  1  0  0.51366  0  3.950942  0  0  0.576514  0  4.192532  0  0  0.601316  0  4.197557  0  0  0.037801  0.559368  0  4.190088  0
N  N43  1  0.73268166  0.95137949  0.78588511  1  0  0.513707  0  3.951905  0  0  0.575926  0  4.194441  0  0  0.600736  0  4.19951  0  0  0.037314  0.558767  0  4.19197  0
N  N44  1  0.51850229  0.45132263  0.21408839  1  0  0.513409  0  3.951504  0  0  0.576431  0  4.192837  0  0  0.601233  0  4.197861  0  0  0.037798  0.559284  0  4.190385  0
N  N45  1  0.26731784  0.04862147  0.21411394  1  0  0.513677  0  3.952018  0  0  0.575993  0  4.194399  0  0  0.600801  0  4.199468  0  0  0.037403  0.558834  0  4.191927  0
N  N46  1  0.80180508  0.75008634  0.39623505  1  0  0.517811  0  3.864746  0  0  0.538007  0  4.166879  0  0  0.561528  0  4.176983  0  0  0.015538  0.522789  0  4.159972  0
N  N47  1  0.19819471  0.24991254  0.60376522  1  0  0.517766  0  3.864831  0  0  0.537955  0  4.166975  0  0  0.561476  0  4.177086  0  0  0.01552  0.522741  0  4.160065  0
O  O48  1  0.03442274  0.74995876  0.93127901  1  0  -0.517423  0  2.004526  0  0  -0.495621  0  2.232655  0  0  -0.514617  0  2.227891  0  0  -0.339981  -0.483257  0  2.236655  0
O  O49  1  0.96557782  0.25004011  0.06872163  1  0  -0.51743  0  2.004504  0  0  -0.495628  0  2.232633  0  0  -0.51462  0  2.227865  0  0  -0.339973  -0.483267  0  2.236636  0
O  O50  1  0.18760554  0.95127605  0.91599573  1  0  -0.366186  0  1.808562  0  0  -0.363712  0  2.01901  0  0  -0.367486  0  2.02035  0  0  -0.181382  -0.357013  0  2.02297  0
O  O51  1  0.89625153  0.54872527  0.91613937  1  0  -0.366743  0  1.808954  0  0  -0.36379  0  2.019191  0  0  -0.373007  0  2.013265  0  0  -0.181732  -0.357089  0  2.023163  0
O  O52  1  0.81239510  0.04872282  0.08400369  1  0  -0.366216  0  1.808561  0  0  -0.363743  0  2.019002  0  0  -0.367515  0  2.02035  0  0  -0.181407  -0.357048  0  2.022966  0
O  O53  1  0.10374705  0.45127569  0.08386175  1  0  -0.366752  0  1.808902  0  0  -0.363788  0  2.019152  0  0  -0.373007  0  2.01323  0  0  -0.181719  -0.357084  0  2.023126  0
O  O54  1  0.35994163  0.00285975  0.73630163  1  0  -0.450486  0  1.852957  0  0  -0.439369  0  2.079641  0  0  -0.452348  0  2.081685  0  0  -0.225027  -0.427161  0  2.082872  0
O  O55  1  0.90365720  0.49699259  0.73647054  1  0  -0.450399  0  1.854129  0  0  -0.439339  0  2.081359  0  0  -0.457388  0  2.077016  0  0  -0.225217  -0.427143  0  2.084581  0
O  O56  1  0.64005489  0.99713917  0.26369959  1  0  -0.450475  0  1.852816  0  0  -0.43937  0  2.079523  0  0  -0.452352  0  2.081568  0  0  -0.225027  -0.42716  0  2.082742  0
O  O57  1  0.09634259  0.50300629  0.26352973  1  0  -0.450402  0  1.854216  0  0  -0.439336  0  2.081411  0  0  -0.457395  0  2.077089  0  0  -0.225203  -0.427141  0  2.084637  0
O  O58  1  0.38707198  0.90831149  0.54520475  1  0  -0.455906  0  2.162888  0  0  -0.410047  0  2.394251  0  0  -0.431451  0  2.385918  0  0  -0.310462  -0.395616  0  2.400453  0
O  O59  1  0.06758433  0.59147993  0.54531144  1  0  -0.454576  0  2.163967  0  0  -0.409783  0  2.395348  0  0  -0.431232  0  2.387073  0  0  -0.310482  -0.395354  0  2.401508  0
O  O60  1  0.61292654  0.09168945  0.45479760  1  0  -0.45589  0  2.162831  0  0  -0.410013  0  2.394147  0  0  -0.431421  0  2.385817  0  0  -0.31043  -0.395583  0  2.400345  0
O  O61  1  0.93241698  0.40851998  0.45468714  1  0  -0.454688  0  2.164123  0  0  -0.409875  0  2.395526  0  0  -0.431317  0  2.387246  0  0  -0.310511  -0.395445  0  2.401689  0
O  O62  1  0.43616658  0.75421161  0.35695249  1  0  -0.368591  0  1.798769  0  0  -0.377837  0  2.016993  0  0  -0.389534  0  2.011456  0  0  -0.173349  -0.369465  0  2.020866  0
O  O63  1  0.20617318  0.74582700  0.35712851  1  0  -0.368486  0  1.799923  0  0  -0.377804  0  2.017984  0  0  -0.389501  0  2.012467  0  0  -0.17343  -0.369484  0  2.021939  0
O  O64  1  0.56383303  0.24578830  0.64304779  1  0  -0.368605  0  1.79878  0  0  -0.377881  0  2.017012  0  0  -0.389576  0  2.011477  0  0  -0.173369  -0.36951  0  2.020885  0
O  O65  1  0.79382701  0.25417498  0.64286969  1  0  -0.368468  0  1.799928  0  0  -0.377778  0  2.017979  0  0  -0.38948  0  2.012461  0  0  -0.173414  -0.36946  0  2.021929  0
O  O66  1  0.54455013  0.75014164  0.91053746  1  0  -0.552076  0  1.976108  0  0  -0.527129  0  2.216159  0  0  -0.549305  0  2.212368  0  0  -0.370741  -0.510544  0  2.21702  0
O  O67  1  0.45544920  0.24986035  0.08946159  1  0  -0.552117  0  1.975936  0  0  -0.52717  0  2.215999  0  0  -0.549344  0  2.212203  0  0  -0.370775  -0.510588  0  2.216871  0
O  O68  1  0.51603773  0.48131208  0.86731762  1  0  -0.374733  0  1.789984  0  0  -0.380334  0  2.00399  0  0  -0.391017  0  1.996674  0  0  -0.157418  -0.37361  0  2.009556  0
O  O69  1  0.61662285  0.01866490  0.86729178  1  0  -0.37405  0  1.790962  0  0  -0.379448  0  2.005238  0  0  -0.39014  0  1.997937  0  0  -0.157094  -0.372738  0  2.010835  0
O  O70  1  0.48396301  0.51868575  0.13268302  1  0  -0.37466  0  1.790261  0  0  -0.380325  0  2.004173  0  0  -0.39101  0  1.996856  0  0  -0.157413  -0.373604  0  2.00975  0
O  O71  1  0.38337819  0.98133708  0.13270557  1  0  -0.374032  0  1.790956  0  0  -0.379469  0  2.005179  0  0  -0.390159  0  1.997874  0  0  -0.15712  -0.372756  0  2.010769  0
O  O72  1  0.37166211  0.52934402  0.75910043  1  0  -0.368793  0  1.780175  0  0  -0.365741  0  1.985053  0  0  -0.379168  0  1.982313  0  0  -0.147101  -0.357229  0  1.987778  0
O  O73  1  0.86929049  0.97081019  0.75913243  1  0  -0.368984  0  1.781327  0  0  -0.365527  0  1.986035  0  0  -0.378949  0  1.983245  0  0  -0.14698  -0.357048  0  1.988829  0
O  O74  1  0.62833973  0.47065278  0.24089815  1  0  -0.368662  0  1.780331  0  0  -0.365662  0  1.985133  0  0  -0.379092  0  1.982388  0  0  -0.14709  -0.357149  0  1.987857  0
O  O75  1  0.13070809  0.02919076  0.24086869  1  0  -0.368967  0  1.781349  0  0  -0.365551  0  1.98605  0  0  -0.378977  0  1.983258  0  0  -0.147017  -0.357064  0  1.98882  0
O  O76  1  0.59106831  0.57003598  0.53264028  1  0  -0.446314  0  2.192456  0  0  -0.402999  0  2.426078  0  0  -0.423205  0  2.41726  0  0  -0.312536  -0.388574  0  2.432137  0
O  O77  1  0.87595187  0.93029413  0.53265204  1  0  -0.445629  0  2.189837  0  0  -0.402643  0  2.424685  0  0  -0.422602  0  2.415512  0  0  -0.313232  -0.388239  0  2.43077  0
O  O78  1  0.40893304  0.42996288  0.46736074  1  0  -0.446384  0  2.192396  0  0  -0.403081  0  2.426005  0  0  -0.423305  0  2.417173  0  0  -0.312548  -0.388626  0  2.432103  0
O  O79  1  0.12404600  0.06970684  0.46734749  1  0  -0.445589  0  2.189925  0  0  -0.402699  0  2.424781  0  0  -0.422631  0  2.415562  0  0  -0.313208  -0.388292  0  2.430867  0
O  O80  1  0.76762205  0.66782844  0.33563439  1  0  -0.429106  0  1.824368  0  0  -0.403915  0  2.053646  0  0  -0.417802  0  2.048191  0  0  -0.170718  -0.393358  0  2.056202  0
O  O81  1  0.89653488  0.83238332  0.33568082  1  0  -0.428298  0  1.826  0  0  -0.403848  0  2.056165  0  0  -0.417753  0  2.05061  0  0  -0.171056  -0.393219  0  2.058632  0
O  O82  1  0.23237628  0.33216942  0.66436635  1  0  -0.429149  0  1.824474  0  0  -0.403933  0  2.053704  0  0  -0.417829  0  2.048266  0  0  -0.17071  -0.393359  0  2.056268  0
O  O83  1  0.10346696  0.16761348  0.66431776  1  0  -0.428245  0  1.826027  0  0  -0.403845  0  2.056193  0  0  -0.417757  0  2.050647  0  0  -0.171062  -0.393214  0  2.058658  0
