# generated using pymatgen
data_MnH14C18(NO2)2
_symmetry_space_group_name_H-M   'P 1'
_cell_length_a   8.72140825
_cell_length_b   9.54657634
_cell_length_c   10.28310873
_cell_angle_alpha   75.64691447
_cell_angle_beta   73.24554378
_cell_angle_gamma   89.49098428
_symmetry_Int_Tables_number   1
_chemical_formula_structural   MnH14C18(NO2)2
_chemical_formula_sum   'Mn2 H28 C36 N4 O8'
_cell_volume   792.42351996
_cell_formula_units_Z   2
loop_
 _symmetry_equiv_pos_site_id
 _symmetry_equiv_pos_as_xyz
  1  'x, y, z'
loop_
 _atom_site_type_symbol
 _atom_site_label
 _atom_site_symmetry_multiplicity
 _atom_site_fract_x
 _atom_site_fract_y
 _atom_site_fract_z
 _atom_site_occupancy
 _atom_site_hle17_ddec_charge
 _atom_site_hle17_ddec_spin_density
 _atom_site_hle17_ddec_sum_bond_order
 _atom_site_hle17_magmom
 _atom_site_hse06_10hf_ddec_charge
 _atom_site_hse06_10hf_ddec_spin_density
 _atom_site_hse06_10hf_ddec_sum_bond_order
 _atom_site_hse06_10hf_magmom
 _atom_site_hse06_ddec_charge
 _atom_site_hse06_ddec_spin_density
 _atom_site_hse06_ddec_sum_bond_order
 _atom_site_hse06_magmom
 _atom_site_pbe_cm5_charge
 _atom_site_pbe_ddec_charge
 _atom_site_pbe_ddec_spin_density
 _atom_site_pbe_ddec_sum_bond_order
 _atom_site_pbe_magmom
Mn  Mn0  1  0.45710032  0.86204464  0.86160928  1  1.092751  4.792137  1.839608  4.665  0.919519  4.707829  2.346993  4.515  0.98144  4.761309  2.27474  4.586  0.599502  0.870621  4.649043  2.402344  4.441
Mn  Mn1  1  0.54289188  0.13796086  0.13839328  1  1.092798  -4.792167  1.839461  -4.665  0.919522  -4.707859  2.346889  -4.515  0.981479  -4.761331  2.274579  -4.586  0.599555  0.870615  -4.649087  2.402236  -4.441
H  H2  1  0.30937735  0.46986424  0.69068434  1  0.094536  -8e-05  0.943025  0.0  0.103743  2.5e-05  1.006773  0.0  0.107075  -1.9e-05  1.004818  0.0  0.103123  0.101274  3.9e-05  1.008196  0.0
H  H3  1  0.69062551  0.53013925  0.30931508  1  0.094557  8.6e-05  0.943075  0.0  0.103761  -2.4e-05  1.006827  0.0  0.107073  1.9e-05  1.004894  0.0  0.103145  0.101296  -3.9e-05  1.008235  0.0
H  H4  1  0.24766831  0.37462801  0.50489899  1  0.086707  2.3e-05  0.96922  0.0  0.095054  -3e-06  1.033369  0.0  0.097632  8e-06  1.03396  0.0  0.09537  0.093133  -6e-06  1.033168  0.0
H  H5  1  0.75232496  0.62537535  0.49510380  1  0.086738  -2.3e-05  0.969333  0.0  0.09509  3e-06  1.033454  0.0  0.097666  -8e-06  1.034048  0.0  0.095398  0.093167  6e-06  1.033254  0.0
H  H6  1  0.28421829  0.53878041  0.26654158  1  0.089699  -0.000132  0.987153  0.0  0.096426  -0.000123  1.056547  0.0  0.099084  -0.000126  1.055885  0.0  0.097158  0.094526  -9e-05  1.056859  0.0
H  H7  1  0.71577611  0.46122188  0.73345923  1  0.08972  0.000134  0.987169  0.0  0.096485  0.000123  1.056525  0.0  0.099144  0.000126  1.055858  0.0  0.097183  0.094585  9.1e-05  1.056839  0.0
H  H8  1  0.43476157  0.89188523  0.40350512  1  0.117161  -7e-05  0.973443  0.0  0.121266  -0.000207  1.046839  0.0  0.125647  -0.000144  1.042704  0.0  0.108896  0.117959  -0.000283  1.050126  0.0
H  H9  1  0.56524817  0.10811295  0.59649481  1  0.117172  6.6e-05  0.973432  0.0  0.121292  0.000207  1.046826  0.0  0.125677  0.000144  1.042687  0.0  0.108903  0.117984  0.000283  1.050115  0.0
H  H10  1  0.26807772  0.98596007  0.63589981  1  0.084748  -4.3e-05  0.954876  0.0  0.092265  0.00022  1.019711  0.0  0.094567  0.000129  1.017752  0.0  0.118498  0.090468  0.000307  1.021373  0.0
H  H11  1  0.73192249  0.01403905  0.36410322  1  0.084747  3.4e-05  0.954856  0.0  0.092257  -0.00022  1.01969  0.0  0.09456  -0.000129  1.017733  0.0  0.118493  0.090458  -0.000307  1.021351  0.0
H  H12  1  0.04699406  0.14843861  0.60734313  1  0.096969  0.00025  0.951013  0.0  0.110512  0.000305  1.005413  0.0  0.113114  0.000233  1.00543  0.0  0.106619  0.108684  0.000364  1.005466  0.0
H  H13  1  0.95300861  0.85156163  0.39265612  1  0.096985  -0.000245  0.950992  0.0  0.110528  -0.000305  1.005395  0.0  0.113131  -0.000233  1.005412  0.0  0.106625  0.108699  -0.000364  1.005449  0.0
H  H14  1  0.92620552  0.27845821  0.79403632  1  0.09489  0.000155  0.960985  0.0  0.106425  0.000314  1.021288  0.0  0.108253  0.000278  1.020766  0.0  0.107798  0.105127  0.000321  1.021618  0.0
H  H15  1  0.07379607  0.72154418  0.20596076  1  0.094931  -0.000159  0.960965  0.0  0.106472  -0.000314  1.021253  0.0  0.108303  -0.000277  1.020729  0.0  0.107796  0.105173  -0.00032  1.021585  0.0
H  H16  1  0.03135584  0.23693343  0.00275192  1  0.101704  0.00028  0.96267  0.0  0.112502  0.00029  1.02113  0.0  0.114562  0.000247  1.022776  0.0  0.105821  0.110893  0.000314  1.020393  0.0
H  H17  1  0.96863951  0.76306454  0.99724869  1  0.101687  -0.000281  0.962632  0.0  0.112492  -0.00029  1.021092  0.0  0.114552  -0.000247  1.022739  0.0  0.10582  0.110887  -0.000314  1.020359  0.0
H  H18  1  0.24854291  0.06569093  0.01805057  1  0.085756  0.000999  0.978768  0.0  0.08938  0.001506  1.049825  0.001  0.092209  0.00136  1.047822  0.0  0.116937  0.087418  0.001618  1.051046  0.001
H  H19  1  0.75145119  0.93430594  0.98195352  1  0.085751  -0.001015  0.978852  0.0  0.089388  -0.001506  1.049892  -0.001  0.092211  -0.001359  1.047895  0.0  0.116923  0.087425  -0.001618  1.051111  -0.001
H  H20  1  0.58598791  0.57920924  0.03361202  1  0.085997  2e-06  0.93869  0.0  0.092217  0.00027  1.006076  0.0  0.094819  0.000185  1.00404  0.0  0.120317  0.090324  0.000336  1.007676  0.001
H  H21  1  0.41401092  0.42078661  0.96638725  1  0.086028  1e-06  0.938583  0.0  0.092251  -0.00027  1.005955  0.0  0.094846  -0.000186  1.003936  0.0  0.120335  0.09035  -0.000336  1.007562  -0.001
H  H22  1  0.82770307  0.43824770  0.00768005  1  0.121208  0.000544  0.97258  0.0  0.130266  0.000587  1.032826  0.0  0.134028  0.000554  1.031023  0.0  0.1103  0.127647  0.000602  1.034112  0.0
H  H23  1  0.17229702  0.56174926  0.99232060  1  0.121216  -0.000548  0.972645  0.0  0.130277  -0.000587  1.032886  0.0  0.134039  -0.000554  1.03108  0.0  0.110302  0.127659  -0.000602  1.034173  0.0
H  H24  1  0.07066022  0.53225421  0.79474351  1  0.088692  -7.5e-05  0.976303  0.0  0.097268  3.9e-05  1.044122  0.0  0.099629  -6e-06  1.04257  0.0  0.103746  0.095408  6.4e-05  1.045481  0.0
H  H25  1  0.92933879  0.46774489  0.20525399  1  0.08869  7.4e-05  0.976267  0.0  0.09728  -3.9e-05  1.044072  0.0  0.099644  6e-06  1.042516  0.0  0.103737  0.095416  -6.4e-05  1.045444  0.0
H  H26  1  0.05206506  0.75885954  0.61818044  1  0.096583  0.000184  0.963962  0.0  0.106371  0.000204  1.024426  0.0  0.108577  0.000151  1.025532  0.0  0.102407  0.104647  0.000279  1.024069  0.0
H  H27  1  0.94793028  0.24113842  0.38181531  1  0.096601  -0.000176  0.963965  0.0  0.106393  -0.000205  1.024425  0.0  0.108599  -0.000152  1.02553  0.0  0.102408  0.104668  -0.000279  1.024067  0.0
H  H28  1  0.79343739  0.88559041  0.66006758  1  0.081028  0.000141  0.936465  0.0  0.09016  0.000554  0.998566  0.0  0.092894  0.000371  0.995987  0.0  0.118685  0.088338  0.00074  1.000058  0.001
H  H29  1  0.20655897  0.11440432  0.33993061  1  0.081041  -0.000144  0.936381  0.0  0.09016  -0.000554  0.998497  0.0  0.0929  -0.000372  0.995919  0.0  0.118656  0.088336  -0.00074  0.999992  -0.001
C  C30  1  0.41360846  0.74641472  0.66713513  1  0.614493  0.003947  3.938372  0.002  0.567636  0.007965  4.226836  0.005  0.601342  0.006401  4.222584  0.004  0.195689  0.544708  0.009733  4.227819  0.006
C  C31  1  0.58640147  0.25358671  0.33286400  1  0.614576  -0.003949  3.938622  -0.002  0.567667  -0.007962  4.22716  -0.005  0.601373  -0.0064  4.222912  -0.004  0.195711  0.544737  -0.009732  4.228142  -0.006
C  C32  1  0.37544609  0.68668815  0.55781567  1  -0.068422  -0.001697  3.773167  -0.001  -0.040685  -0.001273  4.003593  -0.001  -0.049283  -0.001441  4.025351  -0.001  -0.018418  -0.035703  -0.000609  3.989804  -0.001
C  C33  1  0.62455897  0.31331212  0.44218201  1  -0.068327  0.001678  3.773055  0.001  -0.040584  0.00127  4.003502  0.001  -0.049181  0.001439  4.025253  0.001  -0.018421  -0.035602  0.000608  3.989711  0.001
C  C34  1  0.32048111  0.54133553  0.58717149  1  -0.053315  0.001632  3.725542  0.001  -0.079487  0.002157  3.973532  0.002  -0.076679  0.001877  3.99163  0.002  -0.076986  -0.080618  -0.000234  3.961006  0.0
C  C35  1  0.67952043  0.45866578  0.41282780  1  -0.053318  -0.001635  3.725506  -0.001  -0.079498  -0.002156  3.973511  -0.002  -0.076674  -0.001874  3.99161  -0.002  -0.076992  -0.080627  0.000239  3.960985  0.0
C  C36  1  0.28690570  0.48829023  0.48295108  1  -0.080672  -0.000417  3.772877  0.0  -0.090044  1.3e-05  4.023573  0.0  -0.095173  -0.000167  4.045083  0.0  -0.095981  -0.086847  0.00034  4.009018  0.0
C  C37  1  0.71309357  0.51171321  0.51705119  1  -0.080816  0.000411  3.773107  0.0  -0.090179  -1.2e-05  4.023816  0.0  -0.095309  0.000162  4.045321  0.0  -0.096049  -0.086982  -0.000341  4.009258  0.0
C  C38  1  0.30760790  0.57954531  0.34937046  1  -0.059283  0.001196  3.719504  0.001  -0.085383  0.001449  3.965686  0.001  -0.081911  0.001342  3.983393  0.001  -0.083214  -0.087119  -0.000591  3.953482  0.0
C  C39  1  0.69239023  0.42045921  0.65063476  1  -0.05925  -0.001188  3.719749  -0.001  -0.08542  -0.001446  3.965929  -0.001  -0.081947  -0.001336  3.98364  -0.001  -0.083271  -0.087143  0.000596  3.953714  0.0
C  C40  1  0.35936913  0.72596398  0.31974681  1  -0.088288  0.000447  3.78265  0.001  -0.061611  -6.7e-05  4.017824  0.0  -0.07198  -4.7e-05  4.040589  0.0  -0.026641  -0.055133  0.000435  4.003612  0.001
C  C41  1  0.64063259  0.27404058  0.68025460  1  -0.088361  -0.00047  3.782693  -0.001  -0.061646  6.3e-05  4.017817  0.0  -0.072016  4.6e-05  4.040584  0.0  -0.026592  -0.055189  -0.000435  4.003634  -0.001
C  C42  1  0.37632020  0.82542584  0.17801085  1  0.661872  -0.004507  3.883068  -0.005  0.604106  -0.006046  4.180632  -0.006  0.642225  -0.003984  4.171446  -0.004  0.219477  0.576704  -0.009334  4.186745  -0.009
C  C43  1  0.62367952  0.17458520  0.82199733  1  0.661999  0.00452  3.882846  0.005  0.604279  0.006059  4.180341  0.006  0.642399  0.00399  4.17115  0.004  0.219618  0.576878  0.009351  4.186462  0.009
C  C44  1  0.39349466  0.77879645  0.42452770  1  -0.080378  -0.000124  3.690745  0.0  -0.116802  -0.000155  3.937075  0.0  -0.11372  0.000129  3.954931  0.0  -0.078464  -0.119476  0.000602  3.926539  0.0
C  C45  1  0.60651186  0.22120818  0.57547057  1  -0.080371  0.000155  3.690783  0.0  -0.116824  0.000162  3.937093  0.0  -0.113745  -0.00013  3.95495  0.0  -0.078431  -0.119492  -0.000599  3.926566  0.0
C  C46  1  0.20930041  0.04060533  0.71650772  1  0.129861  0.002768  3.697147  0.003  0.100293  0.004274  3.946919  0.004  0.107373  0.003697  3.966132  0.004  0.053428  0.095293  0.005064  3.933793  0.005
C  C47  1  0.79069884  0.95939810  0.28348872  1  0.129855  -0.00273  3.697261  -0.003  0.100321  -0.004271  3.947001  -0.004  0.107398  -0.003693  3.966223  -0.004  0.053436  0.09532  -0.005059  3.933869  -0.005
C  C48  1  0.08811314  0.13319620  0.70013528  1  -0.128848  -0.001559  3.751127  -0.001  -0.13734  -0.00096  3.996263  -0.001  -0.145063  -0.001367  4.018271  -0.001  -0.083784  -0.131876  -0.00071  3.981066  -0.001
C  C49  1  0.91188712  0.86680400  0.29986166  1  -0.128851  0.001533  3.751086  0.001  -0.13735  0.000959  3.996213  0.001  -0.145073  0.001363  4.018218  0.001  -0.083786  -0.131886  0.000709  3.981013  0.001
C  C50  1  0.02198540  0.20609886  0.80313837  1  -0.003885  0.002718  3.718821  0.002  -0.022136  0.003873  3.962326  0.003  -0.018494  0.003466  3.98147  0.003  -0.065214  -0.02427  0.004626  3.949228  0.003
C  C51  1  0.97801613  0.79390244  0.19685898  1  -0.004002  -0.002698  3.718908  -0.002  -0.022257  -0.00387  3.962418  -0.003  -0.018618  -0.003462  3.981564  -0.003  -0.065264  -0.024392  -0.004622  3.949326  -0.003
C  C52  1  0.08010261  0.18344162  0.91905606  1  -0.122079  -0.001435  3.737854  -0.001  -0.131476  -0.000827  3.983069  -0.001  -0.1391  -0.001242  4.006194  -0.001  -0.085005  -0.126777  -0.000557  3.96793  0.0
C  C53  1  0.91989646  0.81655857  0.08094506  1  -0.122063  0.001413  3.737568  0.001  -0.131465  0.000826  3.982797  0.001  -0.139089  0.001239  4.00592  0.001  -0.085017  -0.126774  0.000556  3.967669  0.0
C  C54  1  0.20047505  0.08801169  0.92858229  1  0.115541  0.003469  3.693653  0.003  0.087525  0.00558  3.942173  0.004  0.093688  0.004904  3.961834  0.004  0.045841  0.083392  0.00649  3.928757  0.005
C  C55  1  0.79952049  0.91198953  0.07141946  1  0.115645  -0.00343  3.693463  -0.003  0.087625  -0.005578  3.941972  -0.004  0.093791  -0.004899  3.961636  -0.004  0.045953  0.083492  -0.006486  3.928554  -0.005
C  C56  1  0.69119646  0.61468713  0.94227693  1  0.130051  0.002064  3.680111  0.002  0.099866  0.003646  3.933011  0.003  0.106677  0.003092  3.950718  0.003  0.055028  0.095321  0.004535  3.921147  0.004
C  C57  1  0.30880242  0.38530981  0.05772402  1  0.129978  -0.002083  3.680121  -0.002  0.099811  -0.003649  3.933005  -0.003  0.106621  -0.003095  3.95071  -0.003  0.055013  0.095273  -0.004538  3.921144  -0.004
C  C58  1  0.82835411  0.53676969  0.92709238  1  -0.128969  -0.000505  3.723593  0.0  -0.141997  -0.000118  3.975726  0.0  -0.148662  -0.000463  3.995147  0.0  -0.084356  -0.13794  0.000248  3.962669  0.0
C  C59  1  0.17164724  0.46322836  0.07290673  1  -0.128939  0.000521  3.723641  0.0  -0.14198  0.000118  3.975766  0.0  -0.148639  0.000465  3.995178  0.0  -0.084341  -0.137924  -0.000248  3.962712  0.0
C  C60  1  0.96039359  0.58856941  0.80964771  1  -0.014812  0.001875  3.738646  0.002  -0.034118  0.003072  3.986986  0.003  -0.0306  0.002635  4.005462  0.002  -0.068844  -0.036196  0.003379  3.974566  0.003
C  C61  1  0.03960782  0.41142974  0.19035503  1  -0.014828  -0.001872  3.738575  -0.002  -0.034147  -0.003074  3.98692  -0.003  -0.030629  -0.002637  4.005392  -0.002  -0.068849  -0.036227  -0.003381  3.974501  -0.003
C  C62  1  0.95046980  0.71566446  0.71087872  1  -0.133639  -0.000887  3.757222  -0.001  -0.142518  -0.000491  4.003808  0.0  -0.150208  -0.000811  4.026999  0.0  -0.087574  -0.137484  -0.000238  3.988391  0.0
C  C63  1  0.04952902  0.28433139  0.28912055  1  -0.133584  0.000859  3.757325  0.001  -0.142468  0.000492  4.003889  0.0  -0.150158  0.000812  4.027082  0.0  -0.087514  -0.137432  0.000239  3.988469  0.0
C  C64  1  0.80862665  0.78617893  0.73350883  1  0.120264  0.001943  3.71511  0.002  0.091045  0.003758  3.963167  0.003  0.097402  0.003091  3.982392  0.003  0.047441  0.086865  0.004308  3.949312  0.004
C  C65  1  0.19136996  0.21382014  0.26649121  1  0.120231  -0.001918  3.715109  -0.002  0.091017  -0.003759  3.963162  -0.003  0.097363  -0.003096  3.982401  -0.003  0.047449  0.086837  -0.00431  3.949306  -0.004
N  N66  1  0.26416880  0.01685992  0.82946781  1  -0.338198  0.024346  3.231854  0.011  -0.265128  0.028417  3.502265  0.011  -0.286071  0.025659  3.519579  0.009  -0.314319  -0.249962  0.031099  3.490384  0.013
N  N67  1  0.73583148  0.98314029  0.17053399  1  -0.338253  -0.02435  3.232057  -0.011  -0.265201  -0.028416  3.502476  -0.011  -0.28615  -0.02566  3.519797  -0.009  -0.314378  -0.250032  -0.031099  3.490586  -0.013
N  N68  1  0.68092762  0.73696583  0.84725547  1  -0.324917  0.026214  3.244353  0.016  -0.25107  0.029736  3.507078  0.017  -0.270868  0.026642  3.524605  0.014  -0.314521  -0.236661  0.033079  3.494625  0.02
N  N69  1  0.31906887  0.26303107  0.15274511  1  -0.324913  -0.02622  3.244354  -0.016  -0.251058  -0.029738  3.507072  -0.017  -0.270862  -0.026639  3.524608  -0.014  -0.314552  -0.236644  -0.03308  3.494612  -0.02
O  O70  1  0.34485671  0.68637339  0.79722479  1  -0.640591  0.028144  1.959713  0.021  -0.581528  0.034463  2.209444  0.025  -0.611638  0.030396  2.200353  0.021  -0.31628  -0.558441  0.037914  2.215005  0.028
O  O71  1  0.65515297  0.31362371  0.20277735  1  -0.640589  -0.028153  1.959852  -0.021  -0.581471  -0.034465  2.209573  -0.025  -0.611586  -0.030394  2.200486  -0.021  -0.316199  -0.558382  -0.037915  2.215129  -0.028
O  O72  1  0.51011745  0.85875819  0.62835165  1  -0.631965  0.025276  1.96901  0.019  -0.575888  0.031804  2.218828  0.024  -0.605005  0.028103  2.209338  0.02  -0.310888  -0.553579  0.035915  2.223785  0.028
O  O73  1  0.48989032  0.14124753  0.37164508  1  -0.632113  -0.025269  1.969263  -0.019  -0.576009  -0.031808  2.219081  -0.024  -0.605129  -0.028104  2.209592  -0.02  -0.311014  -0.553699  -0.035919  2.224039  -0.028
O  O74  1  0.38605327  0.96168253  0.16415999  1  -0.657981  -0.029605  2.122952  -0.014  -0.590842  -0.034916  2.410339  -0.015  -0.6217  -0.031936  2.393849  -0.012  -0.31294  -0.567301  -0.038056  2.420603  -0.018
O  O75  1  0.61394542  0.03831115  0.83583690  1  -0.658106  0.029616  2.122427  0.014  -0.591008  0.034919  2.409838  0.015  -0.621859  0.031942  2.39332  0.012  -0.313065  -0.567461  0.038062  2.420105  0.018
O  O76  1  0.37531400  0.76793305  0.07828314  1  -0.634298  0.029074  2.049624  0.014  -0.565819  0.031136  2.327323  0.01  -0.596119  0.029398  2.311304  0.009  -0.308674  -0.543377  0.031836  2.338632  0.01
O  O77  1  0.62468463  0.23205955  0.92171595  1  -0.634233  -0.02907  2.050055  -0.014  -0.565774  -0.031129  2.327712  -0.01  -0.596068  -0.029391  2.311683  -0.009  -0.308703  -0.543354  -0.031826  2.339068  -0.01
