# generated using pymatgen
data_CdH14C17N2O5
_symmetry_space_group_name_H-M   'P 1'
_cell_length_a   7.05022920
_cell_length_b   7.00988792
_cell_length_c   16.68008134
_cell_angle_alpha   98.62552727
_cell_angle_beta   91.45688601
_cell_angle_gamma   109.69796535
_symmetry_Int_Tables_number   1
_chemical_formula_structural   CdH14C17N2O5
_chemical_formula_sum   'Cd2 H28 C34 N4 O10'
_cell_volume   764.77422610
_cell_formula_units_Z   2
loop_
 _symmetry_equiv_pos_site_id
 _symmetry_equiv_pos_as_xyz
  1  'x, y, z'
loop_
 _atom_site_type_symbol
 _atom_site_label
 _atom_site_symmetry_multiplicity
 _atom_site_fract_x
 _atom_site_fract_y
 _atom_site_fract_z
 _atom_site_occupancy
 _atom_site_hle17_bader_spin_density
 _atom_site_hle17_ddec_charge
 _atom_site_hle17_ddec_spin_density
 _atom_site_hle17_ddec_sum_bond_order
 _atom_site_hle17_magmom
 _atom_site_hse06_10hf_bader_spin_density
 _atom_site_hse06_10hf_ddec_charge
 _atom_site_hse06_10hf_ddec_spin_density
 _atom_site_hse06_10hf_ddec_sum_bond_order
 _atom_site_hse06_10hf_magmom
 _atom_site_hse06_bader_spin_density
 _atom_site_hse06_ddec_charge
 _atom_site_hse06_ddec_spin_density
 _atom_site_hse06_ddec_sum_bond_order
 _atom_site_hse06_magmom
 _atom_site_pbe_bader_spin_density
 _atom_site_pbe_cm5_charge
 _atom_site_pbe_ddec_charge
 _atom_site_pbe_ddec_spin_density
 _atom_site_pbe_ddec_sum_bond_order
 _atom_site_pbe_magmom
Cd  Cd0  1  0.30724324  0.64919329  0.02936564  1  0  1.244298  0  1.623904  0  0  1.057977  0  2.080011  0  0  1.117261  0  2.021269  0  0  0.796066  1.015332  0  2.120519  0
Cd  Cd1  1  0.69275110  0.35080942  0.97063558  1  0  1.244307  0  1.623876  0  0  1.058008  0  2.079975  0  0  1.117292  0  2.021232  0  0  0.796056  1.015364  0  2.12048  0
H  H2  1  0.11225482  0.06107837  0.61376433  1  0  0.074741  0  0.975508  0  0  0.089444  0  1.032798  0  0  0.091929  0  1.031852  0  0  0.092227  0.087637  0  1.033609  0
H  H3  1  0.88773352  0.93891514  0.38623745  1  0  0.074713  0  0.97548  0  0  0.089417  0  1.032778  0  0  0.091904  0  1.031826  0  0  0.092203  0.087612  0  1.033588  0
H  H4  1  0.22297530  0.50602994  0.57909020  1  0  0.071244  0  0.924426  0  0  0.085871  0  0.992059  0  0  0.086167  0  0.991914  0  0  0.106573  0.085553  0  0.99233  0
H  H5  1  0.77702734  0.49398042  0.42090799  1  0  0.071284  0  0.924523  0  0  0.0859  0  0.992107  0  0  0.086193  0  0.991961  0  0  0.106572  0.08558  0  0.992376  0
H  H6  1  0.16118410  0.25220448  0.52295576  1  0  0.088031  0  0.946467  0  0  0.101925  0  1.008397  0  0  0.103873  0  1.006016  0  0  0.114358  0.100401  0  1.01024  0
H  H7  1  0.83881234  0.74780437  0.47704407  1  0  0.08807  0  0.946533  0  0  0.101942  0  1.008444  0  0  0.103888  0  1.00606  0  0  0.114359  0.100414  0  1.010285  0
H  H8  1  0.95061410  0.08591820  0.74289270  1  0  0.090771  0  0.957462  0  0  0.103055  0  1.018726  0  0  0.105838  0  1.017975  0  0  0.097586  0.10102  0  1.019394  0
H  H9  1  0.04938152  0.91406759  0.25711048  1  0  0.090729  0  0.957345  0  0  0.102955  0  1.01869  0  0  0.105735  0  1.017943  0  0  0.097514  0.100927  0  1.019357  0
H  H10  1  0.12683187  0.70668767  0.39379106  1  0  0.084864  0  0.94771  0  0  0.103799  0  1.003894  0  0  0.103715  0  1.005185  0  0  0.11566  0.103796  0  1.003073  0
H  H11  1  0.87317324  0.29332577  0.60620855  1  0  0.084903  0  0.947764  0  0  0.103852  0  1.003928  0  0  0.103771  0  1.005218  0  0  0.115709  0.103848  0  1.003105  0
H  H12  1  0.19671340  0.77810221  0.49985022  1  0  0.074882  0  0.919281  0  0  0.091564  0  0.981345  0  0  0.09177  0  0.98113  0  0  0.109502  0.091314  0  0.981638  0
H  H13  1  0.80328924  0.22190815  0.50014858  1  0  0.074898  0  0.919176  0  0  0.091572  0  0.981268  0  0  0.091779  0  0.981053  0  0  0.109504  0.091321  0  0.981562  0
H  H14  1  0.97886727  0.50996703  0.15510817  1  0  0.095681  0  0.964178  0  0  0.100045  0  1.031347  0  0  0.10338  0  1.028423  0  0  0.118093  0.097524  0  1.03365  0
H  H15  1  0.02113451  0.49003254  0.84488695  1  0  0.095695  0  0.96419  0  0  0.100011  0  1.031409  0  0  0.103344  0  1.028486  0  0  0.118069  0.097491  0  1.033707  0
H  H16  1  0.57702623  0.91252765  0.73497112  1  0  0.092575  0  0.9707  0  0  0.100065  0  1.039412  0  0  0.103338  0  1.037501  0  0  0.096975  0.097657  0  1.040921  0
H  H17  1  0.42297378  0.08747502  0.26502716  1  0  0.092544  0  0.970747  0  0  0.100056  0  1.039417  0  0  0.103325  0  1.037517  0  0  0.096959  0.09765  0  1.04093  0
H  H18  1  0.43357973  0.97874948  0.61034210  1  0  0.089965  0  0.952481  0  0  0.1025  0  1.010808  0  0  0.106214  0  1.008047  0  0  0.095912  0.099821  0  1.012888  0
H  H19  1  0.56641516  0.02124244  0.38965666  1  0  0.090001  0  0.952477  0  0  0.102515  0  1.010824  0  0  0.10623  0  1.008062  0  0  0.095908  0.099837  0  1.012904  0
H  H20  1  0.94189638  0.42223438  0.29394435  1  0  0.104114  0  0.957064  0  0  0.114047  0  1.019556  0  0  0.116396  0  1.020272  0  0  0.107974  0.112336  0  1.019259  0
H  H21  1  0.05810024  0.57777907  0.70604977  1  0  0.104098  0  0.957012  0  0  0.114035  0  1.019491  0  0  0.116379  0  1.02022  0  0  0.107964  0.112321  0  1.019194  0
H  H22  1  0.57135141  0.47839210  0.30591044  1  0  0.100956  0  0.95804  0  0  0.110623  0  1.02149  0  0  0.113509  0  1.021026  0  0  0.106806  0.108526  0  1.022028  0
H  H23  1  0.42864187  0.52160754  0.69409058  1  0  0.100971  0  0.958025  0  0  0.110635  0  1.021471  0  0  0.113522  0  1.021006  0  0  0.106814  0.108539  0  1.022008  0
H  H24  1  0.58152583  0.56238317  0.16486797  1  0  0.08999  0  0.969706  0  0  0.094244  0  1.037276  0  0  0.096677  0  1.035964  0  0  0.116277  0.092413  0  1.03835  0
H  H25  1  0.41847279  0.43760720  0.83513013  1  0  0.089992  0  0.969723  0  0  0.094265  0  1.03727  0  0  0.0967  0  1.035958  0  0  0.116288  0.092434  0  1.038345  0
H  H26  1  0.89967915  0.98664995  0.87700723  1  0  0.132886  0  0.945206  0  0  0.144948  0  1.005103  0  0  0.148287  0  1.003427  0  0  0.101167  0.142595  0  1.006358  0
H  H27  1  0.10032282  0.01334199  0.12299940  1  0  0.132919  0  0.945205  0  0  0.144962  0  1.005144  0  0  0.148307  0  1.003456  0  0  0.101166  0.142608  0  1.006398  0
H  H28  1  0.08085607  0.91077820  0.92682231  1  0  0.140795  0  0.941178  0  0  0.152367  0  1.001646  0  0  0.155442  0  1.000578  0  0  0.110023  0.15017  0  1.002504  0
H  H29  1  0.91914996  0.08922139  0.07318124  1  0  0.140846  0  0.94115  0  0  0.152396  0  1.001644  0  0  0.15547  0  1.000578  0  0  0.110065  0.150198  0  1.002505  0
C  C30  1  0.18103957  0.03612319  0.66865383  1  0  -0.085519  0  3.829673  0  0  -0.102369  0  4.089341  0  0  -0.103325  0  4.110767  0  0  -0.106543  -0.101612  0  4.07467  0
C  C31  1  0.81895302  0.96387029  0.33134620  1  0  -0.085451  0  3.829644  0  0  -0.102297  0  4.089281  0  0  -0.103253  0  4.110709  0  0  -0.1065  -0.10154  0  4.074611  0
C  C32  1  0.12165151  0.39166295  0.52968329  1  0  -0.017766  0  3.64597  0  0  -0.083303  0  3.913145  0  0  -0.078496  0  3.923182  0  0  -0.059098  -0.086432  0  3.906272  0
C  C33  1  0.87835113  0.60834741  0.47031551  1  0  -0.018061  0  3.6465  0  0  -0.083476  0  3.913517  0  0  -0.078654  0  3.923531  0  0  -0.059128  -0.086588  0  3.906618  0
C  C34  1  0.08888004  0.04856834  0.74135856  1  0  -0.132224  0  3.751093  0  0  -0.150913  0  4.001041  0  0  -0.154488  0  4.022673  0  0  -0.098643  -0.148414  0  3.986416  0
C  C35  1  0.91111822  0.95142512  0.25864333  1  0  -0.132181  0  3.750998  0  0  -0.150787  0  4.000972  0  0  -0.154361  0  4.022602  0  0  -0.098554  -0.148298  0  3.986355  0
C  C36  1  0.09962712  0.65407952  0.45233955  1  0  -0.015188  0  3.646849  0  0  -0.080828  0  3.911226  0  0  -0.076201  0  3.922794  0  0  -0.054589  -0.083819  0  3.903179  0
C  C37  1  0.90037552  0.34593085  0.54765924  1  0  -0.015357  0  3.64676  0  0  -0.080975  0  3.911208  0  0  -0.076349  0  3.922785  0  0  -0.054644  -0.083961  0  3.903162  0
C  C38  1  0.10870845  0.50893161  0.19151686  1  0  0.140176  0  3.679496  0  0  0.10814  0  3.936742  0  0  0.115206  0  3.953287  0  0  0.051788  0.103447  0  3.925639  0
C  C39  1  0.89129491  0.49107258  0.80847976  1  0  0.140148  0  3.679725  0  0  0.108153  0  3.93698  0  0  0.115219  0  3.953526  0  0  0.051786  0.103461  0  3.925878  0
C  C40  1  0.16622673  0.00648705  0.81227751  1  0  0.112755  0  3.727156  0  0  0.12549  0  3.960684  0  0  0.127428  0  3.984292  0  0  -0.00517  0.124111  0  3.944909  0
C  C41  1  0.83377472  0.99350332  0.18772362  1  0  0.112751  0  3.727113  0  0  0.1254  0  3.96076  0  0  0.127338  0  3.984369  0  0  -0.005199  0.12402  0  3.944985  0
C  C42  1  0.43955909  0.95071566  0.73686620  1  0  -0.090181  0  3.772895  0  0  -0.113374  0  4.027005  0  0  -0.1139  0  4.04679  0  0  -0.096146  -0.112846  0  4.013687  0
C  C43  1  0.56043986  0.04928394  0.26313248  1  0  -0.090321  0  3.773031  0  0  -0.113526  0  4.027138  0  0  -0.114053  0  4.046922  0  0  -0.09621  -0.113002  0  4.013824  0
C  C44  1  0.25781043  0.45245141  0.31321330  1  0  0.006831  0  3.755749  0  0  0.022626  0  3.991278  0  0  0.021992  0  4.011226  0  0  0.00656  0.023057  0  3.977911  0
C  C45  1  0.74218552  0.54754359  0.68678386  1  0  0.006648  0  3.755808  0  0  0.022454  0  3.991342  0  0  0.021819  0  4.011289  0  0  0.006544  0.022885  0  3.977976  0
C  C46  1  0.24634078  0.38442372  0.39467437  1  0  0.479492  0  3.841278  0  0  0.430575  0  4.131416  0  0  0.459856  0  4.130403  0  0  0.239933  0.410832  0  4.131396  0
C  C47  1  0.75365639  0.61557897  0.60532329  1  0  0.479606  0  3.84121  0  0  0.430655  0  4.13142  0  0  0.459938  0  4.130406  0  0  0.239978  0.410914  0  4.131397  0
C  C48  1  0.42604681  0.89486214  0.88193860  1  0  0.685657  0  3.885611  0  0  0.628898  0  4.18764  0  0  0.664922  0  4.177938  0  0  0.2146  0.604284  0  4.193426  0
C  C49  1  0.57395797  0.10514208  0.11806463  1  0  0.685954  0  3.885259  0  0  0.628975  0  4.187641  0  0  0.664995  0  4.177939  0  0  0.21462  0.604359  0  4.193429  0
C  C50  1  0.35798599  0.98831743  0.66630272  1  0  -0.092931  0  3.814429  0  0  -0.111294  0  4.07812  0  0  -0.113122  0  4.097965  0  0  -0.106147  -0.110001  0  4.064556  0
C  C51  1  0.64200766  0.01167912  0.33369571  1  0  -0.092962  0  3.814512  0  0  -0.111306  0  4.07819  0  0  -0.113135  0  4.098037  0  0  -0.106152  -0.110012  0  4.064625  0
C  C52  1  0.34316134  0.95523023  0.80916369  1  0  -0.11284  0  3.715288  0  0  -0.093812  0  3.947493  0  0  -0.100062  0  3.96772  0  0  -0.015573  -0.089825  0  3.934036  0
C  C53  1  0.65684238  0.04477090  0.19083634  1  0  -0.112821  0  3.715188  0  0  -0.093694  0  3.947456  0  0  -0.099943  0  3.967683  0  0  -0.015512  -0.089707  0  3.934006  0
C  C54  1  0.08949462  0.46075548  0.26954309  1  0  -0.144925  0  3.731067  0  0  -0.164204  0  3.979017  0  0  -0.170349  0  4.000815  0  0  -0.08138  -0.160281  0  3.964594  0
C  C55  1  0.91050591  0.53924873  0.73045410  1  0  -0.144832  0  3.731046  0  0  -0.164102  0  3.978983  0  0  -0.170248  0  4.000781  0  0  -0.081338  -0.16018  0  3.964559  0
C  C56  1  0.43795443  0.48820542  0.27512338  1  0  -0.125361  0  3.712157  0  0  -0.144125  0  3.956803  0  0  -0.150547  0  3.978154  0  0  -0.076097  -0.140029  0  3.942763  0
C  C57  1  0.56204399  0.51179265  0.72487580  1  0  -0.125325  0  3.712315  0  0  -0.144081  0  3.956957  0  0  -0.150502  0  3.97831  0  0  -0.076117  -0.139985  0  3.942917  0
C  C58  1  0.44506908  0.53492409  0.19694033  1  0  0.145784  0  3.681518  0  0  0.114234  0  3.933513  0  0  0.121339  0  3.952099  0  0  0.05189  0.109452  0  3.921109  0
C  C59  1  0.55493023  0.46507244  0.80305816  1  0  0.145783  0  3.681556  0  0  0.114227  0  3.933548  0  0  0.121325  0  3.95214  0  0  0.05191  0.109444  0  3.921146  0
C  C60  1  0.15036250  0.23312560  0.94181678  1  0  0.735574  0  3.799945  0  0  0.687218  0  4.094834  0  0  0.722132  0  4.087115  0  0  0.215356  0.663389  0  4.099165  0
C  C61  1  0.84964814  0.76687089  0.05818544  1  0  0.735695  0  3.799605  0  0  0.687354  0  4.09446  0  0  0.722269  0  4.086743  0  0  0.215453  0.663526  0  4.09879  0
C  C62  1  0.06221236  0.02112343  0.88957603  1  0  -0.333677  0  3.665304  0  0  -0.3727  0  3.900405  0  0  -0.380123  0  3.906774  0  0  -0.169459  -0.367591  0  3.896168  0
C  C63  1  0.93779157  0.97887001  0.11042712  1  0  -0.333715  0  3.665247  0  0  -0.372745  0  3.90048  0  0  -0.380174  0  3.906858  0  0  -0.16948  -0.367636  0  3.896241  0
N  N64  1  0.15529845  0.47167037  0.45341825  1  0  -0.213217  0  3.389163  0  0  -0.125177  0  3.628165  0  0  -0.146721  0  3.649589  0  0  -0.27812  -0.110486  0  3.613093  0
N  N65  1  0.84470650  0.52833844  0.54657987  1  0  -0.213058  0  3.389191  0  0  -0.125072  0  3.628206  0  0  -0.14662  0  3.649631  0  0  -0.278097  -0.110385  0  3.613126  0
N  N66  1  0.28373972  0.54698381  0.15613412  1  0  -0.324574  0  3.229832  0  0  -0.248905  0  3.498788  0  0  -0.2683  0  3.515658  0  0  -0.32006  -0.235645  0  3.487188  0
N  N67  1  0.71626243  0.45301270  0.84386321  1  0  -0.3246  0  3.229879  0  0  -0.248963  0  3.498855  0  0  -0.268356  0  3.515726  0  0  -0.320078  -0.235705  0  3.487259  0
O  O68  1  0.31449224  0.24711190  0.40566168  1  0  -0.537361  0  1.887566  0  0  -0.500428  0  2.101178  0  0  -0.520985  0  2.095424  0  0  -0.30368  -0.485902  0  2.104555  0
O  O69  1  0.68550051  0.75288619  0.59433624  1  0  -0.537393  0  1.887546  0  0  -0.50046  0  2.101207  0  0  -0.521018  0  2.095452  0  0  -0.303703  -0.485934  0  2.104582  0
O  O70  1  0.59996597  0.00288831  0.91500785  1  0  -0.644459  0  2.022811  0  0  -0.585486  0  2.283417  0  0  -0.613509  0  2.271158  0  0  -0.324106  -0.565568  0  2.291064  0
O  O71  1  0.40003209  0.99711287  0.08499811  1  0  -0.644588  0  2.022656  0  0  -0.585494  0  2.283329  0  0  -0.61353  0  2.271102  0  0  -0.324112  -0.565575  0  2.290979  0
O  O72  1  0.03177320  0.32293921  0.97156219  1  0  -0.67383  0  2.039454  0  0  -0.599276  0  2.299871  0  0  -0.630713  0  2.288302  0  0  -0.324022  -0.577012  0  2.306959  0
O  O73  1  0.96822631  0.67704964  0.02844063  1  0  -0.6739  0  2.039342  0  0  -0.599289  0  2.299695  0  0  -0.63072  0  2.288118  0  0  -0.324087  -0.577025  0  2.306785  0
O  O74  1  0.34096027  0.32078512  0.95502425  1  0  -0.689318  0  2.06004  0  0  -0.61866  0  2.328845  0  0  -0.649553  0  2.315701  0  0  -0.327975  -0.596767  0  2.337018  0
O  O75  1  0.65904365  0.67920833  0.04497890  1  0  -0.68936  0  2.059881  0  0  -0.61873  0  2.328726  0  0  -0.649609  0  2.315548  0  0  -0.327997  -0.596838  0  2.336899  0
O  O76  1  0.31081125  0.72965522  0.90323720  1  0  -0.648612  0  2.035004  0  0  -0.57475  0  2.289057  0  0  -0.606225  0  2.277809  0  0  -0.318518  -0.552389  0  2.296025  0
O  O77  1  0.68918911  0.27034439  0.09676390  1  0  -0.648712  0  2.034879  0  0  -0.57479  0  2.289061  0  0  -0.606263  0  2.277808  0  0  -0.318534  -0.552428  0  2.29603  0
