# generated using pymatgen
data_MnH14(C3O)4
_symmetry_space_group_name_H-M   'P 1'
_cell_length_a   7.01136852
_cell_length_b   7.75309345
_cell_length_c   10.79540919
_cell_angle_alpha   68.91854567
_cell_angle_beta   89.66295082
_cell_angle_gamma   88.98058894
_symmetry_Int_Tables_number   1
_chemical_formula_structural   MnH14(C3O)4
_chemical_formula_sum   'Mn2 H28 C24 O8'
_cell_volume   547.47254294
_cell_formula_units_Z   2
loop_
 _symmetry_equiv_pos_site_id
 _symmetry_equiv_pos_as_xyz
  1  'x, y, z'
loop_
 _atom_site_type_symbol
 _atom_site_label
 _atom_site_symmetry_multiplicity
 _atom_site_fract_x
 _atom_site_fract_y
 _atom_site_fract_z
 _atom_site_occupancy
 _atom_site_hle17_ddec_charge
 _atom_site_hle17_ddec_spin_density
 _atom_site_hle17_ddec_sum_bond_order
 _atom_site_hle17_magmom
 _atom_site_hse06_10hf_ddec_charge
 _atom_site_hse06_10hf_ddec_spin_density
 _atom_site_hse06_10hf_ddec_sum_bond_order
 _atom_site_hse06_10hf_magmom
 _atom_site_hse06_ddec_charge
 _atom_site_hse06_ddec_spin_density
 _atom_site_hse06_ddec_sum_bond_order
 _atom_site_hse06_magmom
 _atom_site_pbe_cm5_charge
 _atom_site_pbe_ddec_charge
 _atom_site_pbe_ddec_spin_density
 _atom_site_pbe_ddec_sum_bond_order
 _atom_site_pbe_magmom
Mn  Mn0  1  0.08447933  0.04236238  0.07104814  1  1.231879  4.785716  1.737747  4.635  1.067348  4.716924  2.266393  4.487  1.138459  4.764493  2.180101  4.561  0.645165  1.010161  4.66883  2.330464  4.416
Mn  Mn1  1  0.58440239  0.11328968  0.92893458  1  1.230903  4.778323  1.739061  4.635  1.066858  4.710934  2.267212  4.487  1.137829  4.758415  2.181137  4.561  0.644986  1.00965  4.662896  2.331342  4.415
H  H2  1  0.43967179  0.45968624  0.11980350  1  0.084437  -0.000439  0.927155  0.0  0.100373  -0.000432  0.987404  0.0  0.101677  -0.000465  0.987157  0.0  0.093835  0.099384  -0.00038  0.987727  0.0
H  H3  1  0.93966877  0.57986117  0.88006651  1  0.085205  -0.000439  0.926531  0.0  0.100676  -0.00043  0.987162  0.0  0.101934  -0.000464  0.986989  0.0  0.093909  0.099703  -0.000379  0.987462  0.0
H  H4  1  0.63421580  0.60835988  0.05602396  1  0.08494  -0.00062  0.93436  0.0  0.099723  -0.000662  0.997852  0.0  0.100905  -0.000688  0.997836  0.0  0.093866  0.098794  -0.00062  0.998019  0.0
H  H5  1  0.13424744  0.66461734  0.94398445  1  0.084991  -0.000615  0.933318  0.0  0.099431  -0.000663  0.997329  0.0  0.100629  -0.00069  0.997311  0.0  0.093862  0.098526  -0.000621  0.997477  0.0
H  H6  1  0.95895258  0.53142273  0.17175208  1  0.079368  -0.000349  0.929065  0.0  0.096103  -0.000439  0.991107  0.0  0.096793  -0.000445  0.991941  0.0  0.092171  0.09554  -0.000418  0.990633  0.0
H  H7  1  0.45865200  0.70376901  0.82859054  1  0.078917  -0.000343  0.929575  0.0  0.095829  -0.000432  0.991475  0.0  0.096551  -0.000441  0.992271  0.0  0.091964  0.095267  -0.000407  0.991012  0.0
H  H8  1  0.98595661  0.32963561  0.31593829  1  0.073094  -0.000243  0.947468  0.0  0.085941  -0.000251  1.017608  0.0  0.087858  -0.000276  1.016064  0.0  0.089234  0.084509  -0.000216  1.018765  0.0
H  H9  1  0.48609116  0.64629904  0.68447100  1  0.072863  -0.000238  0.948273  0.0  0.086283  -0.000249  1.017621  0.0  0.088267  -0.000275  1.016034  0.0  0.089128  0.084803  -0.000214  1.018826  0.0
H  H10  1  0.95995405  0.61487260  0.37165334  1  0.053304  -0.000175  0.944641  0.0  0.067597  -0.000135  1.003815  0.0  0.068214  -0.00019  1.004494  0.0  0.0951  0.067095  -6.1e-05  1.003463  0.0
H  H11  1  0.45990244  0.98729945  0.62866528  1  0.054063  -0.000175  0.946171  0.0  0.068  -0.000142  1.005286  0.0  0.068627  -0.000194  1.005961  0.0  0.095353  0.067537  -6.8e-05  1.004871  0.0
H  H12  1  0.75943402  0.80448555  0.18075593  1  0.070742  0.000877  0.972612  0.0  0.083281  0.001875  1.048724  0.0  0.084443  0.001423  1.047975  0.0  0.093089  0.08249  0.002313  1.049341  0.0
H  H13  1  0.25935395  0.98562435  0.81942887  1  0.071336  0.000882  0.973222  0.0  0.084019  0.001878  1.048716  0.0  0.085164  0.001426  1.048015  0.0  0.093178  0.083233  0.002317  1.049301  0.0
H  H14  1  0.65297233  0.79580816  0.33226995  1  0.074628  -0.000239  0.92843  0.0  0.092804  -0.000279  0.988768  0.0  0.093715  -0.00027  0.989278  0.0  0.091252  0.092049  -0.00028  0.988576  0.0
H  H15  1  0.15283193  0.12878704  0.66786830  1  0.073962  -0.000242  0.928004  0.0  0.092222  -0.000279  0.988244  0.0  0.09314  -0.000271  0.9887  0.0  0.091205  0.091467  -0.00028  0.988053  0.0
H  H16  1  0.37234052  0.58351667  0.42442657  1  0.072883  -0.000138  0.961519  0.0  0.087258  -0.00014  1.031083  0.0  0.088643  -0.000155  1.030467  0.0  0.08984  0.086179  -0.000117  1.031676  0.0
H  H17  1  0.87230582  0.00906245  0.57543778  1  0.072987  -0.000138  0.962145  0.0  0.08731  -0.000142  1.031643  0.0  0.088609  -0.000156  1.031138  0.0  0.090093  0.086272  -0.00012  1.032205  0.0
H  H18  1  0.28444773  0.44498081  0.33909214  1  0.074485  -7.1e-05  0.942482  0.0  0.092238  -5.2e-05  1.00614  0.0  0.092914  -5.9e-05  1.006651  0.0  0.091183  0.091676  -4e-05  1.005887  0.0
H  H19  1  0.78437820  0.78507394  0.66059653  1  0.07506  -7.4e-05  0.942259  0.0  0.092914  -5.6e-05  1.005648  0.0  0.093619  -6.2e-05  1.006133  0.0  0.091608  0.092329  -4.4e-05  1.005425  0.0
H  H20  1  0.48578189  0.25688106  0.53172256  1  0.052034  -8.6e-05  0.936577  0.0  0.06896  -8e-05  0.990603  0.0  0.069395  -0.000118  0.991544  0.0  0.096171  0.068612  -2.7e-05  0.990043  0.0
H  H21  1  0.98575311  0.78995413  0.46806922  1  0.05291  -8.3e-05  0.935531  0.0  0.069225  -7.1e-05  0.989657  0.0  0.069717  -0.000114  0.99047  0.0  0.0962  0.068881  -1.4e-05  0.989093  0.0
H  H22  1  0.48014664  0.17394168  0.32782301  1  0.070719  -3.2e-05  0.937924  0.0  0.088073  0.000124  1.001602  0.0  0.088924  5.7e-05  1.001779  0.0  0.091098  0.087446  0.000194  1.001578  0.0
H  H23  1  0.98032963  0.50262955  0.67181508  1  0.071079  -2.8e-05  0.93794  0.0  0.088332  0.000134  1.001454  0.0  0.089145  6.5e-05  1.001646  0.0  0.091163  0.087721  0.000206  1.001424  0.0
H  H24  1  0.70610379  0.11835682  0.40668672  1  0.076556  -0.000121  0.95157  0.0  0.093739  -9.7e-05  1.014659  0.0  0.094928  -0.000111  1.014802  0.0  0.092062  0.092825  -8e-05  1.0147  0.0
H  H25  1  0.20634055  0.52633233  0.59318688  1  0.076938  -0.000124  0.951699  0.0  0.094156  -0.000104  1.014608  0.0  0.095404  -0.000115  1.014665  0.0  0.092214  0.093202  -8.8e-05  1.014679  0.0
H  H26  1  0.69457079  0.50760299  0.53997003  1  0.066468  -3.3e-05  0.936071  0.0  0.084907  -2.2e-05  0.998914  0.0  0.086006  -3.6e-05  0.998625  0.0  0.088032  0.084057  -3e-06  0.999219  0.0
H  H27  1  0.19452022  0.04892482  0.46016817  1  0.066009  -3.9e-05  0.938005  0.0  0.084386  -2.9e-05  1.000474  0.0  0.085453  -4.1e-05  1.000221  0.0  0.087902  0.083549  -1e-05  1.000794  0.0
H  H28  1  0.83303507  0.31759835  0.53432784  1  0.065961  -0.000114  0.948629  0.0  0.081319  -0.000127  1.016818  0.0  0.082542  -0.00014  1.016631  0.0  0.086162  0.080402  -0.000107  1.017006  0.0
H  H29  1  0.33290467  0.85325881  0.46572690  1  0.066644  -0.000112  0.947402  0.0  0.081556  -0.000128  1.01575  0.0  0.08279  -0.000141  1.015536  0.0  0.086272  0.080635  -0.000108  1.015955  0.0
C  C30  1  0.50992428  0.63012620  0.23533822  1  0.001673  -0.000453  3.583949  0.0  0.030328  0.00037  3.811182  0.0  0.024338  -0.000336  3.828696  0.0  -0.014538  0.034467  0.00112  3.799321  0.001
C  C31  1  0.00982788  0.86602194  0.76461957  1  -0.000395  -0.000464  3.585734  0.0  0.028331  0.000369  3.812061  0.0  0.022359  -0.000339  3.82953  0.0  -0.015039  0.032465  0.001112  3.800223  0.001
C  C32  1  0.56741571  0.51729077  0.14810027  1  -0.176922  0.000505  3.615672  0.001  -0.224916  0.000972  3.856587  0.002  -0.225537  0.000476  3.870333  0.001  -0.159029  -0.224429  0.001536  3.847239  0.002
C  C33  1  0.06742410  0.66575113  0.85185787  1  -0.175516  0.000484  3.614451  0.001  -0.224014  0.000954  3.854476  0.002  -0.224687  0.000464  3.86834  0.001  -0.158454  -0.223552  0.001514  3.84517  0.002
C  C34  1  0.70670051  0.36017407  0.22462573  1  0.003693  0.002127  3.57131  0.002  0.03014  0.002265  3.799284  0.002  0.024294  0.001349  3.816505  0.001  -0.013923  0.034246  0.003292  3.787635  0.003
C  C35  1  0.20673690  0.58541848  0.77534093  1  0.00039  0.002145  3.574257  0.002  0.031038  0.002285  3.795745  0.002  0.025201  0.00136  3.812944  0.001  -0.014847  0.035132  0.00332  3.784125  0.003
C  C36  1  0.88621178  0.44260293  0.26233126  1  -0.172336  6e-05  3.62747  0.0  -0.220055  0.000407  3.877736  0.001  -0.220938  0.000136  3.891098  0.0  -0.161474  -0.21924  0.000723  3.868424  0.001
C  C37  1  0.38619367  0.70566057  0.73787015  1  -0.169481  5.9e-05  3.627743  0.0  -0.218753  0.000418  3.876593  0.001  -0.219671  0.000143  3.88989  0.0  -0.160438  -0.217951  0.000739  3.867376  0.001
C  C38  1  0.83020838  0.55492663  0.34866285  1  0.03462  0.000488  3.625382  0.0  0.034118  0.0008  3.865608  0.001  0.033477  0.000556  3.88333  0.0  -0.091629  0.034683  0.001073  3.853359  0.001
C  C39  1  0.33013075  0.90442510  0.65150724  1  0.031958  0.000485  3.627633  0.0  0.031541  0.000825  3.866995  0.001  0.030834  0.000573  3.884734  0.0  -0.092464  0.032128  0.001103  3.854743  0.001
C  C40  1  0.69197815  0.71213441  0.27199862  1  -0.168942  0.001354  3.608207  0.001  -0.217669  0.003099  3.856222  0.003  -0.219138  0.002348  3.870774  0.002  -0.157709  -0.216494  0.003864  3.846019  0.004
C  C41  1  0.19185333  0.98471029  0.72813232  1  -0.169203  0.001383  3.610298  0.001  -0.217438  0.003133  3.856398  0.003  -0.218947  0.002377  3.871077  0.002  -0.158092  -0.216266  0.003902  3.846223  0.004
C  C42  1  0.41524610  0.50255054  0.36346138  1  -0.175071  0.000338  3.640882  0.001  -0.227375  0.000646  3.894698  0.001  -0.228016  0.00043  3.907928  0.001  -0.164108  -0.226743  0.000883  3.88558  0.001
C  C43  1  0.91518806  0.86697650  0.63638766  1  -0.17538  0.000334  3.641971  0.001  -0.228415  0.000641  3.895656  0.001  -0.229014  0.000428  3.908818  0.001  -0.164961  -0.227836  0.000874  3.886586  0.001
C  C44  1  0.55480196  0.34661779  0.44015706  1  0.038911  0.000264  3.61461  0.0  0.03837  0.000485  3.85655  0.0  0.037809  0.000321  3.874028  0.0  -0.090472  0.038839  0.000672  3.844534  0.001
C  C45  1  0.05475209  0.78798383  0.55969566  1  0.037083  0.000283  3.617463  0.0  0.037538  0.00052  3.857176  0.001  0.037062  0.00035  3.874366  0.0  -0.090904  0.037998  0.000713  3.8452  0.001
C  C46  1  0.60862644  0.23354375  0.35364887  1  -0.170031  0.000642  3.609183  0.001  -0.219776  0.001269  3.860199  0.001  -0.221203  0.000881  3.874443  0.001  -0.1587  -0.218708  0.001709  3.850449  0.002
C  C47  1  0.10871020  0.58823023  0.64619285  1  -0.170727  0.000643  3.61126  0.001  -0.221233  0.001272  3.860005  0.001  -0.222748  0.000881  3.874326  0.001  -0.15849  -0.220067  0.001713  3.850138  0.002
C  C48  1  0.73422045  0.42894424  0.47629653  1  -0.163684  -7.5e-05  3.644314  0.0  -0.211043  3.7e-05  3.9005  0.0  -0.212475  -1.1e-05  3.914419  0.0  -0.164019  -0.209862  9e-05  3.890793  0.0
C  C49  1  0.23415130  0.90643719  0.52376212  1  -0.162961  -6.1e-05  3.645442  0.0  -0.20959  5.4e-05  3.899164  0.0  -0.210987  0.0  3.913008  0.0  -0.163887  -0.208457  0.000111  3.889513  0.0
C  C50  1  0.37956628  0.79015564  0.15816370  1  0.678104  0.018264  3.765226  0.017  0.624931  0.027921  4.056018  0.024  0.661427  0.022079  4.050485  0.019  0.239919  0.598915  0.033991  4.058678  0.028
C  C51  1  0.87933755  0.94858110  0.84177706  1  0.679689  0.01827  3.764661  0.017  0.626779  0.027954  4.054797  0.024  0.663298  0.022121  4.049169  0.019  0.240658  0.600747  0.03402  4.057509  0.028
C  C52  1  0.76228627  0.24037795  0.14479236  1  0.692769  0.016621  3.774089  0.016  0.641517  0.025745  4.064574  0.023  0.678502  0.020091  4.058418  0.018  0.244476  0.615102  0.031709  4.067704  0.027
C  C53  1  0.26248584  0.38564121  0.85514022  1  0.693701  0.016637  3.77205  0.016  0.641046  0.025761  4.0633  0.023  0.678024  0.020092  4.05712  0.018  0.244457  0.61464  0.031749  4.066439  0.027
O  O54  1  0.42665984  0.89524944  0.04004527  1  -0.710325  0.052011  2.108094  0.029  -0.63921  0.07064  2.418683  0.042  -0.67513  0.062084  2.396745  0.035  -0.317959  -0.61139  0.078815  2.432716  0.049
O  O55  1  0.92666265  0.93571981  0.95980199  1  -0.710289  0.051945  2.10853  0.029  -0.63952  0.070572  2.419312  0.042  -0.675549  0.062049  2.397556  0.035  -0.317879  -0.61169  0.078703  2.433333  0.049
O  O56  1  0.22517699  0.82109608  0.21014716  1  -0.61626  0.039578  1.997142  0.026  -0.540234  0.045239  2.253833  0.027  -0.573821  0.038267  2.239627  0.02  -0.293487  -0.51511  0.052297  2.262942  0.033
O  O57  1  0.72456545  0.03107224  0.78991290  1  -0.61628  0.039579  1.997072  0.026  -0.540407  0.045273  2.25389  0.027  -0.573979  0.038289  2.239652  0.02  -0.293475  -0.515256  0.052337  2.263005  0.033
O  O58  1  0.90227433  0.12753688  0.18688398  1  -0.652295  0.044543  2.039895  0.032  -0.581259  0.053955  2.314209  0.037  -0.615968  0.046065  2.297301  0.03  -0.310237  -0.554993  0.061678  2.325113  0.044
O  O59  1  0.40256866  0.31508923  0.81310696  1  -0.650925  0.044545  2.039136  0.032  -0.58056  0.054031  2.314678  0.037  -0.615225  0.046129  2.297764  0.03  -0.309858  -0.554285  0.061763  2.325554  0.044
O  O60  1  0.66330764  0.25561089  0.04234875  1  -0.674915  0.043432  2.084493  0.027  -0.607154  0.052745  2.378835  0.03  -0.642525  0.045121  2.359084  0.023  -0.315337  -0.580153  0.060309  2.391705  0.037
O  O61  1  0.16363777  0.29811939  0.95758863  1  -0.676019  0.043538  2.082673  0.027  -0.607919  0.052912  2.37761  0.03  -0.643362  0.045256  2.357869  0.023  -0.3154  -0.580874  0.06051  2.390457  0.037
