# generated using pymatgen
data_ZnH5C10N3O4
_symmetry_space_group_name_H-M   'P 1'
_cell_length_a   10.91904609
_cell_length_b   12.21954791
_cell_length_c   14.79613621
_cell_angle_alpha   90.00013066
_cell_angle_beta   109.49521289
_cell_angle_gamma   89.99986867
_symmetry_Int_Tables_number   1
_chemical_formula_structural   ZnH5C10N3O4
_chemical_formula_sum   'Zn4 H20 C40 N12 O16'
_cell_volume   1861.00507565
_cell_formula_units_Z   4
loop_
 _symmetry_equiv_pos_site_id
 _symmetry_equiv_pos_as_xyz
  1  'x, y, z'
loop_
 _atom_site_type_symbol
 _atom_site_label
 _atom_site_symmetry_multiplicity
 _atom_site_fract_x
 _atom_site_fract_y
 _atom_site_fract_z
 _atom_site_occupancy
 _atom_site_pbe_bader_charge
 _atom_site_pbe_bader_spin_density
 _atom_site_pbe_cm5_charge
 _atom_site_pbe_ddec_charge
 _atom_site_pbe_ddec_spin_density
 _atom_site_pbe_ddec_sum_bond_order
 _atom_site_pbe_magmom
Zn  Zn0  1  0.89459857  0.41972066  0.47019565  1  1.311695  0  0.677536  0.846503  0  2.378649  0
Zn  Zn1  1  0.10540088  0.91971808  0.02980344  1  1.31159  0  0.677527  0.846543  0  2.378814  0
Zn  Zn2  1  0.10540109  0.58028150  0.52980475  1  1.310638  0  0.677527  0.846528  0  2.378796  0
Zn  Zn3  1  0.89459878  0.08027671  0.97019696  1  1.310623  0  0.677546  0.84649  0  2.378715  0
H  H4  1  0.98078984  0.73693646  0.75424461  1  0.106471  0  0.119286  0.134251  0  0.977742  0
H  H5  1  0.01921166  0.23693449  0.74575916  1  0.106491  0  0.119297  0.134217  0  0.977737  0
H  H6  1  0.01920786  0.26306161  0.24575801  1  0.106475  0  0.119302  0.134254  0  0.977688  0
H  H7  1  0.98078797  0.76306358  0.25424665  1  0.106505  0  0.11929  0.134223  0  0.977732  0
H  H8  1  0.41447464  0.56111282  0.60447718  1  0.151303  0  0.153639  0.127797  0  0.965872  0
H  H9  1  0.58552820  0.06111255  0.89552051  1  0.151295  0  0.153654  0.127821  0  0.965904  0
H  H10  1  0.58552601  0.43888770  0.39552009  1  0.151299  0  0.153669  0.12785  0  0.965886  0
H  H11  1  0.41447148  0.93888715  0.10447652  1  0.151283  0  0.153652  0.127809  0  0.965947  0
H  H12  1  0.62129628  0.61197613  0.55985723  1  0.078677  0  0.107536  0.117699  0  1.01127  0
H  H13  1  0.37870844  0.11196741  0.94013493  1  0.078697  0  0.107538  0.117637  0  1.011504  0
H  H14  1  0.37870636  0.38803503  0.44013174  1  0.078748  0  0.107514  0.117611  0  1.011402  0
H  H15  1  0.62129320  0.88802248  0.05985785  1  0.078701  0  0.107515  0.117663  0  1.011342  0
H  H16  1  0.61875268  0.85465480  0.77256037  1  0.087326  0  0.108259  0.117445  0  1.010114  0
H  H17  1  0.38124374  0.35466185  0.72744236  1  0.087647  0  0.108264  0.117428  0  1.010286  0
H  H18  1  0.38124212  0.14534081  0.22743950  1  0.087318  0  0.108245  0.117401  0  1.010266  0
H  H19  1  0.61875199  0.64535013  0.27256586  1  0.08738  0  0.108259  0.117441  0  1.010194  0
H  H20  1  0.42093651  0.90600040  0.62856768  1  0.147494  0  0.151495  0.123405  0  0.959107  0
H  H21  1  0.57906565  0.40600090  0.87143454  1  0.147483  0  0.151495  0.123402  0  0.959101  0
H  H22  1  0.57906023  0.09400012  0.37143402  1  0.147375  0  0.151498  0.123434  0  0.959071  0
H  H23  1  0.42094081  0.59399963  0.12856688  1  0.147379  0  0.151475  0.123367  0  0.959099  0
C  C24  1  0.87505744  0.73554369  0.72886893  1  0.014962  0  -0.060149  -0.089674  0  3.871597  0
C  C25  1  0.12494506  0.23554075  0.77113238  1  0.014757  0  -0.060158  -0.089692  0  3.871531  0
C  C26  1  0.12494223  0.26445602  0.27113080  1  0.014726  0  -0.060202  -0.089718  0  3.871499  0
C  C27  1  0.87505458  0.76445650  0.22887208  1  0.014981  0  -0.060075  -0.089448  0  3.871455  0
C  C28  1  0.87636631  0.87562433  0.85507127  1  1.61184  0  0.216019  0.592076  0  4.17889  0
C  C29  1  0.12362618  0.37563086  0.64493052  1  1.611392  0  0.215821  0.591774  0  4.179169  0
C  C30  1  0.12362654  0.12437047  0.14492947  1  1.611202  0  0.215859  0.591783  0  4.179103  0
C  C31  1  0.87636859  0.62437703  0.35507475  1  1.611907  0  0.216057  0.592121  0  4.178969  0
C  C32  1  0.87860904  0.60003604  0.60045444  1  1.608482  0  0.216001  0.592896  0  4.178418  0
C  C33  1  0.12139178  0.10002691  0.89954349  1  1.609049  0  0.215929  0.592716  0  4.178332  0
C  C34  1  0.12138675  0.39997185  0.39954297  1  1.608742  0  0.216014  0.592759  0  4.178283  0
C  C35  1  0.87860595  0.89996379  0.10045373  1  1.608464  0  0.216006  0.592982  0  4.17813  0
C  C36  1  0.38434953  0.64584512  0.60223927  1  1.002618  0  0.169458  0.095747  0  3.865208  0
C  C37  1  0.61565411  0.14584234  0.89776012  1  1.002624  0  0.16947  0.095742  0  3.865134  0
C  C38  1  0.61565013  0.35415704  0.39775978  1  1.002587  0  0.169438  0.095625  0  3.865256  0
C  C39  1  0.38434557  0.85415737  0.10223623  1  1.002547  0  0.169486  0.095735  0  3.865155  0
C  C40  1  0.67196948  0.66515407  0.61978260  1  0.008173  0  -0.083803  -0.183864  0  3.960616  0
C  C41  1  0.32803512  0.16514611  0.88021302  1  0.008533  0  -0.083846  -0.183871  0  3.96083  0
C  C42  1  0.32803120  0.33485464  0.38020927  1  0.008634  0  -0.083801  -0.183698  0  3.960597  0
C  C43  1  0.67196747  0.83484787  0.11978474  1  0.008666  0  -0.083788  -0.183734  0  3.960573  0
C  C44  1  0.60474533  0.73279909  0.66291378  1  0.269152  0  0.085049  0.151276  0  4.071227  0
C  C45  1  0.39525621  0.23279578  0.83708459  1  0.268802  0  0.085073  0.151235  0  4.071254  0
C  C46  1  0.39525436  0.26720471  0.33708055  1  0.268707  0  0.085087  0.151119  0  4.071202  0
C  C47  1  0.60474344  0.76720311  0.16291784  1  0.268752  0  0.085084  0.151187  0  4.071118  0
C  C48  1  0.67077323  0.80184096  0.73840894  1  -0.079618  0  -0.083277  -0.183869  0  3.959607  0
C  C49  1  0.32922525  0.30184576  0.76159150  1  -0.079977  0  -0.083275  -0.183859  0  3.959735  0
C  C50  1  0.32922255  0.19815547  0.26158780  1  -0.079576  0  -0.083239  -0.183725  0  3.959597  0
C  C51  1  0.67077244  0.69816131  0.23841450  1  -0.079819  0  -0.083294  -0.183831  0  3.959555  0
C  C52  1  0.80659219  0.80225087  0.77219101  1  0.079984  0  -0.005449  0.00564  0  3.952304  0
C  C53  1  0.19340530  0.30225258  0.72781323  1  0.08003  0  -0.005414  0.005729  0  3.952288  0
C  C54  1  0.19340357  0.19774638  0.22781247  1  0.07998  0  -0.005448  0.005624  0  3.95234  0
C  C55  1  0.80659045  0.69775122  0.27219228  1  0.079905  0  -0.005563  0.005473  0  3.952316  0
C  C56  1  0.80778041  0.66777518  0.65220286  1  0.024599  0  -0.005808  0.003238  0  3.953685  0
C  C57  1  0.19222321  0.16776495  0.84779454  1  0.024292  0  -0.005862  0.00338  0  3.953291  0
C  C58  1  0.19221928  0.33223434  0.34779147  1  0.024239  0  -0.005852  0.003277  0  3.953373  0
C  C59  1  0.80778035  0.83222575  0.15220413  1  0.024611  0  -0.005832  0.003102  0  3.953571  0
C  C60  1  0.38518336  0.82277557  0.61527583  1  0.970179  0  0.155164  0.067591  0  3.938346  0
C  C61  1  0.61481799  0.32277603  0.88472603  1  0.97022  0  0.155152  0.067561  0  3.938423  0
C  C62  1  0.61481338  0.17722249  0.38472587  1  0.970053  0  0.155137  0.067553  0  3.938314  0
C  C63  1  0.38518459  0.67722367  0.11527375  1  0.970332  0  0.155183  0.067669  0  3.938358  0
N  N64  1  0.26301864  0.68094307  0.57513627  1  -0.751114  0  -0.224197  -0.140856  0  3.48294  0
N  N65  1  0.73698396  0.18094584  0.92486496  1  -0.751143  0  -0.224255  -0.140912  0  3.483129  0
N  N66  1  0.73698004  0.31905173  0.42486592  1  -0.751039  0  -0.22423  -0.140832  0  3.483185  0
N  N67  1  0.26301573  0.81905387  0.07513072  1  -0.751055  0  -0.224238  -0.140833  0  3.482938  0
N  N68  1  0.46592018  0.73322473  0.62864859  1  -1.303682  0  -0.214454  -0.01445  0  3.797084  0
N  N69  1  0.53408038  0.23322614  0.87135088  1  -1.303622  0  -0.214492  -0.014475  0  3.797162  0
N  N70  1  0.53407755  0.26677497  0.37134930  1  -1.303434  0  -0.214516  -0.014445  0  3.797238  0
N  N71  1  0.46591928  0.76677520  0.12864952  1  -1.303621  0  -0.214517  -0.014514  0  3.797172  0
N  N72  1  0.26245458  0.79300614  0.58296584  1  -0.663341  0  -0.217932  -0.177754  0  3.126756  0
N  N73  1  0.73754683  0.29300644  0.91703666  1  -0.66342  0  -0.217881  -0.177672  0  3.126917  0
N  N74  1  0.73754312  0.20699193  0.41703813  1  -0.66341  0  -0.217858  -0.177705  0  3.126972  0
N  N75  1  0.26245577  0.70699163  0.08295974  1  -0.663447  0  -0.217916  -0.17778  0  3.126799  0
O  O76  1  0.81729801  0.51861158  0.55315603  1  -1.181783  0  -0.321663  -0.559796  0  2.324605  0
O  O77  1  0.18270978  0.01859592  0.94684213  1  -1.182054  0  -0.321675  -0.559758  0  2.3241  0
O  O78  1  0.18270652  0.48140122  0.44684423  1  -1.181852  0  -0.321689  -0.559774  0  2.324198  0
O  O79  1  0.81729573  0.98138660  0.05315567  1  -1.18181  0  -0.321647  -0.559774  0  2.324561  0
O  O80  1  0.81466377  0.96004488  0.86597366  1  -1.172654  0  -0.322061  -0.562488  0  2.321304  0
O  O81  1  0.18534120  0.46005289  0.63403072  1  -1.172213  0  -0.321995  -0.562402  0  2.321107  0
O  O82  1  0.18533785  0.03995237  0.13402385  1  -1.17213  0  -0.321983  -0.562335  0  2.321211  0
O  O83  1  0.81466331  0.53995663  0.36597359  1  -1.172715  0  -0.322055  -0.562491  0  2.321347  0
O  O84  1  0.99217923  0.63187917  0.60728067  1  -1.157555  0  -0.310671  -0.53314  0  2.308762  0
O  O85  1  0.00783416  0.13186863  0.89271910  1  -1.157438  0  -0.310561  -0.533026  0  2.309122  0
O  O86  1  0.00782920  0.36813036  0.39271651  1  -1.157284  0  -0.310625  -0.53305  0  2.309064  0
O  O87  1  0.99217621  0.86811553  0.10727856  1  -1.157504  0  -0.310714  -0.533279  0  2.30859  0
O  O88  1  0.98968760  0.84612155  0.90669887  1  -1.162556  0  -0.309955  -0.529669  0  2.305571  0
O  O89  1  0.01032048  0.34613309  0.59331079  1  -1.162637  0  -0.309808  -0.529456  0  2.305979  0
O  O90  1  0.01031492  0.15386588  0.09331238  1  -1.162509  0  -0.309859  -0.529521  0  2.305824  0
O  O91  1  0.98968498  0.65387889  0.40669714  1  -1.162596  0  -0.309925  -0.529655  0  2.305646  0
