# generated using pymatgen
data_FeNiH24(C19N3)2
_symmetry_space_group_name_H-M   'P 1'
_cell_length_a   6.97152958
_cell_length_b   13.55887385
_cell_length_c   16.42352984
_cell_angle_alpha   106.85752150
_cell_angle_beta   96.60790473
_cell_angle_gamma   89.98888510
_symmetry_Int_Tables_number   1
_chemical_formula_structural   FeNiH24(C19N3)2
_chemical_formula_sum   'Fe2 Ni2 H48 C76 N12'
_cell_volume   1474.97247972
_cell_formula_units_Z   2
loop_
 _symmetry_equiv_pos_site_id
 _symmetry_equiv_pos_as_xyz
  1  'x, y, z'
loop_
 _atom_site_type_symbol
 _atom_site_label
 _atom_site_symmetry_multiplicity
 _atom_site_fract_x
 _atom_site_fract_y
 _atom_site_fract_z
 _atom_site_occupancy
 _atom_site_hle17_bader_spin_density
 _atom_site_hle17_ddec_charge
 _atom_site_hle17_ddec_spin_density
 _atom_site_hle17_ddec_sum_bond_order
 _atom_site_hle17_magmom
 _atom_site_hse06_10hf_bader_spin_density
 _atom_site_hse06_10hf_ddec_charge
 _atom_site_hse06_10hf_ddec_spin_density
 _atom_site_hse06_10hf_ddec_sum_bond_order
 _atom_site_hse06_10hf_magmom
 _atom_site_hse06_bader_spin_density
 _atom_site_hse06_ddec_charge
 _atom_site_hse06_ddec_spin_density
 _atom_site_hse06_ddec_sum_bond_order
 _atom_site_hse06_magmom
 _atom_site_pbe_bader_spin_density
 _atom_site_pbe_cm5_charge
 _atom_site_pbe_ddec_charge
 _atom_site_pbe_ddec_spin_density
 _atom_site_pbe_ddec_sum_bond_order
 _atom_site_pbe_magmom
Fe  Fe0  1  0.00000020  0.00000308  0.00000197  1  0  0.586521  0  3.475083  0  0  0.573118  0  3.948434  0  0  0.596132  0  3.908326  0  0  0.904862  0.566373  0  3.965674  0
Fe  Fe1  1  0.99999857  0.50000112  0.99999996  1  0  0.589174  0  3.467066  0  0  0.575397  0  3.940608  0  0  0.598607  0  3.900826  0  0  0.896901  0.567995  0  3.958065  0
Ni  Ni2  1  0.50666593  0.76245686  0.03064545  1  0  0.145316  0  3.349303  0  0  0.145069  0  3.831601  0  0  0.160986  0  3.767971  0  0  0.401073  0.141043  0  3.873691  0
Ni  Ni3  1  0.49333717  0.23754963  0.96935690  1  0  0.145368  0  3.349514  0  0  0.145125  0  3.831797  0  0  0.161031  0  3.768168  0  0  0.401097  0.141117  0  3.873873  0
H  H4  1  0.94305782  0.02591115  0.82876361  1  0  0.084444  0  0.971148  0  0  0.09071  0  1.03871  0  0  0.091484  0  1.038264  0  0  0.120732  0.090196  0  1.03906  0
H  H5  1  0.05693780  0.97409148  0.17123684  1  0  0.084487  0  0.971142  0  0  0.090751  0  1.038705  0  0  0.091524  0  1.038262  0  0  0.120751  0.090234  0  1.03906  0
H  H6  1  0.92627126  0.91652563  0.67870721  1  0  0.109143  0  0.951698  0  0  0.120362  0  1.01078  0  0  0.12194  0  1.012016  0  0  0.109389  0.119318  0  1.009971  0
H  H7  1  0.07372267  0.08347315  0.32129405  1  0  0.109146  0  0.951771  0  0  0.120358  0  1.010864  0  0  0.121939  0  1.012101  0  0  0.109368  0.119308  0  1.010054  0
H  H8  1  0.99596218  0.65241156  0.77591004  1  0  0.103711  0  0.9708  0  0  0.113011  0  1.032199  0  0  0.114298  0  1.034394  0  0  0.104287  0.11214  0  1.030793  0
H  H9  1  0.00403768  0.34758953  0.22409268  1  0  0.103748  0  0.970754  0  0  0.113068  0  1.032132  0  0  0.114355  0  1.034328  0  0  0.104336  0.112198  0  1.030726  0
H  H10  1  0.00473810  0.77305731  0.92224927  1  0  0.09435  0  0.939113  0  0  0.103385  0  0.997362  0  0  0.103782  0  0.998124  0  0  0.127154  0.103127  0  0.996879  0
H  H11  1  0.99526619  0.22694532  0.07775403  1  0  0.094343  0  0.939125  0  0  0.103373  0  0.997371  0  0  0.103767  0  0.998138  0  0  0.127137  0.103114  0  0.996889  0
H  H12  1  0.71367022  0.49117722  0.11599633  1  0  0.091814  0  0.943468  0  0  0.101427  0  1.002289  0  0  0.102378  0  1.001658  0  0  0.126831  0.100745  0  1.002851  0
H  H13  1  0.28632934  0.50881924  0.88400525  1  0  0.091796  0  0.943522  0  0  0.101416  0  1.002339  0  0  0.10237  0  1.001702  0  0  0.126841  0.100736  0  1.002901  0
H  H14  1  0.70868128  0.52404821  0.27259963  1  0  0.107504  0  0.970321  0  0  0.117629  0  1.031518  0  0  0.119667  0  1.031904  0  0  0.108442  0.116248  0  1.031321  0
H  H15  1  0.29131424  0.47595288  0.72740105  1  0  0.107451  0  0.970467  0  0  0.117578  0  1.031657  0  0  0.119616  0  1.032043  0  0  0.108408  0.116193  0  1.031458  0
H  H16  1  0.31892857  0.60101422  0.30661556  1  0  0.107037  0  0.951038  0  0  0.119522  0  1.008187  0  0  0.121863  0  1.007992  0  0  0.110825  0.117903  0  1.008459  0
H  H17  1  0.68106969  0.39898456  0.69338470  1  0  0.107063  0  0.951069  0  0  0.119548  0  1.008212  0  0  0.121888  0  1.008018  0  0  0.110835  0.117928  0  1.008486  0
H  H18  1  0.30100402  0.56084551  0.14812125  1  0  0.087776  0  0.940302  0  0  0.097673  0  0.999801  0  0  0.098856  0  0.998493  0  0  0.1252  0.096828  0  1.000825  0
H  H19  1  0.69899987  0.43915095  0.85188054  1  0  0.087726  0  0.940359  0  0  0.097621  0  0.999862  0  0  0.098802  0  0.998554  0  0  0.125201  0.096776  0  1.000882  0
H  H20  1  0.02611124  0.91237664  0.51838357  1  0  0.090913  0  0.960963  0  0  0.102355  0  1.024449  0  0  0.104878  0  1.023997  0  0  0.098586  0.100513  0  1.024889  0
H  H21  1  0.97389727  0.08762446  0.48161469  1  0  0.090901  0  0.961025  0  0  0.10235  0  1.024497  0  0  0.104875  0  1.024042  0  0  0.09856  0.10051  0  1.024936  0
H  H22  1  0.70719345  0.86082114  0.54910514  1  0  0.081575  0  0.981283  0  0  0.090708  0  1.047364  0  0  0.093244  0  1.047134  0  0  0.09428  0.088907  0  1.047562  0
H  H23  1  0.29281615  0.13917457  0.45089309  1  0  0.081587  0  0.98136  0  0  0.090766  0  1.047387  0  0  0.093302  0  1.047159  0  0  0.094288  0.088965  0  1.047587  0
H  H24  1  0.45926415  0.76800411  0.42954817  1  0  0.076623  0  0.97171  0  0  0.087399  0  1.035553  0  0  0.090278  0  1.033972  0  0  0.093734  0.085329  0  1.036725  0
H  H25  1  0.54074261  0.23199236  0.57044950  1  0  0.076633  0  0.971728  0  0  0.087383  0  1.035592  0  0  0.090261  0  1.034012  0  0  0.093733  0.085312  0  1.036761  0
H  H26  1  0.52828919  0.72845064  0.27890731  1  0  0.083842  0  0.959009  0  0  0.096197  0  1.02156  0  0  0.098575  0  1.020808  0  0  0.096933  0.094468  0  1.022186  0
H  H27  1  0.47171493  0.27154969  0.72108995  1  0  0.083806  0  0.959107  0  0  0.096184  0  1.021628  0  0  0.098563  0  1.020875  0  0  0.096927  0.094455  0  1.022252  0
H  H28  1  0.74967430  0.73497052  0.17425283  1  0  0.079638  0  0.988774  0  0  0.085093  0  1.066072  0  0  0.088802  0  1.061877  0  0  0.092419  0.082079  0  1.069623  0
H  H29  1  0.25032266  0.26503058  0.82574548  1  0  0.079624  0  0.988666  0  0  0.085034  0  1.066013  0  0  0.088742  0  1.06182  0  0  0.092387  0.082034  0  1.06955  0
H  H30  1  0.06635178  0.78491750  0.14173245  1  0  0.099894  0  0.95263  0  0  0.110414  0  1.01218  0  0  0.112251  0  1.013065  0  0  0.103111  0.109057  0  1.011676  0
H  H31  1  0.93364646  0.21508130  0.85826171  1  0  0.09983  0  0.952719  0  0  0.110394  0  1.012232  0  0  0.112232  0  1.013114  0  0  0.103115  0.109037  0  1.011728  0
H  H32  1  0.31590186  0.87919137  0.26067812  1  0  0.08404  0  0.975889  0  0  0.095508  0  1.039081  0  0  0.097684  0  1.038692  0  0  0.096929  0.09387  0  1.039547  0
H  H33  1  0.68410206  0.12080588  0.73931655  1  0  0.084068  0  0.975923  0  0  0.09554  0  1.039097  0  0  0.097716  0  1.038708  0  0  0.096914  0.0939  0  1.039566  0
H  H34  1  0.24988828  0.92063372  0.41159514  1  0  0.089889  0  0.956205  0  0  0.102258  0  1.016671  0  0  0.104842  0  1.016243  0  0  0.097368  0.100413  0  1.016995  0
H  H35  1  0.75011564  0.07936354  0.58839953  1  0  0.089858  0  0.956268  0  0  0.102234  0  1.016719  0  0  0.104808  0  1.016305  0  0  0.097379  0.100387  0  1.017045  0
H  H36  1  0.36371809  0.82788350  0.55380398  1  0  0.082655  0  0.968445  0  0  0.096668  0  1.028145  0  0  0.099062  0  1.027118  0  0  0.096017  0.094968  0  1.028916  0
H  H37  1  0.63627861  0.17211375  0.44619217  1  0  0.082676  0  0.968486  0  0  0.096697  0  1.028162  0  0  0.09909  0  1.027136  0  0  0.09604  0.095002  0  1.028926  0
H  H38  1  0.33972370  0.01312900  0.63107630  1  0  0.081609  0  0.987528  0  0  0.092414  0  1.050059  0  0  0.093758  0  1.051734  0  0  0.092709  0.091442  0  1.048922  0
H  H39  1  0.66028471  0.98687056  0.36892159  1  0  0.081621  0  0.987517  0  0  0.092423  0  1.050053  0  0  0.093768  0  1.051729  0  0  0.092738  0.091453  0  1.048908  0
H  H40  1  0.38777934  0.07286648  0.79102059  1  0  0.075187  0  0.985106  0  0  0.081431  0  1.060399  0  0  0.084093  0  1.058267  0  0  0.091529  0.079271  0  1.062359  0
H  H41  1  0.61222773  0.92713463  0.20897699  1  0  0.075113  0  0.98526  0  0  0.081376  0  1.060537  0  0  0.08404  0  1.058404  0  0  0.091502  0.079223  0  1.062489  0
H  H42  1  0.46397222  0.94842010  0.87329578  1  0  0.107508  0  0.941469  0  0  0.119647  0  0.998292  0  0  0.121599  0  0.999113  0  0  0.105643  0.118236  0  0.997778  0
H  H43  1  0.53603361  0.05158408  0.12670493  1  0  0.107534  0  0.94139  0  0  0.119663  0  0.998221  0  0  0.121616  0  0.999041  0  0  0.10566  0.118258  0  0.997701  0
H  H44  1  0.52426758  0.76963195  0.87623852  1  0  0.082802  0  0.992582  0  0  0.08686  0  1.071836  0  0  0.091384  0  1.065858  0  0  0.091105  0.08315  0  1.07677  0
H  H45  1  0.47574527  0.23036914  0.12376300  1  0  0.082779  0  0.992593  0  0  0.086843  0  1.071842  0  0  0.091355  0  1.065875  0  0  0.09108  0.083137  0  1.076772  0
H  H46  1  0.56234711  0.58680715  0.80002948  1  0  0.072286  0  0.981623  0  0  0.083687  0  1.045903  0  0  0.085817  0  1.045539  0  0  0.091213  0.082104  0  1.046287  0
H  H47  1  0.43765707  0.41319395  0.19996980  1  0  0.072187  0  0.981642  0  0  0.083641  0  1.045882  0  0  0.085773  0  1.045516  0  0  0.091222  0.082062  0  1.046258  0
H  H48  1  0.52054901  0.52587794  0.63886117  1  0  0.075757  0  0.958519  0  0  0.088881  0  1.016856  0  0  0.091596  0  1.015605  0  0  0.093165  0.086958  0  1.017744  0
H  H49  1  0.47944218  0.47412315  0.36113930  1  0  0.075767  0  0.958477  0  0  0.088887  0  1.016819  0  0  0.091602  0  1.015568  0  0  0.093168  0.08697  0  1.017702  0
H  H50  1  0.43963777  0.64943977  0.55652045  1  0  0.086937  0  0.946815  0  0  0.100857  0  1.002593  0  0  0.103649  0  1.00149  0  0  0.098095  0.098824  0  1.003471  0
H  H51  1  0.56035039  0.35055900  0.44348114  1  0  0.087049  0  0.946735  0  0  0.100939  0  1.002536  0  0  0.103758  0  1.001404  0  0  0.098128  0.098912  0  1.003402  0
C  C52  1  0.95236354  0.94279196  0.81420061  1  0  0.126066  0  3.670225  0  0  0.093807  0  3.927324  0  0  0.102654  0  3.943751  0  0  0.052926  0.08781  0  3.916508  0
C  C53  1  0.04763497  0.05721067  0.18580180  1  0  0.12607  0  3.669982  0  0  0.093826  0  3.927101  0  0  0.102673  0  3.943526  0  0  0.052971  0.087832  0  3.916285  0
C  C54  1  0.94300082  0.88092755  0.73038812  1  0  -0.136904  0  3.668301  0  0  -0.155584  0  3.913693  0  0  -0.162546  0  3.933786  0  0  -0.069243  -0.15119  0  3.900408  0
C  C55  1  0.05699775  0.11907584  0.26961813  1  0  -0.136927  0  3.668454  0  0  -0.155628  0  3.913818  0  0  -0.162595  0  3.933905  0  0  -0.069279  -0.151239  0  3.900556  0
C  C56  1  0.96113998  0.77353169  0.71364514  1  0  0.14934  0  3.879112  0  0  0.15875  0  4.108849  0  0  0.165728  0  4.126541  0  0  0.017965  0.154264  0  4.096951  0
C  C57  1  0.03885689  0.22646785  0.28635828  1  0  0.149313  0  3.879256  0  0  0.158809  0  4.108866  0  0  0.165798  0  4.126538  0  0  0.017986  0.154322  0  4.096965  0
C  C58  1  0.98256973  0.73460373  0.78470909  1  0  -0.13812  0  3.683075  0  0  -0.154676  0  3.925367  0  0  -0.161993  0  3.945582  0  0  -0.072104  -0.15007  0  3.911981  0
C  C59  1  0.01743457  0.26539889  0.21529604  1  0  -0.13816  0  3.682954  0  0  -0.154757  0  3.925219  0  0  -0.162077  0  3.94543  0  0  -0.072152  -0.150158  0  3.911838  0
C  C60  1  0.98871082  0.80166909  0.86659402  1  0  0.124938  0  3.652332  0  0  0.094685  0  3.904572  0  0  0.102834  0  3.921881  0  0  0.05301  0.089222  0  3.893001  0
C  C61  1  0.01129496  0.19833432  0.13340832  1  0  0.125022  0  3.652268  0  0  0.094791  0  3.904522  0  0  0.102941  0  3.921834  0  0  0.053066  0.089337  0  3.892957  0
C  C62  1  0.96370294  0.71011751  0.62900409  1  0  -0.039857  0  3.73847  0  0  -0.041464  0  3.987038  0  0  -0.042015  0  4.01366  0  0  0.000406  -0.041425  0  3.969301  0
C  C63  1  0.03628278  0.28988821  0.37099723  1  0  -0.039897  0  3.738413  0  0  -0.041543  0  3.986972  0  0  -0.042104  0  4.013595  0  0  0.000405  -0.04151  0  3.969237  0
C  C64  1  0.97625486  0.66324804  0.55384859  1  0  -0.034748  0  4.023774  0  0  -0.035163  0  4.276104  0  0  -0.037975  0  4.302904  0  0  -0.027319  -0.033294  0  4.258206  0
C  C65  1  0.02372961  0.33676077  0.44615281  1  0  -0.034739  0  4.023567  0  0  -0.035152  0  4.275908  0  0  -0.03796  0  4.302709  0  0  -0.027357  -0.033275  0  4.258007  0
C  C66  1  0.69778958  0.85660791  0.03162072  1  0  0.047227  0  3.429225  0  0  0.027864  0  3.766857  0  0  0.032831  0  3.768512  0  0  0.025852  0.022389  0  3.766794  0
C  C67  1  0.30221357  0.14339935  0.96838182  1  0  0.047116  0  3.429352  0  0  0.027717  0  3.767037  0  0  0.03271  0  3.768653  0  0  0.025835  0.022238  0  3.766973  0
C  C68  1  0.68735441  0.33160563  0.97458507  1  0  0.035086  0  3.44246  0  0  0.00936  0  3.790102  0  0  0.018536  0  3.784909  0  0  0.017305  0.000805  0  3.794935  0
C  C69  1  0.31264730  0.66840162  0.02541983  1  0  0.035058  0  3.44245  0  0  0.009326  0  3.790088  0  0  0.018504  0  3.784891  0  0  0.017288  0.000775  0  3.794919  0
C  C70  1  0.68515866  0.66019104  0.01429153  1  0  0.040772  0  3.434748  0  0  0.021936  0  3.770886  0  0  0.028579  0  3.771203  0  0  0.019811  0.015634  0  3.771176  0
C  C71  1  0.31484150  0.33981468  0.98571171  1  0  0.040802  0  3.434664  0  0  0.021965  0  3.770813  0  0  0.028606  0  3.771134  0  0  0.0198  0.015656  0  3.771107  0
C  C72  1  0.32517334  0.86192416  0.03615987  1  0  0.043632  0  3.427757  0  0  0.020659  0  3.771145  0  0  0.026895  0  3.769778  0  0  0.02338  0.014507  0  3.77291  0
C  C73  1  0.67481639  0.13807695  0.96383506  1  0  0.043526  0  3.427568  0  0  0.020523  0  3.77101  0  0  0.026763  0  3.769641  0  0  0.02331  0.014364  0  3.772779  0
C  C74  1  0.84501067  0.51448114  0.16034134  1  0  0.120367  0  3.66788  0  0  0.089758  0  3.921558  0  0  0.098904  0  3.937036  0  0  0.051326  0.0836  0  3.911302  0
C  C75  1  0.15499059  0.48551917  0.83966429  1  0  0.120395  0  3.667819  0  0  0.089757  0  3.921508  0  0  0.098903  0  3.936988  0  0  0.051304  0.083596  0  3.911253  0
C  C76  1  0.84288974  0.53320430  0.24754579  1  0  -0.154356  0  3.701701  0  0  -0.172021  0  3.94655  0  0  -0.178932  0  3.963988  0  0  -0.074273  -0.167689  0  3.935007  0
C  C77  1  0.15710284  0.46679603  0.75245335  1  0  -0.154153  0  3.701826  0  0  -0.171828  0  3.946673  0  0  -0.178735  0  3.964115  0  0  -0.07418  -0.167509  0  3.935088  0
C  C78  1  0.01395767  0.56558980  0.30417778  1  0  0.160235  0  3.890853  0  0  0.169999  0  4.119787  0  0  0.179935  0  4.135475  0  0  0.017617  0.163447  0  4.10917  0
C  C79  1  0.98604070  0.43441051  0.69582528  1  0  0.159967  0  3.891061  0  0  0.169756  0  4.119978  0  0  0.179679  0  4.135685  0  0  0.017596  0.163289  0  4.109236  0
C  C80  1  0.18224140  0.57517365  0.26669379  1  0  -0.152998  0  3.689347  0  0  -0.17156  0  3.936897  0  0  -0.179046  0  3.955159  0  0  -0.073445  -0.166798  0  3.924703  0
C  C81  1  0.81775551  0.42482668  0.73330373  1  0  -0.153003  0  3.689411  0  0  -0.171582  0  3.936971  0  0  -0.179063  0  3.955233  0  0  -0.07345  -0.166842  0  3.924749  0
C  C82  1  0.17325558  0.55338443  0.17851083  1  0  0.11961  0  3.679065  0  0  0.086764  0  3.939357  0  0  0.096262  0  3.954713  0  0  0.051455  0.080401  0  3.929107  0
C  C83  1  0.82674120  0.44661357  0.82149221  1  0  0.119702  0  3.678836  0  0  0.086851  0  3.939115  0  0  0.096349  0  3.954467  0  0  0.051441  0.080487  0  3.928868  0
C  C84  1  0.01051453  0.59148543  0.39337962  1  0  -0.085505  0  3.766642  0  0  -0.086691  0  4.013506  0  0  -0.092102  0  4.040185  0  0  -0.017346  -0.083193  0  3.99553  0
C  C85  1  0.98949536  0.40851491  0.60661548  1  0  -0.085348  0  3.766951  0  0  -0.086536  0  4.01378  0  0  -0.091939  0  4.040455  0  0  -0.017297  -0.083059  0  3.995771  0
C  C86  1  0.99377877  0.62103028  0.47027477  1  0  -0.00487  0  4.024176  0  0  -0.003174  0  4.270767  0  0  0.000337  0  4.295592  0  0  -0.020201  -0.005633  0  4.254141  0
C  C87  1  0.00621617  0.37898392  0.52973026  1  0  -0.004862  0  4.024625  0  0  -0.003178  0  4.271217  0  0  0.000325  0  4.296039  0  0  -0.020208  -0.005643  0  4.254595  0
C  C88  1  0.96109231  0.85017895  0.38042384  1  0  0.04852  0  3.798886  0  0  0.06642  0  4.020248  0  0  0.066049  0  4.044713  0  0  -0.010676  0.066569  0  4.003685  0
C  C89  1  0.03890898  0.14982214  0.61957590  1  0  0.048497  0  3.798902  0  0  0.066352  0  4.020359  0  0  0.065982  0  4.04482  0  0  -0.010693  0.0665  0  4.003798  0
C  C90  1  0.91692625  0.87244212  0.46604126  1  0  -0.12159  0  3.754476  0  0  -0.141085  0  4.003178  0  0  -0.143129  0  4.023364  0  0  -0.092154  -0.139476  0  3.989343  0
C  C91  1  0.08307494  0.12755743  0.53395749  1  0  -0.121536  0  3.754365  0  0  -0.141023  0  4.00309  0  0  -0.143072  0  4.023286  0  0  -0.092132  -0.139414  0  3.989259  0
C  C92  1  0.73972321  0.84366490  0.48319295  1  0  -0.075764  0  3.798889  0  0  -0.088777  0  4.047596  0  0  -0.090587  0  4.068709  0  0  -0.097167  -0.087466  0  4.03301  0
C  C93  1  0.26028804  0.15633389  0.51680489  1  0  -0.075924  0  3.798903  0  0  -0.088969  0  4.047606  0  0  -0.090783  0  4.068722  0  0  -0.097199  -0.08766  0  4.033029  0
C  C94  1  0.59900538  0.79059262  0.41545149  1  0  -0.082221  0  3.808666  0  0  -0.096469  0  4.060515  0  0  -0.098114  0  4.081784  0  0  -0.098857  -0.095131  0  4.045815  0
C  C95  1  0.40100294  0.20940539  0.58454784  1  0  -0.082096  0  3.808647  0  0  -0.096318  0  4.060492  0  0  -0.097961  0  4.081761  0  0  -0.098794  -0.094978  0  4.045794  0
C  C96  1  0.63710613  0.76799307  0.33163073  1  0  -0.125081  0  3.771686  0  0  -0.143328  0  4.019252  0  0  -0.146339  0  4.041795  0  0  -0.095079  -0.14119  0  4.003887  0
C  C97  1  0.36289652  0.23200648  0.66836931  1  0  -0.125123  0  3.771775  0  0  -0.143363  0  4.019329  0  0  -0.146373  0  4.041867  0  0  -0.095102  -0.141224  0  4.003959  0
C  C98  1  0.81735384  0.79712419  0.31179307  1  0  0.047034  0  3.803871  0  0  0.067793  0  4.018389  0  0  0.066991  0  4.044437  0  0  -0.010847  0.068256  0  4.0007  0
C  C99  1  0.18265020  0.20287459  0.68820624  1  0  0.04708  0  3.803937  0  0  0.067797  0  4.018543  0  0  0.066996  0  4.044589  0  0  -0.010854  0.068264  0  4.000853  0
C  C100  1  0.85953899  0.77508683  0.22612904  1  0  -0.113864  0  3.755576  0  0  -0.1333  0  4.004868  0  0  -0.136639  0  4.027144  0  0  -0.09153  -0.130823  0  3.989912  0
C  C101  1  0.14045921  0.22491119  0.77386676  1  0  -0.113876  0  3.755616  0  0  -0.133254  0  4.004949  0  0  -0.136594  0  4.027227  0  0  -0.091494  -0.130793  0  3.989991  0
C  C102  1  0.03600461  0.80319194  0.20803575  1  0  -0.06626  0  3.758871  0  0  -0.08035  0  4.009661  0  0  -0.081798  0  4.031691  0  0  -0.092945  -0.079365  0  3.994589  0
C  C103  1  0.96399224  0.19680762  0.79195914  1  0  -0.066135  0  3.759036  0  0  -0.08027  0  4.009817  0  0  -0.081719  0  4.031852  0  0  -0.092916  -0.079283  0  3.994745  0
C  C104  1  0.17764093  0.85589779  0.27555531  1  0  -0.075656  0  3.788599  0  0  -0.088808  0  4.038369  0  0  -0.090349  0  4.059445  0  0  -0.095429  -0.087609  0  4.023956  0
C  C105  1  0.82235737  0.14410178  0.72444026  1  0  -0.075769  0  3.788672  0  0  -0.088931  0  4.038486  0  0  -0.09047  0  4.059557  0  0  -0.095459  -0.087738  0  4.024074  0
C  C106  1  0.14090353  0.87920334  0.35974625  1  0  -0.126467  0  3.753124  0  0  -0.144793  0  3.999168  0  0  -0.147397  0  4.020197  0  0  -0.094813  -0.142894  0  3.984813  0
C  C107  1  0.85909765  0.12079622  0.64024885  1  0  -0.126377  0  3.753226  0  0  -0.144677  0  3.999248  0  0  -0.147272  0  4.020282  0  0  -0.09479  -0.142773  0  3.984891  0
C  C108  1  0.43737979  0.78169046  0.66878100  1  0  0.048187  0  3.799996  0  0  0.06746  0  4.019086  0  0  0.067172  0  4.043908  0  0  -0.011244  0.067655  0  4.002289  0
C  C109  1  0.56261114  0.21830678  0.33121731  1  0  0.048088  0  3.800066  0  0  0.067455  0  4.019079  0  0  0.067166  0  4.043908  0  0  -0.011273  0.067653  0  4.002283  0
C  C110  1  0.39032398  0.85483107  0.62356995  1  0  -0.12895  0  3.771664  0  0  -0.146203  0  4.016543  0  0  -0.149283  0  4.037632  0  0  -0.096297  -0.143986  0  4.002088  0
C  C111  1  0.60967129  0.14516617  0.37642917  1  0  -0.128927  0  3.771807  0  0  -0.146199  0  4.016662  0  0  -0.149278  0  4.037752  0  0  -0.096301  -0.143988  0  4.002189  0
C  C112  1  0.37508011  0.95769524  0.66667287  1  0  -0.081686  0  3.795942  0  0  -0.094068  0  4.04315  0  0  -0.095161  0  4.065291  0  0  -0.100278  -0.093126  0  4.027838  0
C  C113  1  0.62491401  0.04230663  0.33332610  1  0  -0.081631  0  3.796034  0  0  -0.094015  0  4.043255  0  0  -0.095111  0  4.0654  0  0  -0.100316  -0.093065  0  4.027913  0
C  C114  1  0.40322292  0.99171205  0.75734989  1  0  -0.076887  0  3.793741  0  0  -0.090148  0  4.046679  0  0  -0.093161  0  4.068935  0  0  -0.097089  -0.088009  0  4.031618  0
C  C115  1  0.59677554  0.00828982  0.24264807  1  0  -0.077013  0  3.794188  0  0  -0.090293  0  4.047106  0  0  -0.093307  0  4.069361  0  0  -0.097128  -0.088157  0  4.032025  0
C  C116  1  0.44464279  0.92248375  0.80344322  1  0  -0.095374  0  3.706574  0  0  -0.116687  0  3.953191  0  0  -0.11784  0  3.974247  0  0  -0.085255  -0.115856  0  3.939004  0
C  C117  1  0.55535413  0.07751656  0.19655916  1  0  -0.095311  0  3.706921  0  0  -0.116584  0  3.953545  0  0  -0.117735  0  3.974599  0  0  -0.085221  -0.115749  0  3.939343  0
C  C118  1  0.46281752  0.81636777  0.76078378  1  0  0.052243  0  3.777893  0  0  0.071362  0  3.996619  0  0  0.071017  0  4.020995  0  0  -0.007452  0.071545  0  3.980225  0
C  C119  1  0.53718496  0.18362947  0.23921448  1  0  0.052398  0  3.778009  0  0  0.071413  0  3.996834  0  0  0.071069  0  4.021206  0  0  -0.007382  0.071607  0  3.98044  0
C  C120  1  0.50546341  0.74322448  0.80630065  1  0  -0.10437  0  3.746345  0  0  -0.124137  0  3.996073  0  0  -0.126364  0  4.01676  0  0  -0.090895  -0.122521  0  3.982489  0
C  C121  1  0.49454377  0.25677815  0.19370157  1  0  -0.104497  0  3.746399  0  0  -0.124249  0  3.996178  0  0  -0.12647  0  4.016872  0  0  -0.090917  -0.122633  0  3.982578  0
C  C122  1  0.52562060  0.64098204  0.76337373  1  0  -0.092517  0  3.830215  0  0  -0.106181  0  4.08287  0  0  -0.109032  0  4.106807  0  0  -0.104895  -0.104125  0  4.066504  0
C  C123  1  0.47438354  0.35901828  0.23662718  1  0  -0.092214  0  3.830257  0  0  -0.10592  0  4.082891  0  0  -0.10877  0  4.106826  0  0  -0.104817  -0.103861  0  4.066501  0
C  C124  1  0.50314018  0.60689706  0.67268449  1  0  -0.085096  0  3.818844  0  0  -0.099028  0  4.071564  0  0  -0.101204  0  4.093968  0  0  -0.102351  -0.097303  0  4.055929  0
C  C125  1  0.49685086  0.39310172  0.32731541  1  0  -0.085129  0  3.818816  0  0  -0.099057  0  4.071541  0  0  -0.101234  0  4.093957  0  0  -0.102364  -0.097315  0  4.055881  0
C  C126  1  0.45896323  0.67575860  0.62646208  1  0  -0.112681  0  3.767964  0  0  -0.131055  0  4.012558  0  0  -0.13347  0  4.03419  0  0  -0.091145  -0.129201  0  3.997632  0
C  C127  1  0.54102782  0.32424017  0.37353965  1  0  -0.112888  0  3.767901  0  0  -0.13126  0  4.012493  0  0  -0.133698  0  4.034121  0  0  -0.091173  -0.129397  0  3.997546  0
N  N128  1  0.97649870  0.90498249  0.88209891  1  0  -0.205962  0  3.329938  0  0  -0.15554  0  3.596877  0  0  -0.175792  0  3.615827  0  0  -0.321231  -0.14264  0  3.582953  0
N  N129  1  0.02350419  0.09502092  0.11790269  1  0  -0.206066  0  3.330037  0  0  -0.155706  0  3.597061  0  0  -0.17596  0  3.616009  0  0  -0.321335  -0.142801  0  3.583143  0
N  N130  1  0.81639084  0.91445661  0.02555243  1  0  -0.32134  0  3.304984  0  0  -0.29343  0  3.616839  0  0  -0.307613  0  3.631825  0  0  -0.380985  -0.284604  0  3.60523  0
N  N131  1  0.18360957  0.08555295  0.97445297  1  0  -0.321247  0  3.304864  0  0  -0.293316  0  3.6167  0  0  -0.307505  0  3.631689  0  0  -0.38098  -0.284494  0  3.605106  0
N  N132  1  0.00767428  0.52387164  0.12496422  1  0  -0.205509  0  3.329829  0  0  -0.156207  0  3.599031  0  0  -0.175757  0  3.617255  0  0  -0.324683  -0.14379  0  3.585669  0
N  N133  1  0.99232696  0.47612869  0.87503472  1  0  -0.205536  0  3.329882  0  0  -0.156186  0  3.599047  0  0  -0.17574  0  3.617276  0  0  -0.32467  -0.143773  0  3.585683  0
N  N134  1  0.80195233  0.59681505  0.00495094  1  0  -0.329206  0  3.298318  0  0  -0.299966  0  3.606646  0  0  -0.316112  0  3.622858  0  0  -0.38369  -0.289742  0  3.594175  0
N  N135  1  0.19804612  0.40318682  0.99504642  1  0  -0.329212  0  3.298195  0  0  -0.29997  0  3.60651  0  0  -0.316117  0  3.622726  0  0  -0.383678  -0.289752  0  3.594044  0
N  N136  1  0.81112459  0.39322813  0.98155412  1  0  -0.335364  0  3.333763  0  0  -0.305099  0  3.646229  0  0  -0.320117  0  3.659517  0  0  -0.387358  -0.295793  0  3.636237  0
N  N137  1  0.18887392  0.60677451  0.01844586  1  0  -0.335367  0  3.333745  0  0  -0.305106  0  3.646216  0  0  -0.320125  0  3.659506  0  0  -0.38733  -0.295802  0  3.636222  0
N  N138  1  0.20325263  0.91961675  0.02936654  1  0  -0.324142  0  3.309457  0  0  -0.295018  0  3.621994  0  0  -0.308965  0  3.636083  0  0  -0.380467  -0.286499  0  3.611181  0
N  N139  1  0.79675021  0.08038588  0.97063425  1  0  -0.324083  0  3.309219  0  0  -0.294946  0  3.621765  0  0  -0.308888  0  3.635845  0  0  -0.380425  -0.286423  0  3.610953  0
