# generated using pymatgen
data_HgH8C10(IN2)2
_symmetry_space_group_name_H-M   'P 1'
_cell_length_a   13.24440703
_cell_length_b   13.25606041
_cell_length_c   17.19944839
_cell_angle_alpha   99.73227202
_cell_angle_beta   111.61693448
_cell_angle_gamma   107.60410226
_symmetry_Int_Tables_number   1
_chemical_formula_structural   HgH8C10(IN2)2
_chemical_formula_sum   'Hg6 H48 C60 I12 N24'
_cell_volume   2538.27363847
_cell_formula_units_Z   6
loop_
 _symmetry_equiv_pos_site_id
 _symmetry_equiv_pos_as_xyz
  1  'x, y, z'
loop_
 _atom_site_type_symbol
 _atom_site_label
 _atom_site_symmetry_multiplicity
 _atom_site_fract_x
 _atom_site_fract_y
 _atom_site_fract_z
 _atom_site_occupancy
 _atom_site_hle17_bader_spin_density
 _atom_site_hle17_ddec_charge
 _atom_site_hle17_ddec_spin_density
 _atom_site_hle17_ddec_sum_bond_order
 _atom_site_hle17_magmom
 _atom_site_hse06_10hf_bader_spin_density
 _atom_site_hse06_10hf_ddec_charge
 _atom_site_hse06_10hf_ddec_spin_density
 _atom_site_hse06_10hf_ddec_sum_bond_order
 _atom_site_hse06_10hf_magmom
 _atom_site_hse06_bader_spin_density
 _atom_site_hse06_ddec_charge
 _atom_site_hse06_ddec_spin_density
 _atom_site_hse06_ddec_sum_bond_order
 _atom_site_hse06_magmom
 _atom_site_pbe_bader_spin_density
 _atom_site_pbe_cm5_charge
 _atom_site_pbe_ddec_charge
 _atom_site_pbe_ddec_spin_density
 _atom_site_pbe_ddec_sum_bond_order
 _atom_site_pbe_magmom
Hg  Hg0  1  0.31621776  0.06620928  0.25014010  1  0  0.574383  0  2.20733  0  0  0.444829  0  2.706749  0  0  0.489178  0  2.678367  0  0  0.399097  0.415174  0  2.724176  0
Hg  Hg1  1  0.68378104  0.93380233  0.74985490  1  0  0.574214  0  2.207382  0  0  0.444649  0  2.706803  0  0  0.488999  0  2.678425  0  0  0.399022  0.414992  0  2.724228  0
Hg  Hg2  1  0.06487695  0.81719094  0.48531511  1  0  0.57496  0  2.25119  0  0  0.445845  0  2.743913  0  0  0.487895  0  2.717571  0  0  0.405298  0.417603  0  2.760916  0
Hg  Hg3  1  0.83124474  0.57967955  0.01463013  1  0  0.574892  0  2.251593  0  0  0.446193  0  2.744099  0  0  0.488233  0  2.717751  0  0  0.40547  0.417968  0  2.761095  0
Hg  Hg4  1  0.93511674  0.18280219  0.51468399  1  0  0.574875  0  2.251249  0  0  0.445758  0  2.743989  0  0  0.487812  0  2.717643  0  0  0.40525  0.417521  0  2.760991  0
Hg  Hg5  1  0.16875145  0.42031040  0.98536046  1  0  0.574964  0  2.251469  0  0  0.44626  0  2.743975  0  0  0.4883  0  2.717624  0  0  0.405452  0.418034  0  2.760971  0
H  H6  1  0.32388060  0.49382565  0.36096256  1  0  0.118568  0  0.955495  0  0  0.131729  0  1.013687  0  0  0.134925  0  1.011389  0  0  0.10932  0.129498  0  1.015324  0
H  H7  1  0.63346798  0.96357015  0.13915133  1  0  0.117983  0  0.956391  0  0  0.131487  0  1.014165  0  0  0.134749  0  1.011834  0  0  0.109487  0.12918  0  1.015889  0
H  H8  1  0.67611755  0.50617413  0.63904044  1  0  0.11862  0  0.955502  0  0  0.131777  0  1.013703  0  0  0.134973  0  1.011407  0  0  0.109344  0.129547  0  1.015339  0
H  H9  1  0.36654384  0.03643877  0.86086018  1  0  0.117956  0  0.956453  0  0  0.131511  0  1.014164  0  0  0.134758  0  1.011853  0  0  0.10956  0.129203  0  1.015888  0
H  H10  1  0.51640903  0.84907146  0.48417984  1  0  0.122807  0  0.974873  0  0  0.129667  0  1.04648  0  0  0.133329  0  1.044032  0  0  0.096642  0.127061  0  1.048326  0
H  H11  1  0.86512868  0.03236752  0.01541499  1  0  0.122017  0  0.975038  0  0  0.128967  0  1.046693  0  0  0.132717  0  1.044136  0  0  0.096211  0.126316  0  1.048575  0
H  H12  1  0.48358437  0.15093090  0.51581643  1  0  0.122825  0  0.974776  0  0  0.129686  0  1.046381  0  0  0.133349  0  1.043933  0  0  0.096661  0.127078  0  1.048227  0
H  H13  1  0.13487161  0.96762398  0.98458449  1  0  0.121992  0  0.975012  0  0  0.128979  0  1.046635  0  0  0.132731  0  1.044071  0  0  0.096227  0.126323  0  1.048529  0
H  H14  1  0.70675462  0.63990212  0.47342124  1  0  0.117629  0  0.98665  0  0  0.127038  0  1.052035  0  0  0.131041  0  1.048836  0  0  0.10029  0.124174  0  1.054456  0
H  H15  1  0.66657340  0.23336561  0.02630688  1  0  0.117416  0  0.986504  0  0  0.126451  0  1.052236  0  0  0.130448  0  1.049035  0  0  0.100199  0.123624  0  1.054597  0
H  H16  1  0.29324289  0.36010022  0.52657846  1  0  0.117792  0  0.986652  0  0  0.127262  0  1.051973  0  0  0.131215  0  1.048823  0  0  0.100369  0.124374  0  1.054426  0
H  H17  1  0.33344425  0.76664008  0.97370109  1  0  0.117354  0  0.986642  0  0  0.126383  0  1.05238  0  0  0.130379  0  1.04918  0  0  0.100145  0.123555  0  1.054742  0
H  H18  1  0.32951553  0.33790027  0.33766258  1  0  0.087624  0  0.948216  0  0  0.097501  0  1.013573  0  0  0.099974  0  1.010014  0  0  0.127537  0.095714  0  1.01606  0
H  H19  1  0.50048531  0.99208120  0.16225580  1  0  0.087977  0  0.947996  0  0  0.097654  0  1.013367  0  0  0.100187  0  1.009717  0  0  0.127707  0.09583  0  1.015903  0
H  H20  1  0.67048132  0.66209880  0.66233241  1  0  0.08763  0  0.948216  0  0  0.097522  0  1.013546  0  0  0.099996  0  1.009986  0  0  0.127585  0.095735  0  1.016029  0
H  H21  1  0.49952831  0.00793770  0.83775938  1  0  0.087978  0  0.94799  0  0  0.097635  0  1.013377  0  0  0.100169  0  1.009729  0  0  0.127674  0.095812  0  1.015911  0
H  H22  1  0.61801277  0.25648602  0.35164151  1  0  0.103611  0  0.967965  0  0  0.1095  0  1.036496  0  0  0.112414  0  1.034809  0  0  0.105973  0.107371  0  1.037811  0
H  H23  1  0.40439317  0.26599096  0.14804475  1  0  0.103177  0  0.96861  0  0  0.10871  0  1.037561  0  0  0.111629  0  1.035856  0  0  0.105559  0.106583  0  1.038869  0
H  H24  1  0.38199218  0.74352206  0.64836743  1  0  0.103583  0  0.968127  0  0  0.109489  0  1.036636  0  0  0.112406  0  1.034948  0  0  0.105978  0.107359  0  1.03795  0
H  H25  1  0.59561134  0.73401909  0.85194633  1  0  0.103243  0  0.968519  0  0  0.108738  0  1.037505  0  0  0.111657  0  1.035801  0  0  0.10558  0.106611  0  1.038814  0
H  H26  1  0.69958078  0.48576626  0.41642820  1  0  0.117401  0  0.970183  0  0  0.128484  0  1.028113  0  0  0.131865  0  1.025388  0  0  0.117297  0.125924  0  1.030403  0
H  H27  1  0.56898844  0.28288829  0.08317639  1  0  0.116944  0  0.969357  0  0  0.127977  0  1.027416  0  0  0.131324  0  1.0247  0  0  0.117399  0.125422  0  1.029706  0
H  H28  1  0.30041802  0.51423679  0.58357894  1  0  0.117381  0  0.970118  0  0  0.128456  0  1.02807  0  0  0.131839  0  1.025339  0  0  0.117282  0.125895  0  1.030362  0
H  H29  1  0.43102597  0.71712166  0.91682491  1  0  0.117028  0  0.969261  0  0  0.128019  0  1.027359  0  0  0.131381  0  1.02464  0  0  0.117392  0.125465  0  1.029651  0
H  H30  1  0.34859203  0.81804969  0.51475286  1  0  0.086055  0  0.968013  0  0  0.089594  0  1.046888  0  0  0.092581  0  1.042927  0  0  0.118153  0.087499  0  1.049549  0
H  H31  1  0.80333975  0.83393202  0.98506212  1  0  0.086398  0  0.967395  0  0  0.089516  0  1.046491  0  0  0.09245  0  1.042566  0  0  0.118581  0.087496  0  1.049101  0
H  H32  1  0.65141314  0.18195351  0.48524846  1  0  0.086076  0  0.967967  0  0  0.089643  0  1.04677  0  0  0.09263  0  1.042809  0  0  0.118209  0.087549  0  1.049429  0
H  H33  1  0.19663791  0.16606201  0.01492637  1  0  0.086435  0  0.967356  0  0  0.089566  0  1.04644  0  0  0.092497  0  1.042517  0  0  0.118589  0.087546  0  1.049052  0
H  H34  1  0.01863956  0.62707814  0.29282183  1  0  0.096956  0  1.004531  0  0  0.10192  0  1.074797  0  0  0.10497  0  1.072964  0  0  0.093175  0.099858  0  1.075954  0
H  H35  1  0.83443902  0.72663225  0.20725423  1  0  0.098  0  1.002167  0  0  0.102942  0  1.072303  0  0  0.106048  0  1.070422  0  0  0.094057  0.100864  0  1.073448  0
H  H36  1  0.98135903  0.37293252  0.70717995  1  0  0.096934  0  1.004584  0  0  0.101923  0  1.074815  0  0  0.104971  0  1.072991  0  0  0.093212  0.099863  0  1.075968  0
H  H37  1  0.16555707  0.27334611  0.79273059  1  0  0.097797  0  1.002376  0  0  0.10282  0  1.072449  0  0  0.105925  0  1.070574  0  0  0.093997  0.100743  0  1.073595  0
H  H38  1  0.18682090  0.55407206  0.27346245  1  0  0.108813  0  0.983287  0  0  0.11606  0  1.051236  0  0  0.119519  0  1.048556  0  0  0.108981  0.113469  0  1.05341  0
H  H39  1  0.78135073  0.91440005  0.22661112  1  0  0.108843  0  0.982998  0  0  0.116067  0  1.051106  0  0  0.119544  0  1.048382  0  0  0.108995  0.113478  0  1.053283  0
H  H40  1  0.81316976  0.44592942  0.72653528  1  0  0.108785  0  0.983238  0  0  0.116027  0  1.051198  0  0  0.119486  0  1.048513  0  0  0.108954  0.113431  0  1.05337  0
H  H41  1  0.21866112  0.08558819  0.77338869  1  0  0.1089  0  0.982913  0  0  0.116098  0  1.051059  0  0  0.11958  0  1.048326  0  0  0.10898  0.113503  0  1.053245  0
H  H42  1  0.68217106  0.94729068  0.43858577  1  0  0.091278  0  0.959611  0  0  0.096044  0  1.033506  0  0  0.0992  0  1.029362  0  0  0.118713  0.093676  0  1.036569  0
H  H43  1  0.00895300  0.24322107  0.06067893  1  0  0.091471  0  0.959198  0  0  0.096443  0  1.033135  0  0  0.099628  0  1.028957  0  0  0.11911  0.094054  0  1.036204  0
H  H44  1  0.31782492  0.05271157  0.56141875  1  0  0.091254  0  0.959619  0  0  0.096076  0  1.033489  0  0  0.099231  0  1.029344  0  0  0.118691  0.093705  0  1.036557  0
H  H45  1  0.99105099  0.75677391  0.93931449  1  0  0.091424  0  0.959253  0  0  0.09646  0  1.033104  0  0  0.099643  0  1.028913  0  0  0.119146  0.094059  0  1.036203  0
H  H46  1  0.00792427  0.00726245  0.64945936  1  0  0.102927  0  0.963853  0  0  0.110478  0  1.027859  0  0  0.112583  0  1.027627  0  0  0.110305  0.108959  0  1.028082  0
H  H47  1  0.85776881  0.35839631  0.85022168  1  0  0.103293  0  0.964492  0  0  0.110928  0  1.02814  0  0  0.113028  0  1.027909  0  0  0.110524  0.109363  0  1.028429  0
H  H48  1  0.99207070  0.99274466  0.35055315  1  0  0.102915  0  0.963921  0  0  0.110485  0  1.027875  0  0  0.112595  0  1.027629  0  0  0.110324  0.108958  0  1.028125  0
H  H49  1  0.14222493  0.64159521  0.14977370  1  0  0.103249  0  0.964488  0  0  0.110847  0  1.02818  0  0  0.112968  0  1.027928  0  0  0.11049  0.109283  0  1.028469  0
H  H50  1  0.84240039  0.80260054  0.62542053  1  0  0.114474  0  0.951364  0  0  0.126874  0  1.006804  0  0  0.129848  0  1.005178  0  0  0.118973  0.124725  0  1.008087  0
H  H51  1  0.67703274  0.21703925  0.87437203  1  0  0.114043  0  0.951318  0  0  0.126725  0  1.006578  0  0  0.129714  0  1.004959  0  0  0.118527  0.12454  0  1.007888  0
H  H52  1  0.15759018  0.19740415  0.37458520  1  0  0.114404  0  0.951262  0  0  0.126799  0  1.006726  0  0  0.129776  0  1.005096  0  0  0.118969  0.124652  0  1.008009  0
H  H53  1  0.32296481  0.78295720  0.12562975  1  0  0.114099  0  0.951282  0  0  0.126751  0  1.006578  0  0  0.12974  0  1.004959  0  0  0.118556  0.124582  0  1.007871  0
C  C54  1  0.51534866  0.55311841  0.41512054  1  0  0.227925  0  3.778965  0  0  0.219802  0  4.029647  0  0  0.228157  0  4.05004  0  0  0.100665  0.214258  0  4.015854  0
C  C55  1  0.63827290  0.10055457  0.08480241  1  0  0.228271  0  3.776882  0  0  0.220151  0  4.027627  0  0  0.228481  0  4.048067  0  0  0.101454  0.214622  0  4.013799  0
C  C56  1  0.48465609  0.44688558  0.58488310  1  0  0.227771  0  3.779126  0  0  0.219696  0  4.029786  0  0  0.228051  0  4.050174  0  0  0.100605  0.214152  0  4.015991  0
C  C57  1  0.36174423  0.89945356  0.91520868  1  0  0.228304  0  3.776951  0  0  0.220104  0  4.027803  0  0  0.228438  0  4.048232  0  0  0.101444  0.214573  0  4.013977  0
C  C58  1  0.40826652  0.56530464  0.39527783  1  0  -0.227293  0  3.688298  0  0  -0.261278  0  3.948113  0  0  -0.266694  0  3.96554  0  0  -0.095415  -0.257675  0  3.936292  0
C  C59  1  0.67053003  0.01353673  0.10474145  1  0  -0.227073  0  3.688483  0  0  -0.260738  0  3.948024  0  0  -0.266224  0  3.965504  0  0  -0.09572  -0.257075  0  3.936207  0
C  C60  1  0.59173463  0.43469266  0.60472504  1  0  -0.227374  0  3.688352  0  0  -0.261426  0  3.948178  0  0  -0.266837  0  3.965591  0  0  -0.095445  -0.257823  0  3.93636  0
C  C61  1  0.32948947  0.98647304  0.89527284  1  0  -0.227111  0  3.688531  0  0  -0.260802  0  3.948107  0  0  -0.266278  0  3.965601  0  0  -0.095796  -0.25714  0  3.936285  0
C  C62  1  0.40923767  0.67160238  0.41984598  1  0  0.230072  0  3.782674  0  0  0.225631  0  4.026871  0  0  0.233513  0  4.047921  0  0  0.104522  0.220425  0  4.012442  0
C  C63  1  0.75218264  0.98983276  0.08004082  1  0  0.231354  0  3.781406  0  0  0.225855  0  4.027054  0  0  0.233719  0  4.04815  0  0  0.104998  0.220635  0  4.012624  0
C  C64  1  0.59075961  0.32839745  0.58015330  1  0  0.23023  0  3.782567  0  0  0.225886  0  4.026613  0  0  0.233774  0  4.047659  0  0  0.104526  0.220681  0  4.012188  0
C  C65  1  0.24782310  0.01016794  0.91996030  1  0  0.23137  0  3.781363  0  0  0.225885  0  4.02697  0  0  0.233751  0  4.048059  0  0  0.105012  0.220672  0  4.012521  0
C  C66  1  0.51533358  0.76617352  0.46391739  1  0  -0.22303  0  3.682068  0  0  -0.254129  0  3.933799  0  0  -0.260491  0  3.953358  0  0  -0.093845  -0.249722  0  3.920124  0
C  C67  1  0.80261572  0.05166240  0.03585392  1  0  -0.222042  0  3.682169  0  0  -0.253305  0  3.933927  0  0  -0.259712  0  3.95349  0  0  -0.093338  -0.248862  0  3.920258  0
C  C68  1  0.48465999  0.23382713  0.53608159  1  0  -0.223127  0  3.681804  0  0  -0.254243  0  3.933469  0  0  -0.260611  0  3.953032  0  0  -0.093875  -0.249834  0  3.919794  0
C  C69  1  0.19739486  0.94833992  0.96415281  1  0  -0.221923  0  3.681888  0  0  -0.253258  0  3.933749  0  0  -0.259676  0  3.953337  0  0  -0.093317  -0.248811  0  3.920073  0
C  C70  1  0.62076320  0.75189067  0.48249843  1  0  0.220108  0  3.792335  0  0  0.216816  0  4.036723  0  0  0.223617  0  4.05893  0  0  0.10052  0.212421  0  4.021414  0
C  C71  1  0.76963383  0.13839356  0.01725464  1  0  0.220649  0  3.792847  0  0  0.217976  0  4.035781  0  0  0.224749  0  4.058056  0  0  0.100664  0.213597  0  4.020458  0
C  C72  1  0.37923420  0.24811332  0.51750207  1  0  0.220159  0  3.791932  0  0  0.216964  0  4.036288  0  0  0.22377  0  4.058486  0  0  0.100574  0.21257  0  4.020979  0
C  C73  1  0.23037546  0.86160960  0.98275070  1  0  0.220621  0  3.792704  0  0  0.217869  0  4.035731  0  0  0.224641  0  4.058007  0  0  0.100638  0.213475  0  4.020426  0
C  C74  1  0.62253204  0.64649167  0.45996425  1  0  -0.235973  0  3.698799  0  0  -0.268268  0  3.954462  0  0  -0.274177  0  3.971927  0  0  -0.098125  -0.264467  0  3.94284  0
C  C75  1  0.68675297  0.16274750  0.03985547  1  0  -0.236777  0  3.695603  0  0  -0.268936  0  3.95123  0  0  -0.274845  0  3.968773  0  0  -0.098725  -0.265156  0  3.939541  0
C  C76  1  0.37746633  0.35351647  0.54003827  1  0  -0.236069  0  3.698718  0  0  -0.268458  0  3.954324  0  0  -0.274319  0  3.97183  0  0  -0.098183  -0.264638  0  3.942721  0
C  C77  1  0.31326573  0.83726069  0.96015314  1  0  -0.236731  0  3.695467  0  0  -0.268789  0  3.951034  0  0  -0.274694  0  3.968571  0  0  -0.098697  -0.265006  0  3.939352  0
C  C78  1  0.41880963  0.34607596  0.35173565  1  0  0.161366  0  3.675168  0  0  0.100221  0  3.946775  0  0  0.114294  0  3.960081  0  0  0.134987  0.0914  0  3.937255  0
C  C79  1  0.49442748  0.06718027  0.14816453  1  0  0.160191  0  3.674858  0  0  0.099456  0  3.946579  0  0  0.113492  0  3.959783  0  0  0.134074  0.090647  0  3.937139  0
C  C80  1  0.58119076  0.65392557  0.64826356  1  0  0.161377  0  3.67502  0  0  0.100235  0  3.946632  0  0  0.114305  0  3.959936  0  0  0.134981  0.091415  0  3.937109  0
C  C81  1  0.50558227  0.93283374  0.85184133  1  0  0.160064  0  3.675055  0  0  0.099349  0  3.94681  0  0  0.113386  0  3.960011  0  0  0.134061  0.09054  0  3.937367  0
C  C82  1  0.57021744  0.30782156  0.36014125  1  0  0.007093  0  3.738201  0  0  -0.024167  0  4.003174  0  0  -0.022892  0  4.023967  0  0  -0.003354  -0.025035  0  3.988982  0
C  C83  1  0.44737008  0.20983485  0.13955633  1  0  0.007847  0  3.737919  0  0  -0.022987  0  4.002792  0  0  -0.021737  0  4.023561  0  0  -0.002785  -0.02384  0  3.988607  0
C  C84  1  0.42978560  0.69218406  0.63986392  1  0  0.006978  0  3.738429  0  0  -0.024298  0  4.003411  0  0  -0.023024  0  4.0242  0  0  -0.003443  -0.025162  0  3.989215  0
C  C85  1  0.55263755  0.79017846  0.86044072  1  0  0.007974  0  3.738056  0  0  -0.022853  0  4.002972  0  0  -0.021602  0  4.023748  0  0  -0.002706  -0.023704  0  3.988787  0
C  C86  1  0.61223801  0.42154296  0.39346016  1  0  -0.050304  0  3.640348  0  0  -0.086879  0  3.886653  0  0  -0.085211  0  3.90475  0  0  0.002257  -0.088055  0  3.874824  0
C  C87  1  0.52784179  0.21860266  0.10624235  1  0  -0.050045  0  3.636717  0  0  -0.086395  0  3.88327  0  0  -0.084655  0  3.901261  0  0  0.001961  -0.087594  0  3.871491  0
C  C88  1  0.38776309  0.57846179  0.60654610  1  0  -0.050148  0  3.640093  0  0  -0.086727  0  3.88641  0  0  -0.085054  0  3.9045  0  0  0.002361  -0.087903  0  3.874582  0
C  C89  1  0.47216972  0.78140812  0.89375829  1  0  -0.050211  0  3.636972  0  0  -0.086491  0  3.883455  0  0  -0.084771  0  3.901458  0  0  0.001884  -0.08769  0  3.871673  0
C  C90  1  0.28046677  0.75749049  0.45181562  1  0  0.16658  0  3.658447  0  0  0.106396  0  3.926539  0  0  0.120546  0  3.939061  0  0  0.134419  0.097454  0  3.917606  0
C  C91  1  0.80580892  0.82894813  0.04804622  1  0  0.166907  0  3.657169  0  0  0.107687  0  3.925586  0  0  0.121885  0  3.938074  0  0  0.135266  0.098669  0  3.916654  0
C  C92  1  0.71953456  0.24251521  0.54818444  1  0  0.166632  0  3.658495  0  0  0.106438  0  3.926626  0  0  0.120592  0  3.939145  0  0  0.134347  0.097496  0  3.917695  0
C  C93  1  0.19417395  0.17104676  0.95194264  1  0  0.166797  0  3.657077  0  0  0.10752  0  3.925507  0  0  0.121717  0  3.938  0  0  0.135217  0.098501  0  3.91658  0
C  C94  1  0.11221655  0.65578281  0.33645478  1  0  0.006001  0  3.751603  0  0  -0.023418  0  4.006376  0  0  -0.021632  0  4.026762  0  0  -0.007541  -0.024608  0  3.99213  0
C  C95  1  0.81959980  0.77650109  0.16356789  1  0  0.00371  0  3.751362  0  0  -0.025208  0  4.006424  0  0  -0.023504  0  4.02678  0  0  -0.008788  -0.026362  0  3.992205  0
C  C96  1  0.88778130  0.34422622  0.66354424  1  0  0.006057  0  3.751938  0  0  -0.023361  0  4.006722  0  0  -0.021574  0  4.027108  0  0  -0.007473  -0.024551  0  3.992472  0
C  C97  1  0.18039187  0.22347643  0.83641503  1  0  0.004152  0  3.751718  0  0  -0.024854  0  4.006713  0  0  -0.023151  0  4.02707  0  0  -0.008513  -0.026009  0  3.992493  0
C  C98  1  0.19321137  0.61741222  0.32617599  1  0  -0.066047  0  3.668243  0  0  -0.102298  0  3.917194  0  0  -0.101589  0  3.935979  0  0  -0.006344  -0.102533  0  3.904469  0
C  C99  1  0.79176997  0.86788972  0.17383129  1  0  -0.067111  0  3.667862  0  0  -0.10321  0  3.916771  0  0  -0.102513  0  3.935589  0  0  -0.006983  -0.10343  0  3.904009  0
C  C100  1  0.80678453  0.38259009  0.67382445  1  0  -0.065958  0  3.668347  0  0  -0.102225  0  3.917304  0  0  -0.101513  0  3.936086  0  0  -0.006333  -0.102453  0  3.904576  0
C  C101  1  0.20823255  0.13209770  0.82616355  1  0  -0.067238  0  3.667916  0  0  -0.103347  0  3.91683  0  0  -0.102649  0  3.935644  0  0  -0.007051  -0.103562  0  3.904078  0
C  C102  1  0.74913364  0.93846012  0.49366556  1  0  0.167125  0  3.647044  0  0  0.10671  0  3.91366  0  0  0.121189  0  3.925311  0  0  0.136923  0.097443  0  3.905404  0
C  C103  1  0.94496326  0.25518754  0.00570716  1  0  0.167374  0  3.643696  0  0  0.106208  0  3.909773  0  0  0.120639  0  3.92144  0  0  0.135432  0.096985  0  3.901506  0
C  C104  1  0.25086101  0.06153716  0.50633555  1  0  0.167213  0  3.646926  0  0  0.106786  0  3.91354  0  0  0.121265  0  3.925194  0  0  0.137052  0.097522  0  3.905282  0
C  C105  1  0.05503844  0.74480573  0.99428772  1  0  0.167398  0  3.643702  0  0  0.106157  0  3.909814  0  0  0.120598  0  3.921471  0  0  0.135358  0.096933  0  3.901538  0
C  C106  1  0.91570707  0.96427354  0.60166705  1  0  0.002591  0  3.755851  0  0  -0.029608  0  4.020694  0  0  -0.027552  0  4.041246  0  0  -0.004775  -0.030962  0  4.006855  0
C  C107  1  0.86264263  0.31396917  0.89797934  1  0  0.003601  0  3.753569  0  0  -0.028474  0  4.018469  0  0  -0.026383  0  4.038959  0  0  -0.004272  -0.029804  0  4.00466  0
C  C108  1  0.08428424  0.03573277  0.39834144  1  0  0.002508  0  3.755928  0  0  -0.029696  0  4.020767  0  0  -0.02764  0  4.041322  0  0  -0.004842  -0.03105  0  4.006924  0
C  C109  1  0.13735505  0.68602404  0.10201677  1  0  0.0037  0  3.753486  0  0  -0.028351  0  4.018363  0  0  -0.026279  0  4.038842  0  0  -0.004189  -0.02968  0  4.004557  0
C  C110  1  0.83500702  0.86265050  0.59042529  1  0  -0.067575  0  3.699884  0  0  -0.109426  0  3.962711  0  0  -0.108589  0  3.981528  0  0  -0.006196  -0.109959  0  3.950065  0
C  C111  1  0.77218076  0.24458740  0.90926493  1  0  -0.067358  0  3.697665  0  0  -0.11015  0  3.960792  0  0  -0.109342  0  3.979647  0  0  -0.005925  -0.110638  0  3.948129  0
C  C112  1  0.16498673  0.13734842  0.40957697  1  0  -0.067429  0  3.699882  0  0  -0.109217  0  3.962725  0  0  -0.108382  0  3.981549  0  0  -0.006181  -0.109754  0  3.95008  0
C  C113  1  0.22782001  0.75540909  0.09073598  1  0  -0.067345  0  3.697498  0  0  -0.110122  0  3.960615  0  0  -0.109312  0  3.979472  0  0  -0.005973  -0.110624  0  3.947943  0
I  I114  1  0.42292252  0.95474055  0.34567432  1  0  -0.380328  0  1.09823  0  0  -0.343086  0  1.423287  0  0  -0.360711  0  1.404072  0  0  -0.200466  -0.331991  0  1.436177  0
I  I115  1  0.10911813  0.07765368  0.15492043  1  0  -0.380592  0  1.098154  0  0  -0.343359  0  1.423451  0  0  -0.360995  0  1.40428  0  0  -0.200511  -0.332243  0  1.436308  0
I  I116  1  0.57704327  0.04524260  0.65430939  1  0  -0.380206  0  1.098258  0  0  -0.342997  0  1.423414  0  0  -0.36062  0  1.4042  0  0  -0.200401  -0.331902  0  1.436302  0
I  I117  1  0.89087265  0.92234769  0.84508430  1  0  -0.380556  0  1.098147  0  0  -0.343319  0  1.423424  0  0  -0.360949  0  1.404245  0  0  -0.200499  -0.332202  0  1.436283  0
I  I118  1  0.83572733  0.69322539  0.37061865  1  0  -0.374824  0  1.093625  0  0  -0.334544  0  1.389386  0  0  -0.351548  0  1.370248  0  0  -0.196222  -0.323105  0  1.40253  0
I  I119  1  0.82228739  0.46512500  0.12918288  1  0  -0.374926  0  1.093285  0  0  -0.334789  0  1.388851  0  0  -0.351786  0  1.369719  0  0  -0.196624  -0.323327  0  1.401968  0
I  I120  1  0.16427031  0.30676786  0.62937513  1  0  -0.374811  0  1.093653  0  0  -0.33454  0  1.389448  0  0  -0.351543  0  1.370296  0  0  -0.1962  -0.323095  0  1.402586  0
I  I121  1  0.17779272  0.53487204  0.87082154  1  0  -0.374958  0  1.09318  0  0  -0.334815  0  1.388704  0  0  -0.351815  0  1.36958  0  0  -0.196634  -0.323353  0  1.401821  0
I  I122  1  0.21094678  0.86663464  0.65975017  1  0  -0.437725  0  1.039846  0  0  -0.404576  0  1.337313  0  0  -0.420825  0  1.317901  0  0  -0.24685  -0.393407  0  1.350642  0
I  I123  1  0.70654746  0.55097709  0.84009291  1  0  -0.437624  0  1.039557  0  0  -0.404339  0  1.336676  0  0  -0.420593  0  1.317294  0  0  -0.246831  -0.393158  0  1.349976  0
I  I124  1  0.78904615  0.13336428  0.34025187  1  0  -0.437716  0  1.039891  0  0  -0.404584  0  1.337355  0  0  -0.420833  0  1.317945  0  0  -0.246839  -0.393409  0  1.350687  0
I  I125  1  0.29338930  0.44895317  0.15989392  1  0  -0.437626  0  1.039617  0  0  -0.404354  0  1.336791  0  0  -0.420605  0  1.317408  0  0  -0.246786  -0.393175  0  1.350092  0
N  N126  1  0.51512505  0.44588470  0.38818941  1  0  -0.095557  0  3.579674  0  0  -0.004167  0  3.787137  0  0  -0.019997  0  3.812914  0  0  -0.223762  0.006186  0  3.769558  0
N  N127  1  0.55771516  0.12701079  0.11163920  1  0  -0.094149  0  3.577312  0  0  -0.00326  0  3.785222  0  0  -0.019088  0  3.810978  0  0  -0.223639  0.007095  0  3.767654  0
N  N128  1  0.48487258  0.55411595  0.61181067  1  0  -0.095517  0  3.579568  0  0  -0.004148  0  3.787038  0  0  -0.019977  0  3.812814  0  0  -0.223762  0.006202  0  3.769461  0
N  N129  1  0.44229830  0.87300240  0.88836755  1  0  -0.094124  0  3.577679  0  0  -0.003236  0  3.785597  0  0  -0.019064  0  3.811355  0  0  -0.223649  0.007121  0  3.768028  0
N  N130  1  0.44990150  0.26224235  0.33507243  1  0  -0.328214  0  3.242125  0  0  -0.258271  0  3.521841  0  0  -0.278242  0  3.542752  0  0  -0.337009  -0.244568  0  3.50651  0
N  N131  1  0.42703392  0.11475224  0.16474819  1  0  -0.328444  0  3.24124  0  0  -0.258683  0  3.520815  0  0  -0.278673  0  3.541777  0  0  -0.336115  -0.244962  0  3.50546  0
N  N132  1  0.55009976  0.73775912  0.66493050  1  0  -0.328203  0  3.242129  0  0  -0.258242  0  3.521813  0  0  -0.27822  0  3.542746  0  0  -0.337015  -0.244537  0  3.506475  0
N  N133  1  0.57297320  0.88526352  0.83525256  1  0  -0.32837  0  3.241206  0  0  -0.258625  0  3.520806  0  0  -0.278619  0  3.54178  0  0  -0.33607  -0.244904  0  3.505449  0
N  N134  1  0.30042187  0.68279834  0.40008875  1  0  -0.101375  0  3.60454  0  0  -0.010487  0  3.810096  0  0  -0.026186  0  3.835953  0  0  -0.228691  -0.000245  0  3.792432  0
N  N135  1  0.78319328  0.90091013  0.09983503  1  0  -0.101262  0  3.603675  0  0  -0.010141  0  3.809281  0  0  -0.025835  0  3.835162  0  0  -0.229135  9.3e-05  0  3.79163  0
N  N136  1  0.69957678  0.31720485  0.59991022  1  0  -0.101573  0  3.604713  0  0  -0.010694  0  3.810248  0  0  -0.026399  0  3.8361  0  0  -0.228673  -0.000452  0  3.792585  0
N  N137  1  0.21680463  0.09908558  0.90016151  1  0  -0.101226  0  3.603537  0  0  -0.010074  0  3.809097  0  0  -0.025769  0  3.834976  0  0  -0.229054  0.00016  0  3.791442  0
N  N138  1  0.16759462  0.74191630  0.41495093  1  0  -0.320643  0  3.233396  0  0  -0.247838  0  3.505302  0  0  -0.267738  0  3.524937  0  0  -0.335171  -0.233959  0  3.491209  0
N  N139  1  0.82696455  0.75302666  0.08496598  1  0  -0.319824  0  3.234046  0  0  -0.248316  0  3.506908  0  0  -0.268192  0  3.526535  0  0  -0.335452  -0.23445  0  3.492832  0
N  N140  1  0.83240533  0.25809189  0.58504970  1  0  -0.32067  0  3.233575  0  0  -0.247904  0  3.505529  0  0  -0.267803  0  3.525165  0  0  -0.335207  -0.234024  0  3.491436  0
N  N141  1  0.17301626  0.24696007  0.91501126  1  0  -0.319969  0  3.234245  0  0  -0.248389  0  3.507066  0  0  -0.268262  0  3.526689  0  0  -0.335627  -0.234522  0  3.492993  0
N  N142  1  0.72908208  0.84743800  0.52213268  1  0  -0.099283  0  3.612871  0  0  -0.009764  0  3.823056  0  0  -0.02516  0  3.849079  0  0  -0.229227  0.000475  0  3.805101  0
N  N143  1  0.82540301  0.20689091  0.97745844  1  0  -0.101493  0  3.612873  0  0  -0.010983  0  3.821796  0  0  -0.026414  0  3.847887  0  0  -0.229087  -0.000732  0  3.803802  0
N  N144  1  0.27091083  0.15256678  0.47786846  1  0  -0.099334  0  3.612704  0  0  -0.009989  0  3.823072  0  0  -0.025391  0  3.849104  0  0  -0.229322  0.000254  0  3.805115  0
N  N145  1  0.17459826  0.79310315  0.02253819  1  0  -0.101696  0  3.612903  0  0  -0.011138  0  3.821819  0  0  -0.02657  0  3.847904  0  0  -0.229079  -0.00088  0  3.803828  0
N  N146  1  0.86101756  0.00961091  0.54062072  1  0  -0.310284  0  3.252078  0  0  -0.235833  0  3.528109  0  0  -0.256121  0  3.54783  0  0  -0.331257  -0.222245  0  3.51435  0
N  N147  1  0.96913984  0.32018487  0.95884094  1  0  -0.311517  0  3.248986  0  0  -0.23717  0  3.525114  0  0  -0.257418  0  3.54476  0  0  -0.331563  -0.22361  0  3.511385  0
N  N148  1  0.13897599  0.99039131  0.45938372  1  0  -0.310357  0  3.25216  0  0  -0.235929  0  3.528227  0  0  -0.256217  0  3.547949  0  0  -0.331304  -0.222337  0  3.514453  0
N  N149  1  0.03086044  0.67980508  0.04115192  1  0  -0.311446  0  3.248997  0  0  -0.237067  0  3.525101  0  0  -0.257316  0  3.544754  0  0  -0.331541  -0.223505  0  3.511367  0
