# generated using pymatgen
data_CdH12C15(NO)4
_symmetry_space_group_name_H-M   'P 1'
_cell_length_a   9.09158978
_cell_length_b   10.13632273
_cell_length_c   16.89500000
_cell_angle_alpha   103.92555310
_cell_angle_beta   90.00000000
_cell_angle_gamma   90.00000000
_symmetry_Int_Tables_number   1
_chemical_formula_structural   CdH12C15(NO)4
_chemical_formula_sum   'Cd4 H48 C60 N16 O16'
_cell_volume   1511.20326021
_cell_formula_units_Z   4
loop_
 _symmetry_equiv_pos_site_id
 _symmetry_equiv_pos_as_xyz
  1  'x, y, z'
loop_
 _atom_site_type_symbol
 _atom_site_label
 _atom_site_symmetry_multiplicity
 _atom_site_fract_x
 _atom_site_fract_y
 _atom_site_fract_z
 _atom_site_occupancy
 _atom_site_hle17_bader_spin_density
 _atom_site_hle17_ddec_charge
 _atom_site_hle17_ddec_spin_density
 _atom_site_hle17_ddec_sum_bond_order
 _atom_site_hle17_magmom
 _atom_site_hse06_10hf_bader_spin_density
 _atom_site_hse06_10hf_ddec_charge
 _atom_site_hse06_10hf_ddec_spin_density
 _atom_site_hse06_10hf_ddec_sum_bond_order
 _atom_site_hse06_10hf_magmom
 _atom_site_hse06_bader_spin_density
 _atom_site_hse06_ddec_charge
 _atom_site_hse06_ddec_spin_density
 _atom_site_hse06_ddec_sum_bond_order
 _atom_site_hse06_magmom
 _atom_site_pbe_bader_charge
 _atom_site_pbe_bader_spin_density
 _atom_site_pbe_cm5_charge
 _atom_site_pbe_ddec_charge
 _atom_site_pbe_ddec_spin_density
 _atom_site_pbe_ddec_sum_bond_order
 _atom_site_pbe_magmom
Cd  Cd0  1  0.11331572  0.84000069  0.93465416  1  0  1.121776  0  1.675251  0  0  0.929913  0  2.119171  0  0  0.987544  0  2.068913  0  1.2647  0  0.763302  0.886124  0  2.154343  0
Cd  Cd1  1  0.61331408  0.15999844  0.56534968  1  0  1.12174  0  1.675264  0  0  0.929851  0  2.119183  0  0  0.987484  0  2.068927  0  1.264651  0  0.763271  0.88606  0  2.154353  0
Cd  Cd2  1  0.88667991  0.16000454  0.06534997  1  0  1.121739  0  1.675219  0  0  0.929855  0  2.119143  0  0  0.987491  0  2.068884  0  1.264618  0  0.76328  0.886067  0  2.154315  0
Cd  Cd3  1  0.38668265  0.83999866  0.43465268  1  0  1.121793  0  1.675245  0  0  0.929934  0  2.119153  0  0  0.987563  0  2.068896  0  1.26473  0  0.763337  0.886144  0  2.154327  0
H  H4  1  0.46028144  0.19602459  0.07789202  1  0  0.09343  0  0.978522  0  0  0.100751  0  1.048376  0  0  0.103975  0  1.045672  0  0.103749  0  0.098965  0.09818  0  1.050806  0
H  H5  1  0.96029410  0.80396946  0.42211108  1  0  0.093448  0  0.978399  0  0  0.100795  0  1.048244  0  0  0.104026  0  1.045539  0  0.104044  0  0.098948  0.098222  0  1.050674  0
H  H6  1  0.53970979  0.80397149  0.92210132  1  0  0.09337  0  0.978408  0  0  0.100727  0  1.048248  0  0  0.103962  0  1.04554  0  0.103737  0  0.098941  0.098154  0  1.050679  0
H  H7  1  0.03970923  0.19602357  0.57788832  1  0  0.093431  0  0.978455  0  0  0.100783  0  1.048285  0  0  0.104015  0  1.045582  0  0.103997  0  0.098937  0.098213  0  1.050712  0
H  H8  1  0.53931382  0.43737053  0.13112395  1  0  0.087542  0  0.963164  0  0  0.098049  0  1.024483  0  0  0.10037  0  1.025164  0  0.068351  0  0.096786  0.096845  0  1.02304  0
H  H9  1  0.03931656  0.56261742  0.36888064  1  0  0.087574  0  0.963058  0  0  0.0981  0  1.024345  0  0  0.100425  0  1.025029  0  0.068345  0  0.096764  0.096894  0  1.022908  0
H  H10  1  0.46069501  0.56261945  0.86887088  1  0  0.087557  0  0.963268  0  0  0.098089  0  1.024551  0  0  0.100411  0  1.025229  0  0.068406  0  0.096787  0.096884  0  1.023109  0
H  H11  1  0.96068677  0.43737460  0.63112158  1  0  0.087629  0  0.963041  0  0  0.098138  0  1.024355  0  0  0.100462  0  1.025037  0  0.068361  0  0.096804  0.096931  0  1.022916  0
H  H12  1  0.40326391  0.62282634  0.08737397  1  0  0.097498  0  0.941696  0  0  0.107203  0  1.001806  0  0  0.110565  0  0.999994  0  0.080739  0  0.102875  0.104617  0  1.003439  0
H  H13  1  0.90324907  0.37717177  0.41263091  1  0  0.097567  0  0.941659  0  0  0.107269  0  1.00177  0  0  0.110632  0  0.999953  0  0.080708  0  0.102901  0.104683  0  1.003403  0
H  H14  1  0.59674602  0.37717482  0.91262780  1  0  0.097542  0  0.941705  0  0  0.107249  0  1.001805  0  0  0.110609  0  0.999993  0  0.080613  0  0.102895  0.104663  0  1.003438  0
H  H15  1  0.09674876  0.62282634  0.58737278  1  0  0.097565  0  0.941684  0  0  0.107267  0  1.001792  0  0  0.11063  0  0.999978  0  0.080691  0  0.102904  0.104681  0  1.003426  0
H  H16  1  0.10676571  0.32729989  0.94734246  1  0  0.094344  0  0.973494  0  0  0.100497  0  1.047114  0  0  0.104158  0  1.043777  0  0.096882  0  0.100283  0.098103  0  1.048916  0
H  H17  1  0.60675967  0.67270229  0.55265412  1  0  0.094362  0  0.973649  0  0  0.100556  0  1.047208  0  0  0.104218  0  1.043867  0  0.096845  0  0.100275  0.09816  0  1.04901  0
H  H18  1  0.89322992  0.67270839  0.05265560  1  0  0.09429  0  0.97339  0  0  0.100452  0  1.047019  0  0  0.104112  0  1.04368  0  0.09697  0  0.100265  0.098061  0  1.048816  0
H  H19  1  0.39323816  0.32729277  0.44734262  1  0  0.094364  0  0.973548  0  0  0.100545  0  1.047129  0  0  0.104206  0  1.043791  0  0.096841  0  0.100288  0.098152  0  1.048928  0
H  H20  1  0.81875120  0.99223771  0.85281513  1  0  0.115989  0  0.91659  0  0  0.127576  0  0.974123  0  0  0.130253  0  0.971133  0  0.184686  0  0.144137  0.125308  0  0.976767  0
H  H21  1  0.31875173  0.00776243  0.64718649  1  0  0.116021  0  0.916531  0  0  0.127582  0  0.974084  0  0  0.130258  0  0.971096  0  0.1847  0  0.144115  0.125312  0  0.976733  0
H  H22  1  0.18125213  0.00775735  0.14718813  1  0  0.115992  0  0.9167  0  0  0.127577  0  0.974224  0  0  0.130256  0  0.971237  0  0.184623  0  0.144132  0.125311  0  0.976866  0
H  H23  1  0.68125049  0.99223771  0.35281157  1  0  0.116039  0  0.916602  0  0  0.127607  0  0.974142  0  0  0.130286  0  0.971154  0  0.184692  0  0.144141  0.125338  0  0.976789  0
H  H24  1  0.73168501  0.61248829  0.68662825  1  0  0.129612  0  0.982351  0  0  0.133955  0  1.051701  0  0  0.138053  0  1.0488  0  0.163899  0  0.119424  0.130628  0  1.054562  0
H  H25  1  0.23168115  0.38751389  0.81336774  1  0  0.129586  0  0.982469  0  0  0.133921  0  1.051815  0  0  0.138018  0  1.048913  0  0.163987  0  0.119419  0.130595  0  1.054677  0
H  H26  1  0.26831721  0.38751084  0.31336848  1  0  0.129618  0  0.982464  0  0  0.13391  0  1.051854  0  0  0.13801  0  1.048947  0  0.163925  0  0.119404  0.130582  0  1.054718  0
H  H27  1  0.76831447  0.61248015  0.18663063  1  0  0.129557  0  0.982425  0  0  0.133956  0  1.051695  0  0  0.138052  0  1.048797  0  0.164034  0  0.119418  0.13063  0  1.054556  0
H  H28  1  0.96413061  0.58546359  0.79012192  1  0  0.109244  0  0.964171  0  0  0.118285  0  1.026064  0  0  0.120752  0  1.024996  0  0.13518  0  0.118566  0.116516  0  1.026764  0
H  H29  1  0.46412785  0.41454062  0.70987555  1  0  0.109234  0  0.964147  0  0  0.118258  0  1.026063  0  0  0.120722  0  1.025007  0  0.135174  0  0.118604  0.116488  0  1.026766  0
H  H30  1  0.03587381  0.41453147  0.20987423  1  0  0.109172  0  0.964317  0  0  0.118287  0  1.026114  0  0  0.120743  0  1.02508  0  0.135268  0  0.118595  0.116514  0  1.026829  0
H  H31  1  0.53586998  0.58546359  0.29012843  1  0  0.109215  0  0.964271  0  0  0.118289  0  1.026117  0  0  0.120759  0  1.025043  0  0.13542  0  0.11861  0.11652  0  1.026816  0
H  H32  1  0.20960361  0.61729801  0.74823778  1  0  0.104723  0  0.962082  0  0  0.114122  0  1.023709  0  0  0.116244  0  1.023479  0  0.106374  0  0.117577  0.112353  0  1.024452  0
H  H33  1  0.70960087  0.38270824  0.75176709  1  0  0.104791  0  0.962059  0  0  0.114233  0  1.023634  0  0  0.11636  0  1.023392  0  0.106259  0  0.117608  0.112455  0  1.024402  0
H  H34  1  0.79039642  0.38271230  0.25176531  1  0  0.104813  0  0.962116  0  0  0.114264  0  1.02367  0  0  0.116391  0  1.023428  0  0.106232  0  0.117638  0.112485  0  1.02444  0
H  H35  1  0.29040026  0.61729902  0.24823792  1  0  0.104798  0  0.962072  0  0  0.114217  0  1.023674  0  0  0.116343  0  1.023431  0  0.106341  0  0.117583  0.112445  0  1.024423  0
H  H36  1  0.45356754  0.64571114  0.65521034  1  0  0.133105  0  0.954142  0  0  0.139727  0  1.019193  0  0  0.143071  0  1.016797  0  0.179466  0  0.127202  0.137134  0  1.021287  0
H  H37  1  0.95356700  0.35428494  0.84479069  1  0  0.13306  0  0.954163  0  0  0.139694  0  1.019208  0  0  0.143037  0  1.016813  0  0.179458  0  0.127181  0.1371  0  1.0213  0
H  H38  1  0.54643579  0.35429409  0.34479497  1  0  0.133154  0  0.954048  0  0  0.1397  0  1.019214  0  0  0.143043  0  1.01682  0  0.179348  0  0.127251  0.137108  0  1.021308  0
H  H39  1  0.04643742  0.64570707  0.15520739  1  0  0.133138  0  0.953995  0  0  0.13974  0  1.019096  0  0  0.143085  0  1.016699  0  0.179416  0  0.127226  0.137146  0  1.021187  0
H  H40  1  0.43132390  0.97802403  0.86356487  1  0  0.11136  0  0.921645  0  0  0.121278  0  0.980822  0  0  0.124124  0  0.97752  0  0.159517  0  0.141898  0.11917  0  0.983118  0
H  H41  1  0.93131787  0.02198221  0.63643349  1  0  0.111318  0  0.921718  0  0  0.121272  0  0.980855  0  0  0.124121  0  0.977549  0  0.159611  0  0.141899  0.119164  0  0.983147  0
H  H42  1  0.56867722  0.02198425  0.13643852  1  0  0.111414  0  0.921586  0  0  0.121308  0  0.9808  0  0  0.124157  0  0.977493  0  0.159657  0  0.141919  0.119202  0  0.98309  0
H  H43  1  0.06867226  0.97801996  0.36356310  1  0  0.111349  0  0.921649  0  0  0.121255  0  0.980843  0  0  0.124102  0  0.97754  0  0.159562  0  0.141906  0.119149  0  0.983134  0
H  H44  1  0.62160306  0.99180878  0.75189258  1  0  0.094148  0  0.897222  0  0  0.106857  0  0.957442  0  0  0.107559  0  0.95718  0  0.088919  0  0.137372  0.105918  0  0.957844  0
H  H45  1  0.12160249  0.00819238  0.74810681  1  0  0.09415  0  0.897258  0  0  0.106858  0  0.957463  0  0  0.107557  0  0.957201  0  0.088935  0  0.137364  0.105918  0  0.957866  0
H  H46  1  0.37840357  0.00819340  0.24811170  1  0  0.094138  0  0.897338  0  0  0.106833  0  0.957542  0  0  0.107532  0  0.957284  0  0.088965  0  0.137371  0.105892  0  0.957943  0
H  H47  1  0.87839643  0.99180776  0.25189125  1  0  0.09415  0  0.897277  0  0  0.106844  0  0.957509  0  0  0.107546  0  0.957248  0  0.088961  0  0.137364  0.105904  0  0.957909  0
H  H48  1  0.62129068  0.86117180  0.66038456  1  0  0.107392  0  0.947071  0  0  0.115534  0  1.013371  0  0  0.11731  0  1.011823  0  0.185868  0  0.130026  0.113247  0  1.014795  0
H  H49  1  0.12128792  0.13882835  0.83961351  1  0  0.107426  0  0.947026  0  0  0.115536  0  1.013349  0  0  0.11731  0  1.011803  0  0.185909  0  0.130044  0.113248  0  1.014776  0
H  H50  1  0.37871154  0.13883343  0.33961839  1  0  0.107382  0  0.947177  0  0  0.115551  0  1.013417  0  0  0.11733  0  1.011863  0  0.185806  0  0.130029  0.113262  0  1.01484  0
H  H51  1  0.87870991  0.86116265  0.16038265  1  0  0.107414  0  0.947117  0  0  0.115585  0  1.01338  0  0  0.117365  0  1.011824  0  0.185825  0  0.130067  0.113299  0  1.014801  0
C  C52  1  0.22100315  0.10507899  0.98818535  1  0  0.609023  0  3.961178  0  0  0.55978  0  4.249522  0  0  0.593189  0  4.245685  0  1.512226  0  0.184375  0.53715  0  4.251109  0
C  C53  1  0.72101801  0.89492421  0.51181375  1  0  0.609341  0  3.960334  0  0  0.56009  0  4.248677  0  0  0.593495  0  4.244838  0  1.511286  0  0.184487  0.537455  0  4.250272  0
C  C54  1  0.77898037  0.89492624  0.01181049  1  0  0.609565  0  3.960203  0  0  0.56034  0  4.248518  0  0  0.593749  0  4.244674  0  1.511445  0  0.18465  0.537703  0  4.250105  0
C  C55  1  0.27899081  0.10507492  0.48818654  1  0  0.609139  0  3.960973  0  0  0.559885  0  4.249309  0  0  0.593294  0  4.245474  0  1.511999  0  0.184438  0.537251  0  4.250898  0
C  C56  1  0.27571306  0.24779922  0.01234126  1  0  -0.083662  0  3.800568  0  0  -0.055922  0  4.032963  0  0  -0.066348  0  4.057613  0  -0.035738  0  -0.029111  -0.04913  0  4.01616  0
C  C57  1  0.77571582  0.75220092  0.48766154  1  0  -0.08368  0  3.80062  0  0  -0.055934  0  4.033044  0  0  -0.066351  0  4.057685  0  -0.035704  0  -0.029099  -0.049139  0  4.016239  0
C  C58  1  0.72427927  0.75219787  0.98765459  1  0  -0.083866  0  3.800808  0  0  -0.056111  0  4.033203  0  0  -0.066547  0  4.057874  0  -0.035912  0  -0.029175  -0.049315  0  4.016394  0
C  C59  1  0.22428201  0.24779922  0.51234126  1  0  -0.083753  0  3.800695  0  0  -0.056006  0  4.033105  0  0  -0.066434  0  4.057763  0  -0.035746  0  -0.029153  -0.049213  0  4.016303  0
C  C60  1  0.39994215  0.27899329  0.06247890  1  0  -0.040389  0  3.701071  0  0  -0.070622  0  3.950353  0  0  -0.067269  0  3.968698  0  -0.03345  0  -0.081648  -0.072738  0  3.938182  0
C  C61  1  0.89994162  0.72100279  0.43752154  1  0  -0.040429  0  3.700983  0  0  -0.070697  0  3.950257  0  0  -0.067356  0  3.96861  0  -0.033459  0  -0.081662  -0.072816  0  3.938095  0
C  C62  1  0.60005677  0.72099974  0.93751163  1  0  -0.040188  0  3.701135  0  0  -0.070451  0  3.950383  0  0  -0.067111  0  3.968745  0  -0.033312  0  -0.081572  -0.072571  0  3.938221  0
C  C63  1  0.10005401  0.27899634  0.56247815  1  0  -0.040318  0  3.70105  0  0  -0.070574  0  3.950289  0  0  -0.067233  0  3.968646  0  -0.033678  0  -0.081563  -0.07269  0  3.938119  0
C  C64  1  0.44382447  0.41364007  0.09125544  1  0  -0.084734  0  3.767638  0  0  -0.094413  0  4.022084  0  0  -0.099575  0  4.0443  0  -0.070996  0  -0.094459  -0.091038  0  4.006355  0
C  C65  1  0.94382063  0.58635195  0.40874797  1  0  -0.084759  0  3.767525  0  0  -0.094434  0  4.021955  0  0  -0.099606  0  4.044183  0  -0.071049  0  -0.094444  -0.091058  0  4.00622  0
C  C66  1  0.55617886  0.58635195  0.90873968  1  0  -0.084724  0  3.767816  0  0  -0.094432  0  4.022263  0  0  -0.099593  0  4.04448  0  -0.071117  0  -0.094426  -0.091055  0  4.006532  0
C  C67  1  0.05617939  0.41364617  0.59125454  1  0  -0.084851  0  3.767441  0  0  -0.094533  0  4.021892  0  0  -0.099701  0  4.044114  0  -0.070981  0  -0.094506  -0.091157  0  4.006164  0
C  C68  1  0.36848011  0.51722085  0.06686164  1  0  -0.054358  0  3.723336  0  0  -0.079159  0  3.96717  0  0  -0.076836  0  3.986702  0  0.04127  0  -0.077519  -0.080561  0  3.954543  0
C  C69  1  0.86847627  0.48277828  0.43314694  1  0  -0.054509  0  3.723503  0  0  -0.07932  0  3.967344  0  0  -0.076997  0  3.986878  0  0.041184  0  -0.077524  -0.080718  0  3.95471  0
C  C70  1  0.63151991  0.48277625  0.93313954  1  0  -0.054546  0  3.723374  0  0  -0.079354  0  3.967229  0  0  -0.077032  0  3.986762  0  0.041201  0  -0.077587  -0.080755  0  3.954601  0
C  C71  1  0.13152595  0.51722288  0.56685779  1  0  -0.054378  0  3.723307  0  0  -0.079191  0  3.967143  0  0  -0.076867  0  3.986672  0  0.041279  0  -0.077491  -0.080593  0  3.954516  0
C  C72  1  0.25093411  0.48564867  0.01184786  1  0  -0.064705  0  3.762215  0  0  -0.035815  0  3.989478  0  0  -0.045374  0  4.013184  0  -0.093195  0  -0.019509  -0.030526  0  3.973733  0
C  C73  1  0.75092367  0.51435046  0.48815361  1  0  -0.064441  0  3.762254  0  0  -0.035541  0  3.989501  0  0  -0.045097  0  4.013208  0  -0.093535  0  -0.019463  -0.030252  0  3.973753  0
C  C74  1  0.74906701  0.51434843  0.98815154  1  0  -0.064415  0  3.761951  0  0  -0.035524  0  3.989183  0  0  -0.045082  0  4.012888  0  -0.093116  0  -0.019426  -0.030235  0  3.973438  0
C  C75  1  0.24907305  0.48564765  0.51184475  1  0  -0.064668  0  3.762365  0  0  -0.035765  0  3.989602  0  0  -0.045322  0  4.013306  0  -0.093488  0  -0.01951  -0.030476  0  3.973857  0
C  C76  1  0.20286991  0.35126413  0.98654156  1  0  -0.075532  0  3.723551  0  0  -0.112381  0  3.97206  0  0  -0.109416  0  3.991254  0  -0.035759  0  -0.082881  -0.113264  0  3.958335  0
C  C77  1  0.70286387  0.64873399  0.51345680  1  0  -0.075671  0  3.723711  0  0  -0.112565  0  3.972218  0  0  -0.109603  0  3.991409  0  -0.035525  0  -0.082913  -0.113445  0  3.958496  0
C  C78  1  0.79712461  0.64873399  0.01345562  1  0  -0.07559  0  3.723327  0  0  -0.112459  0  3.971868  0  0  -0.10949  0  3.991062  0  -0.035882  0  -0.082916  -0.113336  0  3.958131  0
C  C79  1  0.29713065  0.35126108  0.48653994  1  0  -0.075595  0  3.723601  0  0  -0.112493  0  3.972133  0  0  -0.109528  0  3.991328  0  -0.03543  0  -0.082924  -0.113372  0  3.958406  0
C  C80  1  0.18314179  0.59269952  0.97598114  1  0  0.630246  0  3.948769  0  0  0.58198  0  4.23932  0  0  0.615995  0  4.234406  0  1.550747  0  0.191747  0.559983  0  4.239323  0
C  C81  1  0.68313245  0.40730165  0.52401886  1  0  0.630139  0  3.94901  0  0  0.581854  0  4.239589  0  0  0.615868  0  4.234679  0  1.551121  0  0.191755  0.559858  0  4.239589  0
C  C82  1  0.81686044  0.40730469  0.02401989  1  0  0.630029  0  3.949091  0  0  0.581793  0  4.239606  0  0  0.615807  0  4.234697  0  1.550812  0  0.191714  0.559795  0  4.239607  0
C  C83  1  0.31686647  0.59269545  0.47597996  1  0  0.630128  0  3.949119  0  0  0.581902  0  4.239606  0  0  0.615915  0  4.234694  0  1.551156  0  0.191768  0.559906  0  4.239607  0
C  C84  1  0.83139585  0.88609351  0.82125964  1  0  0.165284  0  3.650634  0  0  0.098993  0  3.926997  0  0  0.113343  0  3.939852  0  0.950771  0  0.1425  0.090124  0  3.917672  0
C  C85  1  0.33139749  0.11390663  0.67874021  1  0  0.165322  0  3.650564  0  0  0.099072  0  3.926877  0  0  0.113426  0  3.939734  0  0.95077  0  0.142535  0.090203  0  3.917549  0
C  C86  1  0.16860638  0.11390155  0.17874362  1  0  0.165227  0  3.650887  0  0  0.098916  0  3.927225  0  0  0.113258  0  3.940091  0  0.951017  0  0.142468  0.090047  0  3.917897  0
C  C87  1  0.66860584  0.88609351  0.32125668  1  0  0.165229  0  3.650779  0  0  0.098946  0  3.927079  0  0  0.11329  0  3.939942  0  0.950807  0  0.142487  0.090077  0  3.917752  0
C  C88  1  0.78624423  0.68616077  0.73547631  1  0  -0.068441  0  3.643452  0  0  -0.106567  0  3.900045  0  0  -0.106112  0  3.918979  0  0.263298  0  -0.001242  -0.106915  0  3.888463  0
C  C89  1  0.28623817  0.31384242  0.76451983  1  0  -0.068431  0  3.643391  0  0  -0.106543  0  3.900008  0  0  -0.106078  0  3.918936  0  0.26328  0  -0.001257  -0.106895  0  3.888431  0
C  C90  1  0.21375909  0.31384141  0.26452087  1  0  -0.068331  0  3.643257  0  0  -0.106427  0  3.899863  0  0  -0.105969  0  3.91879  0  0.263202  0  -0.00123  -0.106775  0  3.888285  0
C  C91  1  0.71375746  0.68615772  0.23547883  1  0  -0.068423  0  3.643281  0  0  -0.106603  0  3.89986  0  0  -0.106147  0  3.918794  0  0.263253  0  -0.0013  -0.106953  0  3.88828  0
C  C92  1  0.90096344  0.67427267  0.78614218  1  0  0.006264  0  3.742636  0  0  -0.025685  0  4.004636  0  0  -0.023847  0  4.025886  0  0.404874  0  -0.000886  -0.027021  0  3.990247  0
C  C93  1  0.40096068  0.32572951  0.71385558  1  0  0.006331  0  3.742439  0  0  -0.025614  0  4.004448  0  0  -0.023779  0  4.025696  0  0.404795  0  -0.000885  -0.026949  0  3.99006  0
C  C94  1  0.09903768  0.32572239  0.21385752  1  0  0.006252  0  3.742656  0  0  -0.025762  0  4.004653  0  0  -0.023926  0  4.025897  0  0.404896  0  -0.000912  -0.027098  0  3.990261  0
C  C95  1  0.59903825  0.67427267  0.28614692  1  0  0.006219  0  3.74255  0  0  -0.025775  0  4.004599  0  0  -0.023936  0  4.025853  0  0.404572  0  -0.000939  -0.027109  0  3.990209  0
C  C96  1  0.29119550  0.69740954  0.75829788  1  0  0.000533  0  3.750108  0  0  -0.030055  0  4.013627  0  0  -0.02882  0  4.034126  0  0.406759  0  -0.002285  -0.031131  0  4.000435  0
C  C97  1  0.79119386  0.30259467  0.74170492  1  0  0.000353  0  3.750136  0  0  -0.030269  0  4.013664  0  0  -0.029034  0  4.034164  0  0.406791  0  -0.002333  -0.031348  0  4.000466  0
C  C98  1  0.70880453  0.30259874  0.24170610  1  0  0.000253  0  3.750241  0  0  -0.030385  0  4.013759  0  0  -0.029152  0  4.034263  0  0.406759  0  -0.002396  -0.031464  0  4.00056  0
C  C99  1  0.20881057  0.69741157  0.25829581  1  0  0.00037  0  3.750109  0  0  -0.030243  0  4.013639  0  0  -0.029007  0  4.034138  0  0.40663  0  -0.002286  -0.03132  0  4.000444  0
C  C100  1  0.41118551  0.70998881  0.71140271  1  0  -0.046485  0  3.635131  0  0  -0.087211  0  3.89478  0  0  -0.084815  0  3.911926  0  0.276635  0  0.00746  -0.088793  0  3.884228  0
C  C101  1  0.91118387  0.29000930  0.78859980  1  0  -0.046381  0  3.634938  0  0  -0.087118  0  3.894582  0  0  -0.084724  0  3.911736  0  0.276588  0  0.007479  -0.088695  0  3.884027  0
C  C102  1  0.58881451  0.29001540  0.28860246  1  0  -0.04642  0  3.634845  0  0  -0.087089  0  3.894555  0  0  -0.084696  0  3.911712  0  0.276538  0  0.007397  -0.088671  0  3.884003  0
C  C103  1  0.08881505  0.70998373  0.21140198  1  0  -0.046445  0  3.634787  0  0  -0.087155  0  3.894445  0  0  -0.084759  0  3.911592  0  0.27671  0  0.007451  -0.088732  0  3.883887  0
C  C104  1  0.39976287  0.88562494  0.81940743  1  0  0.150147  0  3.674121  0  0  0.087676  0  3.951432  0  0  0.101102  0  3.964061  0  0.94954  0  0.138488  0.079212  0  3.942388  0
C  C105  1  0.89976013  0.11437927  0.68059300  1  0  0.15017  0  3.674007  0  0  0.087648  0  3.951343  0  0  0.101073  0  3.963972  0  0.949206  0  0.138477  0.07919  0  3.942294  0
C  C106  1  0.60023496  0.11438740  0.18059358  1  0  0.15014  0  3.674005  0  0  0.087661  0  3.951371  0  0  0.10109  0  3.963994  0  0.94909  0  0.138461  0.079201  0  3.942322  0
C  C107  1  0.10023549  0.88562189  0.31940640  1  0  0.150224  0  3.67407  0  0  0.087749  0  3.951408  0  0  0.101177  0  3.964034  0  0.949588  0  0.138512  0.079286  0  3.942363  0
C  C108  1  0.61737387  0.88153485  0.72720989  1  0  0.087448  0  3.615053  0  0  0.010225  0  3.864036  0  0  0.019346  0  3.872293  0  0.626522  0  0.06295  0.005336  0  3.857993  0
C  C109  1  0.11737331  0.11846631  0.77278832  1  0  0.0874  0  3.61517  0  0  0.010241  0  3.864106  0  0  0.01937  0  3.872357  0  0.626525  0  0.062973  0.005349  0  3.858068  0
C  C110  1  0.38263055  0.11846631  0.27279247  1  0  0.087511  0  3.615345  0  0  0.01037  0  3.864119  0  0  0.01949  0  3.872381  0  0.626518  0  0.062975  0.005488  0  3.858064  0
C  C111  1  0.88263221  0.88153485  0.22720811  1  0  0.087624  0  3.615109  0  0  0.010404  0  3.864002  0  0  0.019521  0  3.87227  0  0.626525  0  0.063017  0.00552  0  3.857947  0
N  N112  1  0.92847128  0.79933355  0.83870777  1  0  -0.38685  0  3.273178  0  0  -0.30952  0  3.556259  0  0  -0.331623  0  3.575076  0  -1.213741  0  -0.353979  -0.293669  0  3.541493  0
N  N113  1  0.42847072  0.20066863  0.66129118  1  0  -0.386879  0  3.273118  0  0  -0.309505  0  3.556139  0  0  -0.33161  0  3.574956  0  -1.213771  0  -0.353987  -0.293653  0  3.541373  0
N  N114  1  0.07153204  0.20066355  0.16129222  1  0  -0.386703  0  3.273031  0  0  -0.309341  0  3.556073  0  0  -0.331443  0  3.574893  0  -1.213939  0  -0.353917  -0.29349  0  3.541307  0
N  N115  1  0.57152931  0.79933355  0.33870955  1  0  -0.386681  0  3.273007  0  0  -0.309344  0  3.556075  0  0  -0.331448  0  3.574899  0  -1.21374  0  -0.353956  -0.293494  0  3.541308  0
N  N116  1  0.74316595  0.82138691  0.75867210  1  0  -0.087607  0  3.567686  0  0  0.001247  0  3.797946  0  0  -0.014111  0  3.823865  0  -1.223179  0  -0.24491  0.011021  0  3.780112  0
N  N117  1  0.24316319  0.17861527  0.74132626  1  0  -0.087635  0  3.567715  0  0  0.001154  0  3.798053  0  0  -0.014216  0  3.823973  0  -1.223152  0  -0.244908  0.01093  0  3.780218  0
N  N118  1  0.25683737  0.17861222  0.24132937  1  0  -0.087769  0  3.567728  0  0  0.001076  0  3.79797  0  0  -0.014283  0  3.82389  0  -1.223136  0  -0.244948  0.010849  0  3.780135  0
N  N119  1  0.75684013  0.82138183  0.25867137  1  0  -0.087834  0  3.567898  0  0  0.001063  0  3.798133  0  0  -0.014295  0  3.824052  0  -1.223157  0  -0.244934  0.010838  0  3.780297  0
N  N120  1  0.28500076  0.80742327  0.82513833  1  0  -0.38302  0  3.230877  0  0  -0.313192  0  3.514937  0  0  -0.333088  0  3.532617  0  -1.192851  0  -0.349759  -0.299126  0  3.50162  0
N  N121  1  0.78500022  0.19258298  0.67486358  1  0  -0.383009  0  3.230839  0  0  -0.31318  0  3.51494  0  0  -0.333073  0  3.532615  0  -1.192516  0  -0.349772  -0.299115  0  3.501621  0
N  N122  1  0.71499816  0.19258704  0.17486535  1  0  -0.382883  0  3.230824  0  0  -0.313031  0  3.514874  0  0  -0.332925  0  3.532553  0  -1.192161  0  -0.349687  -0.298964  0  3.501552  0
N  N123  1  0.21499760  0.80742124  0.32513863  1  0  -0.383018  0  3.23089  0  0  -0.31319  0  3.514966  0  0  -0.333085  0  3.532643  0  -1.192787  0  -0.349786  -0.299124  0  3.501649  0
N  N124  1  0.47902623  0.83030603  0.75080986  1  0  -0.088639  0  3.57314  0  0  -0.000151  0  3.803273  0  0  -0.015473  0  3.828932  0  -1.233237  0  -0.24564  0.009644  0  3.786222  0
N  N125  1  0.97902569  0.16969513  0.74918953  1  0  -0.088579  0  3.573069  0  0  -8.5e-05  0  3.803201  0  0  -0.015409  0  3.828861  0  -1.233275  0  -0.245634  0.009708  0  3.786151  0
N  N126  1  0.52097489  0.16969919  0.24919308  1  0  -0.088705  0  3.573251  0  0  -0.00024  0  3.803369  0  0  -0.015564  0  3.829028  0  -1.233289  0  -0.245638  0.009553  0  3.786319  0
N  N127  1  0.02097763  0.83030400  0.25080779  1  0  -0.088735  0  3.573218  0  0  -0.000254  0  3.803377  0  0  -0.015576  0  3.829037  0  -1.233346  0  -0.245702  0.00954  0  3.786323  0
O  O128  1  0.09226989  0.08380217  0.95423785  1  0  -0.685626  0  2.006427  0  0  -0.610778  0  2.25892  0  0  -0.640455  0  2.247721  0  -1.176487  0  -0.342666  -0.589373  0  2.265873  0
O  O129  1  0.59228475  0.91620407  0.54576228  1  0  -0.685827  0  2.00594  0  0  -0.610971  0  2.258453  0  0  -0.640641  0  2.247249  0  -1.176351  0  -0.342817  -0.589588  0  2.265465  0
O  O130  1  0.90770703  0.91620407  0.04576465  1  0  -0.685896  0  2.005929  0  0  -0.611071  0  2.258465  0  0  -0.640735  0  2.247254  0  -1.176176  0  -0.342882  -0.58973  0  2.265571  0
O  O131  1  0.40771747  0.08379302  0.45423298  1  0  -0.685648  0  2.006317  0  0  -0.610788  0  2.258803  0  0  -0.640459  0  2.247601  0  -1.176398  0  -0.342725  -0.589412  0  2.265824  0
O  O132  1  0.29885202  0.00939989  0.00153183  1  0  -0.607395  0  1.934974  0  0  -0.552467  0  2.166764  0  0  -0.578159  0  2.158007  0  -1.159789  0  -0.322592  -0.533566  0  2.172741  0
O  O133  1  0.79887238  0.99059822  0.49846594  1  0  -0.607535  0  1.934715  0  0  -0.552591  0  2.16646  0  0  -0.578295  0  2.15773  0  -1.159013  0  -0.32259  -0.533687  0  2.172443  0
O  O134  1  0.70112600  0.99060432  0.99846505  1  0  -0.607646  0  1.934588  0  0  -0.552714  0  2.166324  0  0  -0.578423  0  2.157597  0  -1.159059  0  -0.322692  -0.533808  0  2.172312  0
O  O135  1  0.20113974  0.00939786  0.50153450  1  0  -0.607492  0  1.934897  0  0  -0.552571  0  2.166695  0  0  -0.578267  0  2.157944  0  -1.159624  0  -0.32262  -0.533667  0  2.172678  0
O  O136  1  0.12513323  0.55842365  0.90578563  1  0  -0.651445  0  1.903447  0  0  -0.59705  0  2.133806  0  0  -0.623002  0  2.126379  0  -1.190221  0  -0.336203  -0.578699  0  2.136671  0
O  O137  1  0.62512829  0.44158056  0.59421540  1  0  -0.651444  0  1.903556  0  0  -0.597045  0  2.133913  0  0  -0.622997  0  2.126487  0  -1.19058  0  -0.336229  -0.578693  0  2.136775  0
O  O138  1  0.87487009  0.44158463  0.09421539  1  0  -0.65137  0  1.903575  0  0  -0.59701  0  2.133955  0  0  -0.622961  0  2.12653  0  -1.19028  0  -0.336229  -0.578658  0  2.13682  0
O  O139  1  0.37487063  0.55841755  0.40578356  1  0  -0.651441  0  1.903603  0  0  -0.597052  0  2.133917  0  0  -0.623004  0  2.126488  0  -1.190631  0  -0.336237  -0.578701  0  2.136781  0
O  O140  1  0.19213141  0.71606703  0.01851945  1  0  -0.640205  0  1.982859  0  0  -0.572654  0  2.229116  0  0  -0.602623  0  2.218976  0  -1.14237  0  -0.340633  -0.551027  0  2.235082  0
O  O141  1  0.69213198  0.28393515  0.48148069  1  0  -0.640122  0  1.982857  0  0  -0.572563  0  2.229103  0  0  -0.602526  0  2.218962  0  -1.142318  0  -0.340577  -0.550938  0  2.235069  0
O  O142  1  0.80786971  0.28393820  0.98148054  1  0  -0.640101  0  1.982915  0  0  -0.57256  0  2.229138  0  0  -0.602526  0  2.219004  0  -1.142239  0  -0.340566  -0.550937  0  2.235106  0
O  O143  1  0.30787355  0.71606296  0.51851945  1  0  -0.640114  0  1.982846  0  0  -0.572579  0  2.229069  0  0  -0.602543  0  2.218928  0  -1.142295  0  -0.340611  -0.550953  0  2.235035  0
