# generated using pymatgen
data_NiH8C4O7
_symmetry_space_group_name_H-M   'P 1'
_cell_length_a   5.73145227
_cell_length_b   8.58564651
_cell_length_c   8.81399013
_cell_angle_alpha   89.99997730
_cell_angle_beta   89.99916823
_cell_angle_gamma   117.28309786
_symmetry_Int_Tables_number   1
_chemical_formula_structural   NiH8C4O7
_chemical_formula_sum   'Ni2 H16 C8 O14'
_cell_volume   385.47043712
_cell_formula_units_Z   2
loop_
 _symmetry_equiv_pos_site_id
 _symmetry_equiv_pos_as_xyz
  1  'x, y, z'
loop_
 _atom_site_type_symbol
 _atom_site_label
 _atom_site_symmetry_multiplicity
 _atom_site_fract_x
 _atom_site_fract_y
 _atom_site_fract_z
 _atom_site_occupancy
 _atom_site_hle17_ddec_charge
 _atom_site_hle17_ddec_spin_density
 _atom_site_hle17_ddec_sum_bond_order
 _atom_site_hle17_magmom
 _atom_site_hse06_10hf_ddec_charge
 _atom_site_hse06_10hf_ddec_spin_density
 _atom_site_hse06_10hf_ddec_sum_bond_order
 _atom_site_hse06_10hf_magmom
 _atom_site_hse06_ddec_charge
 _atom_site_hse06_ddec_spin_density
 _atom_site_hse06_ddec_sum_bond_order
 _atom_site_hse06_magmom
 _atom_site_pbe_cm5_charge
 _atom_site_pbe_ddec_charge
 _atom_site_pbe_ddec_spin_density
 _atom_site_pbe_ddec_sum_bond_order
 _atom_site_pbe_magmom
Ni  Ni0  1  0.95183565  0.64437769  0.14909479  1  0.993088  1.769379  1.877657  1.545  1.007165  1.831667  2.263286  1.665  1.085531  1.877712  2.199818  1.741  0.619076  0.935111  1.787724  2.327296  1.595
Ni  Ni1  1  0.04817059  0.35562421  0.64909374  1  0.993141  1.769376  1.87761  1.545  1.007195  1.831658  2.263238  1.665  1.085578  1.877696  2.199763  1.741  0.619093  0.935131  1.787723  2.327291  1.595
H  H2  1  0.32651311  0.08739005  0.35173708  1  0.082216  0.001483  0.881808  0.002  0.093878  0.001063  0.93164  0.001  0.095939  0.000707  0.930037  0.001  0.121639  0.092382  0.001385  0.933086  0.002
H  H3  1  0.67348881  0.91261028  0.85173213  1  0.082204  0.001484  0.881762  0.002  0.093898  0.001062  0.931614  0.001  0.095958  0.000707  0.930013  0.001  0.121666  0.09241  0.001385  0.933058  0.002
H  H4  1  0.87891169  0.91131396  0.26542926  1  0.382888  -0.00018  0.903533  0.0  0.356754  0.00017  0.976595  0.0  0.368919  2.5e-05  0.963955  0.0  0.301038  0.348081  0.000318  0.985222  0.0
H  H5  1  0.12109200  0.08869202  0.76542800  1  0.382802  -0.000181  0.903693  0.0  0.356684  0.00017  0.976719  0.0  0.36885  2.4e-05  0.964076  0.0  0.301005  0.348009  0.000318  0.985349  0.0
H  H6  1  0.26970666  0.91452614  0.57660647  1  0.122712  -0.000344  0.950501  0.0  0.133919  4.6e-05  1.012723  0.0  0.136639  -5e-06  1.01178  0.0  0.105298  0.131737  6.2e-05  1.013976  0.0
H  H7  1  0.73026512  0.08547351  0.07659891  1  0.122616  -0.000336  0.950514  0.0  0.133871  4.6e-05  1.012749  0.0  0.136594  -5e-06  1.011792  0.0  0.105273  0.131687  6.2e-05  1.014002  0.0
H  H8  1  0.95309056  0.87870424  0.52173060  1  0.146616  -0.000404  0.91175  0.0  0.159259  -0.000113  0.967751  0.0  0.163152  -0.000123  0.965169  0.0  0.114539  0.156105  -8e-05  0.970349  0.0
H  H9  1  0.04688460  0.12128603  0.02173788  1  0.146468  -0.000399  0.911912  0.0  0.15917  -0.000113  0.967888  0.0  0.163064  -0.000123  0.965302  0.0  0.114493  0.156016  -8e-05  0.970485  0.0
H  H10  1  0.52535508  0.53917320  0.00092315  1  0.433315  -0.00108  0.808147  -0.001  0.417551  -0.000324  0.862283  0.0  0.426591  -0.00039  0.852767  0.0  0.320901  0.410599  -0.000268  0.869347  0.0
H  H11  1  0.47462114  0.46079857  0.50089563  1  0.433199  -0.001081  0.808068  -0.001  0.4174  -0.000324  0.862287  0.0  0.42644  -0.000389  0.852775  0.0  0.320818  0.410442  -0.000268  0.869349  0.0
H  H12  1  0.48555860  0.63157211  0.14395836  1  0.425976  -7.5e-05  0.876758  0.0  0.396945  0.00032  0.937906  0.0  0.408941  0.000103  0.920565  0.0  0.295314  0.388204  0.000538  0.950395  0.001
H  H13  1  0.51444526  0.36842839  0.64394425  1  0.425905  -8e-05  0.876863  0.0  0.39694  0.000319  0.93792  0.0  0.408936  0.000103  0.920577  0.0  0.295312  0.3882  0.000538  0.950408  0.001
H  H14  1  0.14508756  0.83267612  0.90136803  1  0.425852  -0.00014  0.8736  0.0  0.396262  0.000437  0.935794  0.0  0.407596  0.000215  0.919547  0.0  0.293556  0.387841  0.000607  0.947855  0.001
H  H15  1  0.85491905  0.16732552  0.40136383  1  0.425808  -0.000143  0.873621  0.0  0.396198  0.000437  0.935855  0.0  0.407532  0.000214  0.919609  0.0  0.293535  0.387778  0.000607  0.947915  0.001
H  H16  1  0.05695647  0.62916495  0.87702998  1  0.42639  -0.000861  0.8705  -0.001  0.396691  -0.000176  0.936916  0.0  0.408638  -0.000351  0.919501  0.0  0.294268  0.387529  -0.000172  0.950255  0.0
H  H17  1  0.94305299  0.37084080  0.37702812  1  0.426386  -0.000862  0.870523  -0.001  0.396696  -0.000176  0.93691  0.0  0.408644  -0.000351  0.919495  0.0  0.294293  0.387537  -0.000172  0.950246  0.0
C  C18  1  0.43175073  0.88617247  0.28283874  1  0.648064  -0.005201  3.813511  -0.004  0.595208  -0.000798  4.12395  -0.001  0.62875  -0.000902  4.117445  -0.001  0.224781  0.571658  -0.000833  4.127614  -0.001
C  C19  1  0.56828048  0.11384304  0.78282569  1  0.647747  -0.005221  3.813789  -0.004  0.595185  -0.000801  4.123841  -0.001  0.628728  -0.000904  4.117334  -0.001  0.224815  0.571643  -0.000834  4.127502  -0.001
C  C20  1  0.23011062  0.94407170  0.33657004  1  0.132431  0.00021  3.609147  0.0  0.106538  0.001122  3.872921  0.001  0.109684  0.000458  3.880199  0.0  0.001572  0.104147  0.001783  3.86739  0.001
C  C21  1  0.76988950  0.05593107  0.83656785  1  0.13266  0.000212  3.608894  0.0  0.106565  0.001125  3.872905  0.001  0.109711  0.000462  3.880177  0.0  0.001559  0.104165  0.001784  3.867376  0.001
C  C22  1  0.11909828  0.85447452  0.48942984  1  -0.330585  0.005367  3.633674  0.008  -0.376042  0.002687  3.883542  0.004  -0.383581  0.001623  3.889029  0.003  -0.167365  -0.370611  0.003837  3.880591  0.005
C  C23  1  0.88088888  0.14552132  0.98942997  1  -0.330308  0.005363  3.633444  0.008  -0.37593  0.002686  3.883504  0.004  -0.383459  0.001621  3.888988  0.003  -0.167314  -0.370494  0.003838  3.880547  0.005
C  C24  1  0.03001170  0.65825771  0.48985356  1  0.711305  -0.012926  3.798038  -0.01  0.67332  -0.001845  4.10203  -0.001  0.711114  -0.001679  4.094272  -0.001  0.217219  0.645227  -0.001219  4.106127  -0.001
C  C25  1  0.96998996  0.34174550  0.98985604  1  0.711394  -0.012956  3.798214  -0.01  0.67344  -0.001844  4.102198  -0.001  0.711227  -0.001678  4.094445  -0.001  0.217236  0.645347  -0.001218  4.106298  -0.001
O  O26  1  0.66053379  0.95822636  0.33857523  1  -0.598087  0.003619  2.021315  0.006  -0.537419  0.002523  2.23621  0.004  -0.563315  0.001447  2.226494  0.002  -0.291837  -0.519877  0.003652  2.243631  0.006
O  O27  1  0.33944344  0.04176339  0.83857786  1  -0.598095  0.003624  2.020706  0.006  -0.53755  0.002526  2.235485  0.004  -0.563454  0.001449  2.22577  0.002  -0.291885  -0.520001  0.003655  2.242904  0.006
O  O28  1  0.35166563  0.75997722  0.18764619  1  -0.610319  0.039102  2.119736  0.068  -0.570011  0.026716  2.376216  0.047  -0.604796  0.020078  2.365149  0.038  -0.296311  -0.542539  0.032678  2.383298  0.055
O  O29  1  0.64833803  0.24002175  0.68765383  1  -0.610155  0.039087  2.120462  0.068  -0.569937  0.026709  2.376813  0.047  -0.604711  0.020074  2.365733  0.038  -0.296308  -0.542473  0.032667  2.383904  0.055
O  O30  1  0.03053219  0.89499062  0.22215055  1  -0.56014  0.030581  2.182237  0.054  -0.525292  0.022935  2.435862  0.04  -0.550217  0.017499  2.422572  0.033  -0.385992  -0.504568  0.027874  2.444647  0.046
O  O31  1  0.96948310  0.10501529  0.72215113  1  -0.560188  0.030585  2.182247  0.054  -0.525282  0.022936  2.435908  0.04  -0.550213  0.017502  2.422616  0.033  -0.386011  -0.504551  0.027874  2.444708  0.046
O  O32  1  0.09276510  0.59875376  0.60590293  1  -0.580696  0.058445  2.054627  0.099  -0.556453  0.035221  2.319616  0.061  -0.59248  0.025595  2.308251  0.047  -0.304486  -0.526856  0.044769  2.327554  0.075
O  O33  1  0.90724034  0.40124460  0.10589679  1  -0.58075  0.058438  2.054931  0.099  -0.556497  0.035215  2.319923  0.061  -0.59251  0.025591  2.308537  0.047  -0.304484  -0.526903  0.044762  2.327853  0.075
O  O34  1  0.89901704  0.56344799  0.37700774  1  -0.651948  0.034458  2.059636  0.061  -0.615839  0.022412  2.313592  0.04  -0.650241  0.016187  2.300311  0.031  -0.313409  -0.587251  0.028915  2.322159  0.049
O  O35  1  0.10099553  0.43655052  0.87700839  1  -0.652049  0.034473  2.05964  0.061  -0.615925  0.022416  2.313567  0.04  -0.650332  0.016191  2.300292  0.031  -0.313409  -0.587334  0.02892  2.322145  0.049
O  O36  1  0.55521198  0.54944595  0.11047159  1  -0.783248  0.035609  1.90279  0.062  -0.758454  0.02568  2.098587  0.044  -0.784157  0.019394  2.067076  0.036  -0.569245  -0.737186  0.031218  2.121895  0.051
O  O37  1  0.44478684  0.45054687  0.61045000  1  -0.783041  0.035615  1.902803  0.062  -0.758271  0.025681  2.098559  0.044  -0.783979  0.019395  2.067047  0.036  -0.569126  -0.73699  0.031219  2.121867  0.051
O  O38  1  0.00300028  0.71327912  0.92359702  1  -0.8158  0.042984  1.933095  0.074  -0.793939  0.030266  2.134285  0.052  -0.822679  0.022414  2.098281  0.042  -0.580567  -0.769697  0.037217  2.161276  0.061
O  O39  1  0.99700621  0.28672985  0.42359597  1  -0.815775  0.042978  1.933155  0.074  -0.79389  0.030264  2.134306  0.052  -0.822633  0.022414  2.098306  0.042  -0.58055  -0.769652  0.037213  2.161289  0.061
