# generated using pymatgen
data_Mn2H21C27NO10
_symmetry_space_group_name_H-M   'P 1'
_cell_length_a   12.54419265
_cell_length_b   14.49037303
_cell_length_c   16.03581609
_cell_angle_alpha   90.00018900
_cell_angle_beta   97.38731677
_cell_angle_gamma   89.99934540
_symmetry_Int_Tables_number   1
_chemical_formula_structural   Mn2H21C27NO10
_chemical_formula_sum   'Mn8 H84 C108 N4 O40'
_cell_volume   2890.63666653
_cell_formula_units_Z   4
loop_
 _symmetry_equiv_pos_site_id
 _symmetry_equiv_pos_as_xyz
  1  'x, y, z'
loop_
 _atom_site_type_symbol
 _atom_site_label
 _atom_site_symmetry_multiplicity
 _atom_site_fract_x
 _atom_site_fract_y
 _atom_site_fract_z
 _atom_site_occupancy
 _atom_site_pbe_bader_charge
 _atom_site_pbe_bader_spin_density
 _atom_site_pbe_cm5_charge
 _atom_site_pbe_ddec_charge
 _atom_site_pbe_ddec_spin_density
 _atom_site_pbe_ddec_sum_bond_order
 _atom_site_pbe_magmom
Mn  Mn0  1  0.97728983  0.23902389  0.96662562  1  1.510475  4.523225  0.612704  1.014068  4.627017  2.368261  4.439
Mn  Mn1  1  0.52270999  0.73901869  0.53337266  1  1.510375  4.52322  0.612738  1.014097  4.627005  2.368304  4.439
Mn  Mn2  1  0.02270940  0.76098519  0.03337370  1  1.510213  4.523251  0.612721  1.014003  4.627002  2.368448  4.439
Mn  Mn3  1  0.47729729  0.26097796  0.46662626  1  1.510331  4.52323  0.61271  1.014087  4.627041  2.368223  4.439
Mn  Mn4  1  0.50000280  0.50000005  0.50000436  1  1.5696  4.535807  0.622103  1.087848  4.674267  2.342039  4.479
Mn  Mn5  1  0.99999989  0.00000197  0.00000125  1  1.569598  4.535829  0.622122  1.087888  4.674294  2.341741  4.479
Mn  Mn6  1  0.00000177  0.50000480  0.99999943  1  1.554491  4.594885  0.594776  1.099862  4.730568  2.204696  4.523
Mn  Mn7  1  0.49999238  0.99999477  0.49999780  1  1.554388  4.594898  0.594825  1.099891  4.730542  2.204925  4.523
H  H8  1  0.62479610  0.49410533  0.96674067  1  0.088522  0.000259  0.104167  0.102174  1.8e-05  1.013179  0.0
H  H9  1  0.87519406  0.99409804  0.53324865  1  0.088194  0.000259  0.104168  0.102201  1.8e-05  1.013056  0.0
H  H10  1  0.37520633  0.50590099  0.03326335  1  0.088527  0.000259  0.104203  0.102305  1.8e-05  1.012983  0.0
H  H11  1  0.12480286  0.00589448  0.46673733  1  0.08855  0.000259  0.104176  0.10219  1.8e-05  1.013097  0.0
H  H12  1  0.43475833  0.48723883  0.90045802  1  0.063675  0.00012  0.102085  0.101338  5.5e-05  1.014823  0.0
H  H13  1  0.06523279  0.98723483  0.59953386  1  0.063654  0.00012  0.102072  0.10139  5.5e-05  1.01492  0.0
H  H14  1  0.56524650  0.51277232  0.09954625  1  0.063771  0.00012  0.102048  0.101301  5.5e-05  1.014885  0.0
H  H15  1  0.93476251  0.01276390  0.40045258  1  0.063736  0.00012  0.10207  0.101426  5.5e-05  1.014877  0.0
H  H16  1  0.52158195  0.28350144  0.72514454  1  0.088523  0.000692  0.10099  0.102228  5.8e-05  1.037719  0.0
H  H17  1  0.97841727  0.78351125  0.77485817  1  0.088632  0.000692  0.101019  0.102292  5.8e-05  1.037604  0.0
H  H18  1  0.47841647  0.71650971  0.27485656  1  0.088349  0.000692  0.100988  0.102203  5.8e-05  1.037689  0.0
H  H19  1  0.02158836  0.21650473  0.22514743  1  0.088506  0.000692  0.100963  0.102195  5.8e-05  1.037658  0.0
H  H20  1  0.71057519  0.29036243  0.79306941  1  0.047228  0.00031  0.103553  0.100839  -2.4e-05  1.031165  0.0
H  H21  1  0.78942475  0.79036212  0.70693277  1  0.047191  0.00031  0.103565  0.100841  -2.4e-05  1.031149  0.0
H  H22  1  0.28942328  0.70964941  0.20692484  1  0.047127  0.00031  0.103639  0.101045  -2.4e-05  1.030989  0.0
H  H23  1  0.21058004  0.20964558  0.29307710  1  0.047223  0.00031  0.103583  0.100836  -2.4e-05  1.031134  0.0
H  H24  1  0.28924111  0.39008054  0.89031200  1  0.040075  0.000269  0.103716  0.105559  -0.000101  1.014496  0.0
H  H25  1  0.21075605  0.89008825  0.60968769  1  0.040046  0.000269  0.10377  0.105668  -0.000101  1.014345  0.0
H  H26  1  0.71075090  0.60992716  0.10968656  1  0.040159  0.000268  0.103729  0.105571  -0.000101  1.014561  0.0
H  H27  1  0.78924318  0.10991393  0.39031349  1  0.040151  0.000268  0.103759  0.10567  -0.000101  1.014381  0.0
H  H28  1  0.18815361  0.34265659  0.58555190  1  0.097058  0.000275  0.102455  0.10424  7.2e-05  1.024868  0.0
H  H29  1  0.31183934  0.84265888  0.91444659  1  0.097071  0.000275  0.102497  0.104261  7.2e-05  1.024872  0.0
H  H30  1  0.81185366  0.65732972  0.41444889  1  0.096974  0.000275  0.102529  0.104274  7.2e-05  1.024813  0.0
H  H31  1  0.68815507  0.15733709  0.08555285  1  0.09712  0.000275  0.102492  0.104254  7.2e-05  1.024867  0.0
H  H32  1  0.95459641  0.43938700  0.75537931  1  0.073375  0.000341  0.10609  0.108002  -0.000131  1.020887  0.0
H  H33  1  0.54540405  0.93938026  0.74461840  1  0.073475  0.000341  0.106114  0.108091  -0.000132  1.020866  0.0
H  H34  1  0.04541331  0.56061035  0.24461674  1  0.073305  0.000341  0.106085  0.108068  -0.000131  1.020874  0.0
H  H35  1  0.45459200  0.06060880  0.25537809  1  0.07334  0.000341  0.106052  0.107999  -0.000132  1.020838  0.0
H  H36  1  0.76581421  0.43170822  0.68764307  1  0.078209  0.000263  0.10142  0.09292  -3e-05  1.046543  0.0
H  H37  1  0.73418554  0.93169918  0.81235392  1  0.07833  0.000263  0.101363  0.092874  -3e-05  1.046651  0.0
H  H38  1  0.23419225  0.56829051  0.31235825  1  0.078457  0.000263  0.101447  0.09296  -3e-05  1.046607  0.0
H  H39  1  0.26581051  0.06829264  0.18764070  1  0.078512  0.000263  0.101403  0.092914  -3e-05  1.046599  0.0
H  H40  1  0.85627130  0.24293522  0.50279758  1  0.093589  0.00022  0.104693  0.106167  -9e-06  1.00215  0.0
H  H41  1  0.64372036  0.74294361  0.99720983  1  0.093552  0.00022  0.10475  0.106243  -9e-06  1.001964  0.0
H  H42  1  0.14372067  0.75705592  0.49720596  1  0.093608  0.00022  0.104741  0.106247  -9e-06  1.002018  0.0
H  H43  1  0.35627803  0.25705512  0.00279439  1  0.093593  0.00022  0.104735  0.106248  -9e-06  1.002072  0.0
H  H44  1  0.04528256  0.24930701  0.56955443  1  0.101489  0.000118  0.10257  0.103987  5e-05  1.002705  0.0
H  H45  1  0.45471074  0.74931900  0.93045129  1  0.10141  0.000118  0.102463  0.103829  5e-05  1.002846  0.0
H  H46  1  0.95471428  0.75068343  0.43044152  1  0.101402  0.000118  0.10249  0.10383  5e-05  1.002859  0.0
H  H47  1  0.54528764  0.25068111  0.06955605  1  0.101352  0.000118  0.102462  0.103806  5e-05  1.002889  0.0
H  H48  1  0.64459364  0.15613354  0.73966580  1  0.045216  0.001434  0.105237  0.084155  0.00057  1.011889  0.001
H  H49  1  0.85540563  0.65613554  0.76033590  1  0.045113  0.001434  0.105265  0.084153  0.00057  1.011851  0.001
H  H50  1  0.35540637  0.84387002  0.26033921  1  0.04517  0.001434  0.105259  0.084142  0.00057  1.011889  0.001
H  H51  1  0.14459927  0.34386940  0.23965965  1  0.045225  0.001434  0.105284  0.084199  0.00057  1.011916  0.001
H  H52  1  0.67575395  0.03798389  0.73222060  1  0.056179  0.001792  0.105812  0.086723  0.000839  1.009398  0.001
H  H53  1  0.82424687  0.53798485  0.76777778  1  0.056298  0.001792  0.105827  0.086743  0.000839  1.009382  0.001
H  H54  1  0.32424765  0.96202036  0.26778582  1  0.05611  0.001792  0.105795  0.086676  0.000839  1.009364  0.001
H  H55  1  0.17576365  0.46202009  0.23221898  1  0.056179  0.001792  0.105808  0.086744  0.000839  1.009325  0.001
H  H56  1  0.80441252  0.20332399  0.68584417  1  0.07083  0.000147  0.088795  0.085538  1.1e-05  1.045477  0.0
H  H57  1  0.69558613  0.70332499  0.81415824  1  0.070818  0.000147  0.088774  0.085507  1.1e-05  1.045485  0.0
H  H58  1  0.19559072  0.79667681  0.31415869  1  0.070856  0.000147  0.08873  0.085395  1.1e-05  1.045579  0.0
H  H59  1  0.30441874  0.29667443  0.18584042  1  0.070803  0.000147  0.088747  0.085436  1.1e-05  1.045561  0.0
H  H60  1  0.79656658  0.09245654  0.63928563  1  0.06653  0.000258  0.095799  0.102795  -9.7e-05  1.016389  0.0
H  H61  1  0.70343594  0.59245557  0.86071435  1  0.06653  0.000258  0.095802  0.102794  -9.7e-05  1.016411  0.0
H  H62  1  0.20343664  0.90754288  0.36071972  1  0.066416  0.000258  0.095795  0.102806  -9.7e-05  1.016322  0.0
H  H63  1  0.29657376  0.40754385  0.13928482  1  0.066464  0.000258  0.095843  0.102851  -9.7e-05  1.016415  0.0
H  H64  1  0.93584242  0.03445754  0.74894935  1  0.094391  0.001407  0.103879  0.125595  0.000709  1.009229  0.001
H  H65  1  0.56415280  0.53446307  0.75105155  1  0.094531  0.001407  0.103866  0.125584  0.00071  1.009185  0.001
H  H66  1  0.06415434  0.96554188  0.25105906  1  0.094414  0.001407  0.103841  0.125573  0.000709  1.009187  0.001
H  H67  1  0.43584964  0.46553704  0.24894997  1  0.094482  0.001407  0.103856  0.125584  0.000709  1.00922  0.001
H  H68  1  0.97270002  0.15251990  0.75715771  1  0.105578  0.000661  0.112816  0.145155  -3.7e-05  0.97268  0.0
H  H69  1  0.52730172  0.65252576  0.74284175  1  0.105555  0.000661  0.112823  0.145123  -3.6e-05  0.972747  0.0
H  H70  1  0.02730400  0.84748021  0.24284835  1  0.105496  0.000661  0.112779  0.145085  -3.7e-05  0.972822  0.0
H  H71  1  0.47270557  0.34747435  0.25715654  1  0.105422  0.000661  0.112821  0.145104  -3.6e-05  0.97285  0.0
H  H72  1  0.73121915  0.05573995  0.95341288  1  0.128057  0.001169  0.113434  0.135295  0.000122  1.003732  0.001
H  H73  1  0.76878302  0.55573858  0.54658820  1  0.12807  0.001169  0.113395  0.135194  0.000122  1.003769  0.001
H  H74  1  0.26878004  0.94426637  0.04659205  1  0.1279  0.001169  0.113395  0.13521  0.000122  1.003693  0.001
H  H75  1  0.23122106  0.44426084  0.45340913  1  0.127991  0.001169  0.113402  0.135237  0.000122  1.003736  0.001
H  H76  1  0.61573567  0.09588084  0.88621648  1  0.055767  9.2e-05  0.113042  0.132745  8e-05  0.976081  0.0
H  H77  1  0.88426437  0.59587995  0.61378575  1  0.055762  9.2e-05  0.113038  0.132734  8e-05  0.976027  0.0
H  H78  1  0.38426433  0.90411789  0.11378853  1  0.055745  9.2e-05  0.113053  0.13273  8e-05  0.976051  0.0
H  H79  1  0.11573890  0.40411947  0.38621212  1  0.055811  9.2e-05  0.113047  0.132763  8e-05  0.976002  0.0
H  H80  1  0.70920768  0.17751467  0.93825213  1  0.082638  0.001745  0.108034  0.125764  0.000639  1.017411  0.001
H  H81  1  0.79079616  0.67751314  0.56174638  1  0.08243  0.001745  0.108055  0.125751  0.000639  1.017383  0.001
H  H82  1  0.29078750  0.82248958  0.06175238  1  0.082758  0.001745  0.10797  0.125612  0.000639  1.017658  0.001
H  H83  1  0.20920872  0.32248628  0.43825104  1  0.082427  0.001745  0.10801  0.125707  0.000639  1.017438  0.001
H  H84  1  0.96886430  0.33675072  0.10475740  1  0.647534  0.001777  0.31609  0.403797  0.001564  0.908443  0.002
H  H85  1  0.53113328  0.83674605  0.39524185  1  0.647601  0.001777  0.316064  0.403796  0.001564  0.908446  0.002
H  H86  1  0.03113656  0.66325077  0.89523960  1  0.647588  0.001776  0.31608  0.40378  0.001563  0.908453  0.002
H  H87  1  0.46887238  0.16325130  0.60476001  1  0.647681  0.001776  0.316018  0.403689  0.001565  0.908638  0.002
H  H88  1  0.08632121  0.33996613  0.08272148  1  0.623525  0.001043  0.311029  0.396842  0.001547  0.928621  0.001
H  H89  1  0.41367481  0.83995707  0.41727823  1  0.62348  0.001047  0.310996  0.396853  0.001546  0.928597  0.001
H  H90  1  0.91368044  0.66003467  0.91727747  1  0.62371  0.001045  0.311003  0.39684  0.001548  0.92863  0.001
H  H91  1  0.58632925  0.16003337  0.58272222  1  0.623605  0.001042  0.311032  0.396886  0.001547  0.928557  0.001
C  C92  1  0.79364080  0.38997805  0.92589268  1  1.590605  0.018685  0.22868  0.605514  0.01807  4.18624  0.017
C  C93  1  0.70635225  0.88997533  0.57410597  1  1.590892  0.018684  0.228661  0.605322  0.018073  4.186276  0.017
C  C94  1  0.20636088  0.61003172  0.07410253  1  1.590233  0.018694  0.228553  0.605194  0.018078  4.186219  0.017
C  C95  1  0.29364133  0.11001788  0.42589774  1  1.590448  0.01869  0.22876  0.605576  0.018075  4.185921  0.017
C  C96  1  0.67953525  0.39170796  0.88453106  1  0.002725  0.004506  -0.017679  -0.036352  0.002947  3.979579  0.003
C  C97  1  0.82045618  0.89170564  0.61546431  1  0.002756  0.004506  -0.017687  -0.036377  0.002947  3.979657  0.003
C  C98  1  0.32046482  0.60830595  0.11546398  1  0.00171  0.004505  -0.017757  -0.036313  0.002947  3.979489  0.003
C  C99  1  0.17954225  0.10829585  0.38453492  1  0.002728  0.004505  -0.017649  -0.036287  0.002947  3.979624  0.003
C  C100  1  0.60124961  0.44736881  0.91426072  1  -0.134442  0.004207  -0.08602  -0.102946  0.003126  4.003474  0.002
C  C101  1  0.89874031  0.94736630  0.58573279  1  -0.134618  0.004207  -0.08598  -0.102932  0.003127  4.003261  0.002
C  C102  1  0.39875205  0.55264511  0.08573698  1  -0.134243  0.004208  -0.085968  -0.103031  0.003127  4.003523  0.002
C  C103  1  0.10125576  0.05263381  0.41425996  1  -0.134793  0.004207  -0.086009  -0.102968  0.003127  4.003453  0.002
C  C104  1  0.49462514  0.44286834  0.87713821  1  -0.00847  -3.7e-05  -0.089351  -0.132939  -8.1e-05  3.97332  0.0
C  C105  1  0.00536817  0.94286157  0.62285439  1  -0.008248  -3.6e-05  -0.089251  -0.132933  -8e-05  3.973663  0.0
C  C106  1  0.50537410  0.55714419  0.12286173  1  -0.008888  -3.7e-05  -0.089343  -0.132932  -8.1e-05  3.973408  0.0
C  C107  1  0.99463273  0.05713716  0.37713762  1  -0.008582  -3.7e-05  -0.089332  -0.133052  -8.1e-05  3.973429  0.0
C  C108  1  0.46341597  0.38410177  0.80825334  1  0.009822  0.004512  -0.003993  0.074517  0.003481  3.99785  0.003
C  C109  1  0.03657806  0.88410460  0.69174476  1  0.010192  0.004511  -0.004079  0.074528  0.00348  3.998069  0.003
C  C110  1  0.53658325  0.61590731  0.19174847  1  0.010493  0.004514  -0.003938  0.07468  0.003482  3.99776  0.003
C  C111  1  0.96341797  0.11590172  0.30825422  1  0.010172  0.004513  -0.004008  0.074544  0.003481  3.997837  0.003
C  C112  1  0.54342193  0.33011997  0.77789209  1  -0.129966  0.000814  -0.094566  -0.135389  0.000486  3.971416  0.0
C  C113  1  0.95657349  0.83012497  0.72210663  1  -0.130495  0.000814  -0.094595  -0.135485  0.000486  3.971438  0.0
C  C114  1  0.45657971  0.66988981  0.22210873  1  -0.130221  0.000814  -0.094606  -0.135351  0.000486  3.97121  0.0
C  C115  1  0.04342492  0.16988342  0.27789572  1  -0.130104  0.000813  -0.094598  -0.135387  0.000486  3.971272  0.0
C  C116  1  0.64931565  0.33346035  0.81585782  1  0.009887  0.003829  -0.089222  -0.099373  0.002814  3.999832  0.002
C  C117  1  0.85067974  0.83346005  0.68414028  1  0.010103  0.003828  -0.089227  -0.099312  0.002813  3.99984  0.002
C  C118  1  0.35068522  0.66655425  0.18413793  1  0.011019  0.003831  -0.089294  -0.099684  0.002816  3.999613  0.002
C  C119  1  0.14932108  0.16654351  0.31586294  1  0.010174  0.00383  -0.089202  -0.099382  0.002815  3.999746  0.002
C  C120  1  0.34983299  0.37678223  0.77069378  1  0.030372  0.005025  -0.005693  0.043065  0.00389  3.983062  0.003
C  C121  1  0.15016030  0.87679373  0.72930796  1  0.030362  0.005025  -0.00584  0.042761  0.00389  3.982992  0.003
C  C122  1  0.65016380  0.62321581  0.22930964  1  0.030271  0.005026  -0.005779  0.042722  0.00389  3.983206  0.003
C  C123  1  0.84983733  0.12321259  0.27069181  1  0.03032  0.005024  -0.005731  0.042997  0.003889  3.983139  0.003
C  C124  1  0.26811036  0.38078815  0.82268649  1  -0.032549  0.002356  -0.083433  -0.144575  0.001612  3.953675  0.001
C  C125  1  0.23188367  0.88080004  0.67731659  1  -0.032499  0.002357  -0.083371  -0.144481  0.001612  3.953426  0.001
C  C126  1  0.73188647  0.61921265  0.17731195  1  -0.032693  0.002357  -0.083445  -0.144501  0.001612  3.953436  0.001
C  C127  1  0.76811314  0.11920007  0.32268434  1  -0.032544  0.002357  -0.083373  -0.144593  0.001613  3.953637  0.001
C  C128  1  0.15988477  0.36809882  0.79208748  1  0.017348  0.009452  -0.009433  -0.055821  0.00671  3.932127  0.006
C  C129  1  0.34010944  0.86810699  0.70791433  1  0.017627  0.009452  -0.00951  -0.055978  0.006711  3.93239  0.006
C  C130  1  0.84011369  0.63190267  0.20790864  1  0.017666  0.009451  -0.009487  -0.055932  0.00671  3.93201  0.006
C  C131  1  0.65988496  0.13188553  0.29208635  1  0.017409  0.009451  -0.009541  -0.05607  0.00671  3.932432  0.006
C  C132  1  0.08399663  0.36017612  0.85705623  1  1.59659  0.019674  0.224067  0.603406  0.019905  4.20834  0.017
C  C133  1  0.41599686  0.86017710  0.64294736  1  1.595782  0.019678  0.224027  0.603251  0.019902  4.208755  0.017
C  C134  1  0.91600423  0.63982744  0.14294077  1  1.596461  0.019675  0.223989  0.603282  0.019907  4.208372  0.017
C  C135  1  0.58399514  0.13980438  0.35705120  1  1.595689  0.019687  0.224282  0.603673  0.019905  4.208172  0.017
C  C136  1  0.12851060  0.35320203  0.70522406  1  0.013501  0.003247  -0.003046  0.04717  0.00249  3.978266  0.002
C  C137  1  0.37148542  0.85320883  0.79477665  1  0.013363  0.003248  -0.003003  0.047152  0.002491  3.977956  0.002
C  C138  1  0.87149026  0.64679049  0.29477418  1  0.013667  0.003249  -0.003065  0.047186  0.002491  3.978125  0.002
C  C139  1  0.62850979  0.14678438  0.20522350  1  0.013197  0.003251  -0.002953  0.047237  0.002492  3.978187  0.002
C  C140  1  0.21009659  0.35043418  0.65321454  1  -0.059503  0.002647  -0.085777  -0.148044  0.001924  3.96007  0.001
C  C141  1  0.28989866  0.85044404  0.84678608  1  -0.059316  0.002647  -0.085768  -0.147891  0.001924  3.959727  0.001
C  C142  1  0.78990265  0.64955213  0.34678540  1  -0.059417  0.002646  -0.085761  -0.148063  0.001923  3.959765  0.001
C  C143  1  0.71009896  0.14955814  0.15321494  1  -0.059149  0.002646  -0.085803  -0.147969  0.001923  3.959858  0.001
C  C144  1  0.31855883  0.36167772  0.68402170  1  -0.070792  0.007776  -0.009797  -0.057573  0.005581  3.936003  0.005
C  C145  1  0.18143546  0.86168853  0.81597948  1  -0.07095  0.007778  -0.009816  -0.057648  0.005582  3.935932  0.005
C  C146  1  0.68143960  0.63830859  0.31597815  1  -0.070838  0.007778  -0.009808  -0.05734  0.005582  3.935782  0.005
C  C147  1  0.81856134  0.13831779  0.18402270  1  -0.070872  0.00778  -0.009806  -0.057629  0.005584  3.935991  0.005
C  C148  1  0.39466144  0.36614433  0.61875864  1  1.57499  0.017172  0.231587  0.617678  0.016262  4.17677  0.015
C  C149  1  0.10533280  0.86615130  0.88124193  1  1.575417  0.017175  0.231511  0.617692  0.016269  4.176874  0.015
C  C150  1  0.60533699  0.63385164  0.38124122  1  1.575232  0.017176  0.231603  0.617607  0.016266  4.176693  0.015
C  C151  1  0.89466722  0.13385916  0.11876122  1  1.575167  0.017177  0.231562  0.617661  0.016266  4.176823  0.015
C  C152  1  0.01495093  0.34551052  0.66732708  1  0.02989  0.004277  -0.002074  0.079888  0.003229  3.98693  0.002
C  C153  1  0.48504519  0.84551012  0.83267237  1  0.030272  0.004276  -0.002061  0.079958  0.003229  3.986896  0.002
C  C154  1  0.98504995  0.65448614  0.33266804  1  0.030128  0.004277  -0.002066  0.079878  0.003229  3.986889  0.002
C  C155  1  0.51495242  0.15448447  0.16732865  1  0.030161  0.004276  -0.00205  0.079946  0.003228  3.987013  0.002
C  C156  1  0.93388344  0.39570834  0.70024362  1  -0.065792  -4.9e-05  -0.08882  -0.127913  -0.000451  3.964282  0.0
C  C157  1  0.56611436  0.89570230  0.79975430  1  -0.065956  -4.9e-05  -0.088826  -0.128031  -0.000451  3.964398  0.0
C  C158  1  0.06611905  0.60429245  0.29975105  1  -0.070823  -4.8e-05  -0.088804  -0.127973  -0.000451  3.964387  0.0
C  C159  1  0.43388247  0.10429229  0.20024476  1  -0.065828  -4.8e-05  -0.088784  -0.12784  -0.00045  3.964248  0.0
C  C160  1  0.82810370  0.39246664  0.66208654  1  -0.029766  0.00371  -0.089716  -0.106247  0.002673  4.015638  0.002
C  C161  1  0.67189335  0.89245762  0.83790942  1  -0.030442  0.00371  -0.089681  -0.106245  0.002672  4.015747  0.002
C  C162  1  0.17189876  0.60753415  0.33791124  1  -0.025025  0.003709  -0.089738  -0.106305  0.002673  4.015752  0.002
C  C163  1  0.32810187  0.10753697  0.16208885  1  -0.030276  0.00371  -0.089722  -0.106352  0.002672  4.015785  0.002
C  C164  1  0.79887463  0.33853706  0.59030430  1  -0.112805  0.003213  -0.017207  -0.038337  0.001633  3.984266  0.002
C  C165  1  0.70112550  0.83853353  0.90969618  1  -0.112092  0.003212  -0.017221  -0.038367  0.001633  3.984152  0.002
C  C166  1  0.20112782  0.66146029  0.40969660  1  -0.11285  0.003213  -0.017151  -0.038235  0.001633  3.984151  0.002
C  C167  1  0.29887293  0.16146382  0.09030305  1  -0.112716  0.003214  -0.01719  -0.038293  0.001634  3.984239  0.002
C  C168  1  0.87826837  0.28651587  0.55778976  1  -0.026847  0.003962  -0.083662  -0.093775  0.002935  3.987607  0.002
C  C169  1  0.62172761  0.78651668  0.94221137  1  -0.026825  0.003962  -0.083706  -0.093917  0.002934  3.987289  0.002
C  C170  1  0.12173086  0.71347665  0.44221142  1  -0.026874  0.003962  -0.08375  -0.093944  0.002934  3.987484  0.002
C  C171  1  0.37827081  0.21348136  0.05778973  1  -0.027179  0.003961  -0.083684  -0.093869  0.002934  3.987439  0.002
C  C172  1  0.98468955  0.29060985  0.59556197  1  -0.079113  -0.000429  -0.088135  -0.13089  -0.000535  3.960668  0.0
C  C173  1  0.51530557  0.79061365  0.90443847  1  -0.079432  -0.000428  -0.088078  -0.130687  -0.000535  3.960523  0.0
C  C174  1  0.01531050  0.70938267  0.40443619  1  -0.079178  -0.000428  -0.088082  -0.130703  -0.000535  3.960695  0.0
C  C175  1  0.48469123  0.20938301  0.09556372  1  -0.078849  -0.000428  -0.088048  -0.130708  -0.000534  3.960676  0.0
C  C176  1  0.68415288  0.33961206  0.55064851  1  1.578924  0.015971  0.232976  0.616038  0.015632  4.150352  0.014
C  C177  1  0.81584322  0.83961168  0.94935217  1  1.579037  0.015964  0.233018  0.616199  0.015625  4.150168  0.014
C  C178  1  0.31584555  0.66038322  0.44935134  1  1.57891  0.015969  0.23288  0.615955  0.01563  4.15033  0.014
C  C179  1  0.18415442  0.16038774  0.05064635  1  1.579184  0.015966  0.232955  0.616009  0.015628  4.150195  0.014
C  C180  1  0.71060111  0.10615729  0.74867556  1  0.29772  0.000635  -0.055842  -0.067078  0.000557  3.869094  0.0
C  C181  1  0.78939882  0.60615715  0.75132357  1  0.297488  0.000635  -0.055869  -0.067037  0.000557  3.86911  0.0
C  C182  1  0.28939970  0.89384696  0.25132829  1  0.297777  0.000635  -0.055752  -0.066899  0.000557  3.86887  0.0
C  C183  1  0.21060767  0.39384365  0.24867402  1  0.297606  0.000635  -0.055889  -0.067097  0.000557  3.868963  0.0
C  C184  1  0.80403106  0.12932868  0.69922547  1  -0.04105  0.000945  -0.165217  -0.165123  0.000477  3.909669  0.001
C  C185  1  0.69597097  0.62932825  0.80077582  1  -0.040651  0.000945  -0.165199  -0.165113  0.000477  3.909647  0.001
C  C186  1  0.19597135  0.87067281  0.30077979  1  -0.040707  0.000945  -0.165144  -0.164982  0.000477  3.909355  0.001
C  C187  1  0.30403552  0.37067048  0.19922239  1  -0.040609  0.000945  -0.165199  -0.165119  0.000477  3.909695  0.001
C  C188  1  0.90557453  0.10437171  0.75900931  1  -0.064413  0.001653  -0.153073  -0.286845  0.000706  3.888234  0.001
C  C189  1  0.59442783  0.60437484  0.74099131  1  -0.064961  0.001654  -0.153052  -0.286756  0.000706  3.888198  0.001
C  C190  1  0.09442708  0.89562908  0.24099650  1  -0.064662  0.001653  -0.153048  -0.286839  0.000706  3.888224  0.001
C  C191  1  0.40558026  0.39562458  0.25900769  1  -0.064771  0.001653  -0.153049  -0.286744  0.000706  3.888297  0.001
C  C192  1  0.86748023  0.10718082  0.84377760  1  1.34784  0.03047  0.269952  0.50335  0.028925  3.960455  0.026
C  C193  1  0.63251968  0.60718119  0.65622215  1  1.347953  0.030474  0.269916  0.50328  0.028928  3.960415  0.026
C  C194  1  0.13251818  0.89282136  0.15622475  1  1.347894  0.03047  0.269966  0.503411  0.028927  3.960331  0.026
C  C195  1  0.36748760  0.39281547  0.34377738  1  1.347821  0.030473  0.269994  0.503376  0.028929  3.960249  0.026
C  C196  1  0.70047358  0.10927694  0.90825040  1  0.23224  -0.000121  -0.130953  -0.27899  -0.000389  3.892739  -0.001
C  C197  1  0.79952791  0.60927750  0.59175014  1  0.232501  -0.000121  -0.130884  -0.278778  -0.000389  3.892526  -0.001
C  C198  1  0.29952562  0.89072731  0.09175453  1  0.232385  -0.000121  -0.130869  -0.278729  -0.000389  3.892765  -0.001
C  C199  1  0.20047698  0.39072261  0.40824665  1  0.232586  -0.000122  -0.130868  -0.278808  -0.000389  3.892643  -0.001
N  N200  1  0.76069343  0.10760920  0.83650729  1  -1.19803  0.028365  -0.261753  -0.037984  0.021062  3.649856  0.022
N  N201  1  0.73930568  0.60761338  0.66349238  1  -1.19789  0.028367  -0.261811  -0.038079  0.021063  3.649829  0.022
N  N202  1  0.23930417  0.89239436  0.16349685  1  -1.198066  0.028365  -0.261887  -0.038188  0.021062  3.649977  0.022
N  N203  1  0.26070082  0.39238673  0.33650458  1  -1.197857  0.028365  -0.261949  -0.038245  0.021062  3.649961  0.022
O  O204  1  0.83889003  0.46572609  0.94860731  1  -1.191518  0.062357  -0.303393  -0.557094  0.043417  2.29001  0.028
O  O205  1  0.66111015  0.96572166  0.55138110  1  -1.191548  0.062349  -0.303501  -0.557069  0.04342  2.289951  0.028
O  O206  1  0.16111079  0.53427885  0.05139591  1  -1.191254  0.062358  -0.303401  -0.556999  0.043419  2.289891  0.028
O  O207  1  0.33888349  0.03426602  0.44861389  1  -1.191563  0.062368  -0.303543  -0.557232  0.043426  2.289931  0.028
O  O208  1  0.83537810  0.30974183  0.93485427  1  -1.204024  0.074449  -0.315043  -0.581488  0.052539  2.38679  0.036
O  O209  1  0.66460544  0.80973949  0.56515748  1  -1.204258  0.074459  -0.315008  -0.58139  0.052551  2.386733  0.036
O  O210  1  0.16461801  0.69026587  0.06513287  1  -1.203924  0.074441  -0.314905  -0.581284  0.052546  2.3867  0.036
O  O211  1  0.33539286  0.19024958  0.43486107  1  -1.204005  0.074449  -0.315074  -0.581476  0.052545  2.386532  0.036
O  O212  1  0.07808099  0.42678943  0.90729868  1  -1.204786  0.068108  -0.30407  -0.581072  0.050085  2.31393  0.033
O  O213  1  0.42193568  0.92679776  0.59271939  1  -1.204231  0.068099  -0.304083  -0.581005  0.050084  2.314165  0.033
O  O214  1  0.92192147  0.57321482  0.09270035  1  -1.20488  0.068111  -0.304048  -0.580991  0.050087  2.313957  0.033
O  O215  1  0.57804995  0.07317681  0.40727164  1  -1.204134  0.068077  -0.304264  -0.581221  0.050087  2.313937  0.033
O  O216  1  0.03526967  0.28291886  0.85844883  1  -1.1922  0.071399  -0.313978  -0.564349  0.048005  2.31796  0.033
O  O217  1  0.46470721  0.78291107  0.64154279  1  -1.192066  0.071396  -0.313887  -0.564177  0.047998  2.31791  0.033
O  O218  1  0.96471996  0.71709091  0.14154386  1  -1.19225  0.071396  -0.313889  -0.564243  0.048004  2.317966  0.033
O  O219  1  0.53529118  0.21707178  0.35846267  1  -1.191886  0.071402  -0.314022  -0.564394  0.048005  2.317777  0.033
O  O220  1  0.42484949  0.44585914  0.59995559  1  -1.185188  0.06074  -0.298503  -0.552182  0.042603  2.297797  0.027
O  O221  1  0.07513886  0.94586234  0.90004834  1  -1.184999  0.060734  -0.298418  -0.552083  0.042599  2.298039  0.027
O  O222  1  0.57515130  0.55413959  0.40005138  1  -1.18521  0.060736  -0.298468  -0.552072  0.042597  2.297978  0.027
O  O223  1  0.92485231  0.05414398  0.09995325  1  -1.185025  0.060738  -0.298495  -0.55212  0.042599  2.297926  0.027
O  O224  1  0.41810524  0.29029034  0.58451044  1  -1.213431  0.058188  -0.313016  -0.604097  0.040681  2.341565  0.026
O  O225  1  0.08188922  0.79029353  0.91548493  1  -1.214006  0.058204  -0.312986  -0.604124  0.040685  2.341479  0.026
O  O226  1  0.58189244  0.70971253  0.41548248  1  -1.213686  0.0582  -0.31301  -0.604151  0.040688  2.341476  0.026
O  O227  1  0.91811083  0.20971417  0.08451448  1  -1.213797  0.0582  -0.313003  -0.604118  0.040685  2.341526  0.026
O  O228  1  0.63911456  0.41776761  0.54129220  1  -1.203746  0.064146  -0.295308  -0.567724  0.047674  2.328735  0.03
O  O229  1  0.86087893  0.91776681  0.95870720  1  -1.20381  0.06414  -0.295292  -0.567783  0.04767  2.328617  0.03
O  O230  1  0.36088628  0.58222767  0.45870853  1  -1.203776  0.064143  -0.295282  -0.567689  0.047673  2.328676  0.03
O  O231  1  0.13911869  0.08223261  0.04129382  1  -1.203889  0.064144  -0.295284  -0.567717  0.047671  2.328624  0.03
O  O232  1  0.63882588  0.26219188  0.52914801  1  -1.20333  0.063298  -0.312635  -0.585348  0.043432  2.302681  0.027
O  O233  1  0.86117602  0.76219182  0.97085617  1  -1.203415  0.063302  -0.312692  -0.585412  0.043428  2.30259  0.027
O  O234  1  0.36117655  0.73780271  0.47085601  1  -1.203315  0.063312  -0.312578  -0.585297  0.043427  2.302708  0.027
O  O235  1  0.13882324  0.23780622  0.02913941  1  -1.203459  0.063311  -0.312632  -0.5853  0.043427  2.302558  0.027
O  O236  1  0.92682221  0.10957051  0.91487528  1  -1.24123  0.106823  -0.298722  -0.557491  0.077125  2.486403  0.037
O  O237  1  0.57317364  0.60956707  0.58512592  1  -1.241104  0.106798  -0.298705  -0.557515  0.077136  2.486435  0.037
O  O238  1  0.07317458  0.89043374  0.08512939  1  -1.24108  0.106799  -0.298667  -0.557377  0.077118  2.486338  0.037
O  O239  1  0.42683203  0.39042889  0.41487407  1  -1.241244  0.106812  -0.29859  -0.557359  0.077117  2.486375  0.037
O  O240  1  0.02564207  0.37990123  0.09307227  1  -1.259883  0.071037  -0.545009  -0.753446  0.053413  2.094164  0.033
O  O241  1  0.47435265  0.87989431  0.40692431  1  -1.259955  0.071063  -0.544956  -0.753381  0.053419  2.094123  0.033
O  O242  1  0.97435725  0.62009957  0.90691459  1  -1.260158  0.071036  -0.544951  -0.75338  0.053407  2.094067  0.033
O  O243  1  0.52564821  0.12009890  0.59307331  1  -1.260146  0.071046  -0.544929  -0.753364  0.053412  2.09417  0.033
