# generated using pymatgen
data_CuH7C7SIN
_symmetry_space_group_name_H-M   'P 1'
_cell_length_a   5.36932121
_cell_length_b   7.82158693
_cell_length_c   21.20262840
_cell_angle_alpha   94.93650155
_cell_angle_beta   90.00067179
_cell_angle_gamma   89.99902869
_symmetry_Int_Tables_number   1
_chemical_formula_structural   CuH7C7SIN
_chemical_formula_sum   'Cu4 H28 C28 S4 I4 N4'
_cell_volume   887.13564643
_cell_formula_units_Z   4
loop_
 _symmetry_equiv_pos_site_id
 _symmetry_equiv_pos_as_xyz
  1  'x, y, z'
loop_
 _atom_site_type_symbol
 _atom_site_label
 _atom_site_symmetry_multiplicity
 _atom_site_fract_x
 _atom_site_fract_y
 _atom_site_fract_z
 _atom_site_occupancy
 _atom_site_hle17_bader_spin_density
 _atom_site_hle17_ddec_charge
 _atom_site_hle17_ddec_spin_density
 _atom_site_hle17_ddec_sum_bond_order
 _atom_site_hle17_magmom
 _atom_site_hse06_10hf_bader_spin_density
 _atom_site_hse06_10hf_ddec_charge
 _atom_site_hse06_10hf_ddec_spin_density
 _atom_site_hse06_10hf_ddec_sum_bond_order
 _atom_site_hse06_10hf_magmom
 _atom_site_hse06_bader_spin_density
 _atom_site_hse06_ddec_charge
 _atom_site_hse06_ddec_spin_density
 _atom_site_hse06_ddec_sum_bond_order
 _atom_site_hse06_magmom
 _atom_site_pbe_bader_spin_density
 _atom_site_pbe_cm5_charge
 _atom_site_pbe_ddec_charge
 _atom_site_pbe_ddec_spin_density
 _atom_site_pbe_ddec_sum_bond_order
 _atom_site_pbe_magmom
Cu  Cu0  1  0.75713991  0.98459612  0.49437925  1  0  0.233438  0  2.308923  0  0  0.177708  0  2.78648  0  0  0.185668  0  2.735805  0  0  0.227077  0.174304  0  2.819057  0
Cu  Cu1  1  0.25713414  0.51539416  0.00562188  1  0  0.233462  0  2.308829  0  0  0.177719  0  2.786399  0  0  0.185713  0  2.735724  0  0  0.227076  0.174321  0  2.818981  0
Cu  Cu2  1  0.24284905  0.01539652  0.50562082  1  0  0.233455  0  2.308993  0  0  0.177735  0  2.786542  0  0  0.185665  0  2.735872  0  0  0.227091  0.17433  0  2.81912  0
Cu  Cu3  1  0.74285109  0.48459588  0.99437622  1  0  0.233451  0  2.308874  0  0  0.177704  0  2.786449  0  0  0.18562  0  2.735786  0  0  0.227083  0.174303  0  2.819035  0
H  H4  1  0.00980210  0.84665685  0.36989810  1  0  0.089335  0  0.989547  0  0  0.093367  0  1.064797  0  0  0.097281  0  1.061942  0  0  0.086157  0.090405  0  1.067017  0
H  H5  1  0.50979863  0.65338107  0.13010752  1  0  0.089248  0  0.989631  0  0  0.09337  0  1.064771  0  0  0.097289  0  1.061908  0  0  0.086216  0.090409  0  1.066994  0
H  H6  1  0.99019245  0.15333580  0.63010290  1  0  0.089316  0  0.98957  0  0  0.093359  0  1.064805  0  0  0.097276  0  1.061945  0  0  0.086169  0.090399  0  1.067023  0
H  H7  1  0.49018288  0.34664494  0.86989401  1  0  0.089372  0  0.989537  0  0  0.093444  0  1.064771  0  0  0.097366  0  1.061903  0  0  0.08619  0.090484  0  1.066991  0
H  H8  1  0.71969738  0.74412211  0.28383419  1  0  0.086595  0  0.994893  0  0  0.09657  0  1.057741  0  0  0.097644  0  1.060916  0  0  0.093376  0.095796  0  1.055642  0
H  H9  1  0.21970129  0.75592249  0.21616940  1  0  0.086631  0  0.995051  0  0  0.096712  0  1.057778  0  0  0.097821  0  1.060846  0  0  0.093452  0.09594  0  1.055678  0
H  H10  1  0.28030648  0.25587049  0.71616352  1  0  0.086521  0  0.994855  0  0  0.096483  0  1.057736  0  0  0.097555  0  1.060916  0  0  0.093345  0.09571  0  1.055634  0
H  H11  1  0.78030815  0.24411761  0.78383114  1  0  0.086608  0  0.994774  0  0  0.096571  0  1.057631  0  0  0.097643  0  1.060811  0  0  0.093391  0.095798  0  1.05553  0
H  H12  1  0.81018730  0.47504588  0.21642070  1  0  0.092327  0  0.951532  0  0  0.10154  0  1.014809  0  0  0.104334  0  1.013515  0  0  0.097533  0.099493  0  1.015829  0
H  H13  1  0.31020403  0.02500487  0.28358442  1  0  0.092364  0  0.951504  0  0  0.101642  0  1.014765  0  0  0.104436  0  1.013472  0  0  0.097568  0.099601  0  1.015762  0
H  H14  1  0.18983890  0.52495702  0.78357967  1  0  0.092384  0  0.951433  0  0  0.10161  0  1.014688  0  0  0.104407  0  1.013392  0  0  0.097551  0.099557  0  1.015708  0
H  H15  1  0.68982590  0.97502754  0.71641635  1  0  0.092292  0  0.951498  0  0  0.101535  0  1.014762  0  0  0.104332  0  1.013463  0  0  0.097502  0.099486  0  1.015784  0
H  H16  1  0.18776310  0.30259532  0.23817470  1  0  0.08545  0  0.97025  0  0  0.096203  0  1.032785  0  0  0.098835  0  1.032101  0  0  0.097031  0.0943  0  1.03339  0
H  H17  1  0.68781517  0.19742598  0.26183062  1  0  0.085579  0  0.969928  0  0  0.096183  0  1.032632  0  0  0.098863  0  1.031897  0  0  0.097009  0.094281  0  1.033232  0
H  H18  1  0.81223517  0.69739607  0.76182816  1  0  0.08544  0  0.970098  0  0  0.096162  0  1.032688  0  0  0.098818  0  1.031977  0  0  0.09702  0.09426  0  1.033291  0
H  H19  1  0.31223525  0.80258591  0.73817049  1  0  0.085496  0  0.969974  0  0  0.096114  0  1.032675  0  0  0.098796  0  1.031939  0  0  0.096995  0.094208  0  1.033278  0
H  H20  1  0.47103070  0.40051517  0.32590735  1  0  0.088325  0  0.960995  0  0  0.099675  0  1.023583  0  0  0.102489  0  1.02189  0  0  0.099685  0.097599  0  1.024944  0
H  H21  1  0.97106797  0.09948129  0.17410086  1  0  0.088429  0  0.960809  0  0  0.099605  0  1.023609  0  0  0.102418  0  1.021911  0  0  0.099702  0.097534  0  1.024959  0
H  H22  1  0.52896012  0.59946730  0.67409949  1  0  0.088365  0  0.960994  0  0  0.099608  0  1.023696  0  0  0.102422  0  1.022001  0  0  0.099679  0.097536  0  1.025047  0
H  H23  1  0.02897686  0.90051904  0.82589944  1  0  0.08833  0  0.960983  0  0  0.09964  0  1.023625  0  0  0.102453  0  1.021927  0  0  0.099677  0.097566  0  1.024983  0
H  H24  1  0.51203958  0.45388245  0.42974226  1  0  0.32305  0  0.886055  0  0  0.306101  0  0.949433  0  0  0.314215  0  0.942565  0  0  0.298684  0.300348  0  0.954453  0
H  H25  1  0.01203243  0.04611377  0.07025993  1  0  0.323101  0  0.885992  0  0  0.306076  0  0.949422  0  0  0.314193  0  0.942552  0  0  0.298697  0.300323  0  0.954441  0
H  H26  1  0.48794752  0.54611023  0.57026111  1  0  0.323062  0  0.885972  0  0  0.306006  0  0.949457  0  0  0.314124  0  0.942586  0  0  0.298606  0.300252  0  0.954478  0
H  H27  1  0.98796212  0.95387366  0.92973479  1  0  0.323115  0  0.885981  0  0  0.306077  0  0.94944  0  0  0.314192  0  0.942574  0  0  0.298673  0.300323  0  0.954459  0
H  H28  1  0.69310410  0.61983374  0.46667077  1  0  0.307888  0  0.939115  0  0  0.286455  0  1.014799  0  0  0.29605  0  1.005777  0  0  0.270346  0.279599  0  1.021342  0
H  H29  1  0.19310349  0.88016232  0.03332705  1  0  0.307851  0  0.939083  0  0  0.286408  0  1.014807  0  0  0.296  0  1.00579  0  0  0.270314  0.279551  0  1.02135  0
H  H30  1  0.30686996  0.38015889  0.53332930  1  0  0.307802  0  0.939251  0  0  0.286372  0  1.014959  0  0  0.295968  0  1.005939  0  0  0.270297  0.279515  0  1.0215  0
H  H31  1  0.80686871  0.11982899  0.96666967  1  0  0.307703  0  0.939194  0  0  0.286244  0  1.014952  0  0  0.295841  0  1.005918  0  0  0.270241  0.279392  0  1.021483  0
C  C32  1  0.43403164  0.69404740  0.40346399  1  0  0.352298  0  3.735402  0  0  0.330848  0  4.00494  0  0  0.356612  0  4.011938  0  0  0.146948  0.313495  0  3.999801  0
C  C33  1  0.93403574  0.80595509  0.09653800  1  0  0.352311  0  3.735041  0  0  0.33082  0  4.004681  0  0  0.356625  0  4.011631  0  0  0.146895  0.313467  0  3.999541  0
C  C34  1  0.56597408  0.30594782  0.59653709  1  0  0.352149  0  3.735388  0  0  0.330768  0  4.004779  0  0  0.356512  0  4.011814  0  0  0.14693  0.313416  0  3.999639  0
C  C35  1  0.06597557  0.19404008  0.90345978  1  0  0.352411  0  3.734899  0  0  0.330946  0  4.004459  0  0  0.356757  0  4.011398  0  0  0.147005  0.313592  0  3.999325  0
C  C36  1  0.25846157  0.63012699  0.35377790  1  0  -0.018025  0  3.783673  0  0  0.007669  0  4.008692  0  0  -0.000205  0  4.03251  0  0  -0.01739  0.012534  0  3.992928  0
C  C37  1  0.75846645  0.86988772  0.14622821  1  0  -0.018149  0  3.783796  0  0  0.007495  0  4.00889  0  0  -0.000408  0  4.032729  0  0  -0.017314  0.01236  0  3.993126  0
C  C38  1  0.74153857  0.36986824  0.64622460  1  0  -0.017922  0  3.784046  0  0  0.007784  0  4.008977  0  0  -9e-05  0  4.032808  0  0  -0.017269  0.012648  0  3.993216  0
C  C39  1  0.24155044  0.13011521  0.85377452  1  0  -0.017995  0  3.783826  0  0  0.00767  0  4.008902  0  0  -0.000232  0  4.032734  0  0  -0.0173  0.012533  0  3.993139  0
C  C40  1  0.04675172  0.72696310  0.34113294  1  0  -0.070648  0  3.702228  0  0  -0.089839  0  3.941254  0  0  -0.088992  0  3.96069  0  0  -0.085915  -0.090362  0  3.92852  0
C  C41  1  0.54675221  0.77306668  0.15886924  1  0  -0.070435  0  3.702548  0  0  -0.089684  0  3.941586  0  0  -0.088838  0  3.961035  0  0  -0.085933  -0.090207  0  3.928849  0
C  C42  1  0.95323724  0.27303205  0.65886390  1  0  -0.070501  0  3.702629  0  0  -0.089717  0  3.941636  0  0  -0.088863  0  3.961063  0  0  -0.085861  -0.090241  0  3.928901  0
C  C43  1  0.45323862  0.22695033  0.84113108  1  0  -0.070756  0  3.702396  0  0  -0.089973  0  3.94135  0  0  -0.089124  0  3.960786  0  0  -0.085994  -0.090496  0  3.928613  0
C  C44  1  0.88425938  0.66888278  0.29291243  1  0  -0.070823  0  3.748369  0  0  -0.081367  0  3.992513  0  0  -0.085487  0  4.014601  0  0  -0.094259  -0.078729  0  3.97771  0
C  C45  1  0.38426469  0.83115487  0.20708858  1  0  -0.070979  0  3.748985  0  0  -0.081591  0  3.993107  0  0  -0.085703  0  4.015216  0  0  -0.094438  -0.078955  0  3.978303  0
C  C46  1  0.11573144  0.33110595  0.70708327  1  0  -0.070725  0  3.748255  0  0  -0.081239  0  3.992399  0  0  -0.085357  0  4.014478  0  0  -0.094267  -0.078601  0  3.977594  0
C  C47  1  0.61573545  0.16887367  0.79291114  1  0  -0.070775  0  3.748357  0  0  -0.08126  0  3.992477  0  0  -0.08538  0  4.014561  0  0  -0.09425  -0.078622  0  3.977672  0
C  C48  1  0.93366144  0.51629762  0.25563822  1  0  -0.056087  0  3.739132  0  0  -0.072207  0  3.990727  0  0  -0.070463  0  4.008177  0  0  -0.086238  -0.073339  0  3.979027  0
C  C49  1  0.43367214  0.98373564  0.24436233  1  0  -0.056162  0  3.73904  0  0  -0.072407  0  3.990697  0  0  -0.07067  0  4.008166  0  0  -0.086171  -0.073528  0  3.978992  0
C  C50  1  0.06633870  0.48369754  0.74435909  1  0  -0.056218  0  3.738885  0  0  -0.072364  0  3.990505  0  0  -0.07062  0  4.007958  0  0  -0.086209  -0.073491  0  3.978799  0
C  C51  1  0.56633172  0.01628650  0.75563767  1  0  -0.056075  0  3.738966  0  0  -0.07225  0  3.990544  0  0  -0.070506  0  4.008002  0  0  -0.086112  -0.073384  0  3.978844  0
C  C52  1  0.14472523  0.41982972  0.26772489  1  0  -0.07339  0  3.765089  0  0  -0.085244  0  4.013381  0  0  -0.088649  0  4.033273  0  0  -0.092939  -0.083059  0  4.00008  0
C  C53  1  0.64476394  0.08019071  0.23227698  1  0  -0.073627  0  3.764571  0  0  -0.08535  0  4.012867  0  0  -0.088787  0  4.032731  0  0  -0.093003  -0.083165  0  3.999566  0
C  C54  1  0.85525441  0.58016287  0.73227187  1  0  -0.073413  0  3.765042  0  0  -0.085238  0  4.013347  0  0  -0.088656  0  4.033226  0  0  -0.093024  -0.083052  0  4.000042  0
C  C55  1  0.35526041  0.91982248  0.76772558  1  0  -0.07345  0  3.764709  0  0  -0.085201  0  4.013043  0  0  -0.088644  0  4.032907  0  0  -0.093032  -0.083009  0  3.999741  0
C  C56  1  0.30452992  0.47470964  0.31713846  1  0  -0.084856  0  3.73093  0  0  -0.107071  0  3.975145  0  0  -0.10547  0  3.994563  0  0  -0.087752  -0.108027  0  3.962124  0
C  C57  1  0.80455272  0.02529492  0.18286150  1  0  -0.08471  0  3.730976  0  0  -0.106746  0  3.975132  0  0  -0.105139  0  3.994563  0  0  -0.087726  -0.10771  0  3.962127  0
C  C58  1  0.69546090  0.52527657  0.68286094  1  0  -0.084938  0  3.731412  0  0  -0.10708  0  3.97565  0  0  -0.105477  0  3.995066  0  0  -0.087777  -0.108034  0  3.962621  0
C  C59  1  0.19546976  0.97471181  0.81713757  1  0  -0.084886  0  3.731415  0  0  -0.107063  0  3.975612  0  0  -0.105456  0  3.995041  0  0  -0.087761  -0.108017  0  3.962582  0
S  S60  1  0.48606372  0.90904613  0.41502294  1  0  -0.316649  0  2.628188  0  0  -0.290516  0  3.062252  0  0  -0.303856  0  3.040086  0  0  -0.199618  -0.282185  0  3.076616  0
S  S61  1  0.98605965  0.59094938  0.08497899  1  0  -0.316643  0  2.62795  0  0  -0.290496  0  3.062068  0  0  -0.303852  0  3.039883  0  0  -0.199606  -0.282162  0  3.07643  0
S  S62  1  0.51392524  0.09093878  0.58497501  1  0  -0.316696  0  2.628083  0  0  -0.290579  0  3.062122  0  0  -0.303905  0  3.039953  0  0  -0.19969  -0.282248  0  3.076495  0
S  S63  1  0.01392931  0.40904583  0.91502210  1  0  -0.316721  0  2.627978  0  0  -0.290587  0  3.062065  0  0  -0.303947  0  3.03988  0  0  -0.199655  -0.282253  0  3.076427  0
I  I64  1  0.00761929  0.75451104  0.55177155  1  0  -0.40231  0  1.446678  0  0  -0.348722  0  1.828385  0  0  -0.370506  0  1.800401  0  0  -0.207856  -0.333041  0  1.846584  0
I  I65  1  0.50757859  0.74549104  0.94823533  1  0  -0.402353  0  1.446689  0  0  -0.348739  0  1.828388  0  0  -0.370521  0  1.80039  0  0  -0.207874  -0.333063  0  1.846589  0
I  I66  1  0.99237153  0.24548418  0.44822954  1  0  -0.402294  0  1.446672  0  0  -0.3487  0  1.828428  0  0  -0.370477  0  1.80043  0  0  -0.207845  -0.333025  0  1.846631  0
I  I67  1  0.49240665  0.25450677  0.05176818  1  0  -0.402319  0  1.446654  0  0  -0.348714  0  1.828343  0  0  -0.370512  0  1.800371  0  0  -0.207872  -0.333041  0  1.846546  0
N  N68  1  0.55274531  0.58142283  0.43574696  1  0  -0.565914  0  3.231839  0  0  -0.521149  0  3.459981  0  0  -0.539494  0  3.455962  0  0  -0.54489  -0.509116  0  3.463221  0
N  N69  1  0.05274523  0.91857864  0.06425345  1  0  -0.565955  0  3.231655  0  0  -0.521062  0  3.459895  0  0  -0.53942  0  3.45586  0  0  -0.544865  -0.50903  0  3.463136  0
N  N70  1  0.44724738  0.41856854  0.56425448  1  0  -0.56576  0  3.231918  0  0  -0.520932  0  3.460169  0  0  -0.539271  0  3.45616  0  0  -0.544724  -0.508898  0  3.463409  0
N  N71  1  0.94724932  0.08141779  0.93574248  1  0  -0.565797  0  3.231656  0  0  -0.52091  0  3.459968  0  0  -0.539258  0  3.455927  0  0  -0.544784  -0.508878  0  3.463205  0
