# generated using pymatgen
data_Cu2H12C17(NO2)6
_symmetry_space_group_name_H-M   'P 1'
_cell_length_a   10.55995475
_cell_length_b   10.55996563
_cell_length_c   17.02374413
_cell_angle_alpha   90.00079442
_cell_angle_beta   89.99915445
_cell_angle_gamma   120.00302952
_symmetry_Int_Tables_number   1
_chemical_formula_structural   Cu2H12C17(NO2)6
_chemical_formula_sum   'Cu6 H36 C51 N18 O36'
_cell_volume   1643.98184829
_cell_formula_units_Z   3
loop_
 _symmetry_equiv_pos_site_id
 _symmetry_equiv_pos_as_xyz
  1  'x, y, z'
loop_
 _atom_site_type_symbol
 _atom_site_label
 _atom_site_symmetry_multiplicity
 _atom_site_fract_x
 _atom_site_fract_y
 _atom_site_fract_z
 _atom_site_occupancy
 _atom_site_pbe_bader_charge
 _atom_site_pbe_bader_spin_density
 _atom_site_pbe_cm5_charge
 _atom_site_pbe_ddec_charge
 _atom_site_pbe_ddec_spin_density
 _atom_site_pbe_ddec_sum_bond_order
 _atom_site_pbe_magmom
Cu  Cu0  1  0.56266760  0.69993937  0.63595571  1  1.035664  0.564261  0.740554  0.750471  0.721864  2.260506  0.565
Cu  Cu1  1  0.30011749  0.86271848  0.96928381  1  1.035965  0.564248  0.74002  0.749648  0.722425  2.260406  0.565
Cu  Cu2  1  0.13724337  0.43735065  0.30265676  1  1.035175  0.564209  0.740298  0.75033  0.721154  2.259355  0.565
Cu  Cu3  1  0.86272143  0.30011325  0.03071563  1  1.035829  0.564241  0.740052  0.749741  0.722418  2.260276  0.565
Cu  Cu4  1  0.43735078  0.13724329  0.69734284  1  1.035136  0.564206  0.740321  0.750339  0.721153  2.259358  0.565
Cu  Cu5  1  0.69993543  0.56266843  0.36404428  1  1.035715  0.564262  0.740593  0.750484  0.721866  2.260386  0.565
H  H6  1  0.51210201  0.61093139  0.92635408  1  0.552307  0.000621  0.312218  0.286465  0.000448  0.98523  0.001
H  H7  1  0.38914691  0.90123243  0.25968408  1  0.549445  0.000628  0.312403  0.286809  0.000447  0.985587  0.001
H  H8  1  0.09888324  0.48793436  0.59308738  1  0.543622  0.000621  0.312416  0.286588  0.000447  0.985415  0.001
H  H9  1  0.90124054  0.38915432  0.74031590  1  0.549449  0.000628  0.31241  0.286849  0.000448  0.985599  0.001
H  H10  1  0.48793570  0.09888108  0.40691339  1  0.543427  0.000621  0.312435  0.286606  0.000446  0.985397  0.001
H  H11  1  0.61092887  0.51210217  0.07364654  1  0.55238  0.000621  0.312184  0.286471  0.000448  0.985234  0.001
H  H12  1  0.41933353  0.67953958  0.80844125  1  0.164952  0.000623  0.138169  0.108455  0.000224  1.005541  0.0
H  H13  1  0.32054420  0.73984294  0.14177427  1  0.154083  0.000627  0.138251  0.108237  0.000224  1.005117  0.0
H  H14  1  0.26016387  0.58065898  0.47513003  1  0.200838  0.000608  0.138054  0.108349  0.000224  1.005345  0.0
H  H15  1  0.73984816  0.32054450  0.85822460  1  0.154155  0.000627  0.138268  0.108211  0.000224  1.005162  0.0
H  H16  1  0.58066112  0.26016233  0.52487008  1  0.20085  0.000608  0.138057  0.108382  0.000224  1.005296  0.0
H  H17  1  0.67953540  0.41933534  0.19155997  1  0.165146  0.000623  0.138156  0.108468  0.000224  1.005439  0.0
H  H18  1  0.73227597  0.57460018  0.89250490  1  0.170829  0.001022  0.116846  0.12926  0.000551  1.053137  0.001
H  H19  1  0.42544500  0.15774674  0.22582626  1  0.149002  0.001044  0.117124  0.129617  0.000552  1.052994  0.001
H  H20  1  0.84231139  0.26772826  0.55929731  1  0.17475  0.001019  0.116754  0.128694  0.000552  1.053468  0.001
H  H21  1  0.15775605  0.42545518  0.77417392  1  0.148982  0.001044  0.117141  0.12964  0.000552  1.05298  0.001
H  H22  1  0.26772859  0.84231004  0.44070449  1  0.174785  0.001019  0.116771  0.128735  0.000552  1.053431  0.001
H  H23  1  0.57459781  0.73227725  0.10749391  1  0.170771  0.001022  0.1169  0.12936  0.000551  1.05316  0.001
H  H24  1  0.88775531  0.62106866  0.75162880  1  0.053576  0.000124  0.103901  0.114867  2.5e-05  0.98797  0.0
H  H25  1  0.37888728  0.26669017  0.08491611  1  0.046222  0.000125  0.103987  0.11501  2.5e-05  0.988329  0.0
H  H26  1  0.73320774  0.11223383  0.41829878  1  0.08114  0.00012  0.103704  0.11469  2.4e-05  0.988039  0.0
H  H27  1  0.26669611  0.37888749  0.91508347  1  0.046149  0.000125  0.103983  0.114963  2.5e-05  0.988391  0.0
H  H28  1  0.11223258  0.73320936  0.58170074  1  0.081134  0.00012  0.103699  0.114681  2.4e-05  0.988045  0.0
H  H29  1  0.62106306  0.88775541  0.24837112  1  0.053499  0.000124  0.103898  0.114844  2.5e-05  0.988009  0.0
H  H30  1  0.89186162  0.77211579  0.70402122  1  0.05591  0.00038  0.099507  0.109962  0.000165  1.010207  0.0
H  H31  1  0.22790918  0.11967629  0.03730678  1  0.094778  0.000359  0.099416  0.110043  0.000163  1.010399  0.0
H  H32  1  0.88018207  0.10819483  0.37071397  1  0.053155  0.000378  0.099465  0.109981  0.000164  1.010419  0.0
H  H33  1  0.11968057  0.22790902  0.96269112  1  0.094555  0.000359  0.099435  0.110043  0.000163  1.010424  0.0
H  H34  1  0.10819396  0.88018287  0.62928669  1  0.053127  0.000378  0.099449  0.109956  0.000164  1.010448  0.0
H  H35  1  0.77211112  0.89186473  0.29597749  1  0.055973  0.00038  0.099525  0.109976  0.000165  1.010221  0.0
H  H36  1  0.86374184  0.59004175  0.60722811  1  0.079039  0.008063  0.113658  0.082354  0.004324  0.973169  0.005
H  H37  1  0.41003348  0.27370942  0.94052507  1  0.096297  0.008001  0.113753  0.082544  0.004327  0.972935  0.005
H  H38  1  0.72626491  0.13630457  0.27392879  1  0.073221  0.008103  0.113783  0.082378  0.004322  0.97269  0.005
H  H39  1  0.27371240  0.41002960  0.05947508  1  0.096332  0.008001  0.113744  0.082537  0.004327  0.972949  0.005
H  H40  1  0.13630141  0.72626242  0.72607073  1  0.073194  0.008103  0.113822  0.082401  0.004322  0.972639  0.005
H  H41  1  0.59003441  0.86374134  0.39277065  1  0.079025  0.008063  0.113646  0.082341  0.004324  0.973186  0.005
C  C42  1  0.50949306  0.65809569  0.80744567  1  0.998466  0.000343  0.146592  0.170738  -8.9e-05  3.916196  0.002
C  C43  1  0.34204507  0.85147168  0.14077311  1  1.024365  0.000308  0.146812  0.171923  -0.000101  3.914713  0.002
C  C44  1  0.14853934  0.49051213  0.47416327  1  0.949498  0.000332  0.147301  0.172338  -9.4e-05  3.914912  0.002
C  C45  1  0.85147595  0.34204651  0.85922632  1  1.024383  0.000308  0.146844  0.172113  -0.0001  3.914775  0.002
C  C46  1  0.49051218  0.14853803  0.52583631  1  0.9495  0.000332  0.14734  0.17232  -9.4e-05  3.914817  0.002
C  C47  1  0.65809143  0.50949472  0.19255436  1  0.998314  0.000342  0.146592  0.170704  -9e-05  3.916187  0.002
C  C48  1  0.67621249  0.60610749  0.85047223  1  0.329695  0.006462  -0.001574  -0.100434  0.004423  3.877977  0.005
C  C49  1  0.39396623  0.07017427  0.18378710  1  0.373425  0.006384  -0.002008  -0.100578  0.00442  3.877229  0.005
C  C50  1  0.92985764  0.32375172  0.51722885  1  0.350931  0.006432  -0.001374  -0.099497  0.004424  3.876452  0.005
C  C51  1  0.07018262  0.39397335  0.81621311  1  0.373294  0.006384  -0.00204  -0.100602  0.00442  3.877222  0.005
C  C52  1  0.32375296  0.92985710  0.48277174  1  0.350897  0.006432  -0.001439  -0.099664  0.004424  3.876514  0.005
C  C53  1  0.60610499  0.67621585  0.14952717  1  0.329302  0.006462  -0.001584  -0.100469  0.004423  3.877985  0.005
C  C54  1  0.70088781  0.64176860  0.77202478  1  0.40719  0.001071  0.069271  0.168968  0.000464  4.002902  0.001
C  C55  1  0.35830766  0.05916205  0.10533855  1  0.362882  0.001129  0.07005  0.170159  0.000463  4.00158  0.001
C  C56  1  0.94080131  0.29909351  0.43876299  1  0.366168  0.001149  0.069668  0.16973  0.000466  4.002265  0.001
C  C57  1  0.05916910  0.35831023  0.89466050  1  0.362532  0.00113  0.070103  0.1702  0.000463  4.00157  0.001
C  C58  1  0.29909255  0.94080077  0.56123701  1  0.366181  0.001149  0.069732  0.169874  0.000466  4.002057  0.001
C  C59  1  0.64176507  0.70089010  0.22797460  1  0.407187  0.001071  0.069222  0.168896  0.000464  4.003096  0.001
C  C60  1  0.82050610  0.65635979  0.71953526  1  0.005186  0.004304  -0.151833  -0.252016  0.002715  3.95075  0.003
C  C61  1  0.34365174  0.16413679  0.05285238  1  -0.000866  0.004292  -0.152205  -0.252636  0.002717  3.950203  0.003
C  C62  1  0.83577814  0.17952230  0.38623985  1  -0.017228  0.004309  -0.152214  -0.252827  0.002717  3.949802  0.003
C  C63  1  0.16414108  0.34365148  0.94714665  1  -0.000656  0.004291  -0.152217  -0.252537  0.002716  3.950214  0.003
C  C64  1  0.17952022  0.83577664  0.61376022  1  -0.017243  0.004308  -0.152159  -0.25278  0.002716  3.949707  0.003
C  C65  1  0.65635463  0.82050776  0.28046409  1  0.005214  0.004304  -0.151826  -0.251956  0.002715  3.950813  0.003
C  C66  1  0.76741706  0.56992691  0.64196172  1  0.342751  0.013736  0.008076  0.044225  0.010403  3.870205  0.01
C  C67  1  0.43012482  0.19750740  0.97528023  1  0.314035  0.013804  0.008092  0.043793  0.010407  3.870842  0.01
C  C68  1  0.80249188  0.23265048  0.30864743  1  0.343441  0.01369  0.008511  0.045353  0.010388  3.868076  0.01
C  C69  1  0.19751016  0.43012295  0.02471936  1  0.314198  0.0138  0.008091  0.043823  0.010406  3.870811  0.01
C  C70  1  0.23264784  0.80249089  0.69135146  1  0.343431  0.01369  0.008455  0.045264  0.010388  3.868006  0.01
C  C71  1  0.56992265  0.76741753  0.35803767  1  0.342651  0.013736  0.0081  0.044251  0.010402  3.870105  0.01
C  C72  1  0.67266011  0.59953863  0.52040852  1  1.333911  -0.000282  0.210544  0.362002  -0.000522  4.184185  0.001
C  C73  1  0.40052116  0.07311696  0.85372784  1  1.394999  -0.000467  0.210096  0.361658  -0.000532  4.185959  0.001
C  C74  1  0.92686348  0.32742252  0.18708411  1  1.38923  -0.000517  0.209336  0.359802  -0.000525  4.186438  0.001
C  C75  1  0.07311665  0.40052180  0.14627179  1  1.394906  -0.000467  0.210094  0.361533  -0.000531  4.186086  0.001
C  C76  1  0.32742179  0.92686207  0.81291530  1  1.389232  -0.000517  0.209226  0.35948  -0.000524  4.1866  0.001
C  C77  1  0.59953525  0.67266150  0.47959147  1  1.365504  -0.000244  0.210584  0.362051  -0.000522  4.184113  0.001
C  C78  1  0.68665407  0.40549977  0.66099715  1  1.581503  -0.00034  0.210269  0.575413  -0.001098  4.14817  -0.002
C  C79  1  0.59453271  0.28117815  0.99434204  1  1.579542  -0.000345  0.210239  0.574729  -0.001098  4.14925  -0.002
C  C80  1  0.71883067  0.31341551  0.32765278  1  1.581469  -0.00035  0.210101  0.574797  -0.001103  4.146744  -0.002
C  C81  1  0.28117959  0.59452826  0.00565924  1  1.579137  -0.000345  0.210283  0.574716  -0.001098  4.149436  -0.002
C  C82  1  0.31341686  0.71883368  0.67234669  1  1.581464  -0.00035  0.210189  0.57499  -0.001104  4.146653  -0.002
C  C83  1  0.40549661  0.68665143  0.33900289  1  1.581666  -0.00034  0.210329  0.575427  -0.001098  4.148218  -0.002
C  C84  1  0.28149220  0.32709570  0.64366228  1  2.126571  -0.000189  0.350961  0.709674  -0.000607  4.174242  0.0
C  C85  1  0.67260612  0.95422660  0.97703697  1  2.133257  -0.000187  0.350398  0.709851  -0.000608  4.174833  0.0
C  C86  1  0.04564874  0.71858118  0.31019784  1  2.139553  -0.000186  0.35036  0.708944  -0.000606  4.175346  0.0
C  C87  1  0.95422933  0.67259587  0.02296469  1  2.132773  -0.000187  0.350329  0.709928  -0.000608  4.174764  0.0
C  C88  1  0.71857223  0.04565474  0.68980875  1  2.139371  -0.000186  0.350369  0.708836  -0.000605  4.175405  0.0
C  C89  1  0.32711152  0.28150340  0.35633378  1  2.126437  -0.000189  0.350995  0.709775  -0.000607  4.174098  0.0
C  C90  1  0.96820058  0.99982565  0.83348455  1  2.056604  3e-06  0.371006  0.722087  -1.7e-05  4.089265  0.0
C  C91  1  0.99981156  0.96819297  0.16650350  1  2.055728  3e-06  0.371192  0.722517  -1.7e-05  4.088748  0.0
C  C92  1  0.03174907  0.03173820  0.49999811  1  2.044085  3e-06  0.37252  0.723999  -1.7e-05  4.087389  0.0
N  N93  1  0.59484113  0.67315995  0.74614214  1  -1.193308  0.096708  -0.386204  -0.362344  0.063851  3.622662  0.083
N  N94  1  0.32697953  0.92173503  0.07946323  1  -1.204898  0.096692  -0.386804  -0.363435  0.063757  3.623163  0.083
N  N95  1  0.07823210  0.40516025  0.41286355  1  -1.163249  0.096688  -0.386571  -0.363852  0.063821  3.622341  0.083
N  N96  1  0.92173757  0.32697702  0.92053559  1  -1.204736  0.096692  -0.386853  -0.363552  0.063756  3.62316  0.083
N  N97  1  0.40515945  0.07823332  0.58713608  1  -1.163254  0.096685  -0.386662  -0.363997  0.063819  3.622295  0.083
N  N98  1  0.67315556  0.59484261  0.25385785  1  -1.193234  0.096708  -0.38617  -0.36222  0.063851  3.622514  0.083
N  N99  1  0.55572794  0.61691977  0.87108580  1  -1.305162  0.003735  -0.378893  -0.194364  0.00184  3.694934  0.002
N  N100  1  0.38320413  0.93889462  0.20441147  1  -1.302721  0.003721  -0.378877  -0.195487  0.001835  3.69535  0.002
N  N101  1  0.06116426  0.44427818  0.53782338  1  -1.288635  0.003728  -0.379305  -0.19531  0.001836  3.694753  0.002
N  N102  1  0.93890136  0.38320905  0.79558851  1  -1.302676  0.003721  -0.378913  -0.195676  0.001835  3.69542  0.002
N  N103  1  0.44427887  0.06116258  0.46217741  1  -1.288436  0.003728  -0.379309  -0.195248  0.001836  3.694712  0.002
N  N104  1  0.61691715  0.55572797  0.12891422  1  -1.304831  0.003735  -0.378905  -0.194471  0.00184  3.694981  0.002
N  N105  1  0.68301765  0.61897411  0.59703917  1  -1.174343  0.104867  -0.403309  -0.421771  0.068232  3.546628  0.087
N  N106  1  0.38113266  0.06404748  0.93036321  1  -1.199119  0.105072  -0.40307  -0.420871  0.068304  3.546402  0.087
N  N107  1  0.93593621  0.31707123  0.26371875  1  -1.214282  0.105093  -0.402829  -0.420589  0.068149  3.545457  0.087
N  N108  1  0.06404923  0.38112771  0.06963702  1  -1.199129  0.105071  -0.403125  -0.420893  0.068303  3.546447  0.087
N  N109  1  0.31706746  0.93593613  0.73628124  1  -1.214244  0.105094  -0.402797  -0.42042  0.068149  3.545428  0.087
N  N110  1  0.61897276  0.68302105  0.40296140  1  -1.174297  0.104869  -0.403328  -0.42179  0.068233  3.546555  0.087
O  O111  1  0.72313457  0.53317910  0.47886838  1  -1.103955  0.097211  -0.314762  -0.467085  0.062152  2.295122  0.087
O  O112  1  0.46677755  0.18997003  0.81219193  1  -1.113778  0.097353  -0.314239  -0.46664  0.062029  2.295104  0.087
O  O113  1  0.81003756  0.27695226  0.14553775  1  -1.110277  0.097235  -0.313778  -0.465565  0.062119  2.294854  0.087
O  O114  1  0.18997098  0.46678260  0.18780764  1  -1.113788  0.097353  -0.314228  -0.466614  0.062029  2.295069  0.087
O  O115  1  0.27695611  0.81003538  0.85446171  1  -1.110306  0.097233  -0.31371  -0.465407  0.062118  2.294799  0.087
O  O116  1  0.53317404  0.72313539  0.52113162  1  -1.104033  0.097214  -0.314821  -0.467122  0.062153  2.295033  0.087
O  O117  1  0.76158145  0.34414138  0.67043865  1  -1.192473  0.004112  -0.324048  -0.585463  0.001959  2.218917  0.004
O  O118  1  0.65592881  0.41748448  0.00374474  1  -1.192142  0.004108  -0.323811  -0.584909  0.001954  2.219053  0.004
O  O119  1  0.58251919  0.23854979  0.33705642  1  -1.1971  0.0041  -0.323841  -0.585313  0.001955  2.21864  0.004
O  O120  1  0.41748788  0.65592727  0.99625824  1  -1.191905  0.004108  -0.323818  -0.584908  0.001954  2.219172  0.004
O  O121  1  0.23855358  0.58252369  0.66294252  1  -1.197013  0.004101  -0.323915  -0.585431  0.001955  2.218611  0.004
O  O122  1  0.34413337  0.76157394  0.32956139  1  -1.192681  0.004111  -0.324031  -0.585451  0.001959  2.218916  0.004
O  O123  1  0.54765131  0.34407774  0.66781271  1  -1.125841  0.094265  -0.318875  -0.517326  0.060077  2.411681  0.086
O  O124  1  0.65589023  0.20355434  0.00122911  1  -1.125566  0.094357  -0.318949  -0.516986  0.060112  2.411072  0.086
O  O125  1  0.79646075  0.45241352  0.33448172  1  -1.127167  0.094372  -0.318969  -0.517155  0.060153  2.410852  0.086
O  O126  1  0.20355799  0.65588800  0.99877041  1  -1.125462  0.094355  -0.318979  -0.516995  0.060111  2.41131  0.086
O  O127  1  0.45241378  0.79646688  0.66551710  1  -1.127265  0.094372  -0.318953  -0.517187  0.060153  2.410912  0.086
O  O128  1  0.34407664  0.54764869  0.33218798  1  -1.125804  0.094266  -0.318926  -0.517368  0.060078  2.411742  0.086
O  O129  1  0.30693647  0.36329851  0.57768741  1  -1.069109  -0.000237  -0.175077  -0.355761  -0.000269  2.283978  0.0
O  O130  1  0.63648236  0.94359243  0.91105454  1  -1.073697  -0.000237  -0.175022  -0.356243  -0.000271  2.284853  0.0
O  O131  1  0.05644845  0.69296458  0.24425919  1  -1.07721  -0.000234  -0.174532  -0.355319  -0.000269  2.284166  0.0
O  O132  1  0.94359165  0.63647738  0.08894126  1  -1.074241  -0.000238  -0.17494  -0.3562  -0.000271  2.285341  0.0
O  O133  1  0.69293662  0.05644858  0.75573918  1  -1.077309  -0.000235  -0.174524  -0.355176  -0.000269  2.284411  0.0
O  O134  1  0.36332961  0.30695306  0.42230453  1  -1.068673  -0.000237  -0.175103  -0.355798  -0.00027  2.283843  0.0
O  O135  1  0.25324208  0.28784429  0.70930644  1  -1.08294  -0.000906  -0.183928  -0.374153  -0.000988  2.246285  0.0
O  O136  1  0.71178176  0.96511542  0.04268832  1  -1.084529  -0.0009  -0.183451  -0.374082  -0.000986  2.246864  0.0
O  O137  1  0.03461434  0.74700835  0.37580227  1  -1.087035  -0.000908  -0.183727  -0.37374  -0.000988  2.247074  0.0
O  O138  1  0.96512466  0.71177362  0.95730627  1  -1.083494  -0.0009  -0.183467  -0.374183  -0.000986  2.246218  0.0
O  O139  1  0.74702020  0.03462254  0.62420256  1  -1.086762  -0.000908  -0.183756  -0.373776  -0.000988  2.246869  0.0
O  O140  1  0.28784388  0.25324695  0.29069082  1  -1.083  -0.000906  -0.183948  -0.374211  -0.000988  2.246211  0.0
O  O141  1  0.97291387  0.00778614  0.76454775  1  -1.04351  -2.5e-05  -0.168003  -0.343335  -2e-06  2.215999  0.0
O  O142  1  0.99188365  0.96455033  0.09756158  1  -1.024047  -2.5e-05  -0.167884  -0.343902  -3e-06  2.215958  0.0
O  O143  1  0.03513167  0.02730263  0.43105202  1  -1.02725  -2.5e-05  -0.168677  -0.344574  -2e-06  2.215009  0.0
O  O144  1  0.96458539  0.99188146  0.90241590  1  -1.024279  -2.5e-05  -0.167615  -0.343456  -3e-06  2.216524  0.0
O  O145  1  0.02726928  0.03507768  0.56892951  1  -1.028491  -2.5e-05  -0.168426  -0.344202  -2e-06  2.215985  0.0
O  O146  1  0.00775520  0.97293601  0.23543118  1  -1.042967  -2.4e-05  -0.167912  -0.34334  -2e-06  2.216146  0.0
