# generated using pymatgen
data_Zn4H4C20O17F2
_symmetry_space_group_name_H-M   'P 1'
_cell_length_a   15.94276067
_cell_length_b   15.94196670
_cell_length_c   17.10812138
_cell_angle_alpha   117.55857985
_cell_angle_beta   117.56029666
_cell_angle_gamma   90.41694179
_symmetry_Int_Tables_number   1
_chemical_formula_structural   Zn4H4C20O17F2
_chemical_formula_sum   'Zn8 H8 C40 O34 F4'
_cell_volume   3279.08087355
_cell_formula_units_Z   2
loop_
 _symmetry_equiv_pos_site_id
 _symmetry_equiv_pos_as_xyz
  1  'x, y, z'
loop_
 _atom_site_type_symbol
 _atom_site_label
 _atom_site_symmetry_multiplicity
 _atom_site_fract_x
 _atom_site_fract_y
 _atom_site_fract_z
 _atom_site_occupancy
 _atom_site_pbe_bader_charge
 _atom_site_pbe_bader_spin_density
 _atom_site_pbe_cm5_charge
 _atom_site_pbe_ddec_charge
 _atom_site_pbe_ddec_spin_density
 _atom_site_pbe_ddec_sum_bond_order
 _atom_site_pbe_magmom
Zn  Zn0  1  0.70492320  0.30718368  0.41238783  1  1.312069  0  0.68143  0.96898  0  2.356427  0
Zn  Zn1  1  0.10541238  0.70592877  0.40969695  1  1.317625  0  0.682489  0.975201  0  2.339787  0
Zn  Zn2  1  0.70592340  0.10540656  0.40968673  1  1.317621  0  0.682492  0.975259  0  2.339592  0
Zn  Zn3  1  0.29407570  0.89458851  0.59030944  1  1.317448  0  0.682519  0.9753  0  2.339582  0
Zn  Zn4  1  0.89458820  0.29406954  0.59030359  1  1.317678  0  0.682469  0.975174  0  2.339817  0
Zn  Zn5  1  0.29507811  0.69281413  0.58761573  1  1.312175  0  0.681416  0.968984  0  2.35639  0
Zn  Zn6  1  0.69282899  0.29507463  0.58762285  1  1.312069  0  0.681382  0.968837  0  2.356719  0
Zn  Zn7  1  0.30717157  0.70492015  0.41237674  1  1.311948  0  0.681414  0.968888  0  2.356583  0
H  H8  1  0.34633456  0.04352985  0.92964623  1  0.140457  0  0.125748  0.145262  0  0.946851  0
H  H9  1  0.37175810  0.96934742  0.17654675  1  0.623582  0  0.356049  0.394192  0  0.833944  0
H  H10  1  0.96975625  0.37157547  0.17657771  1  0.620559  0  0.355937  0.394607  0  0.833451  0
H  H11  1  0.03023993  0.62843012  0.82342291  1  0.620772  0  0.355958  0.394732  0  0.833271  0
H  H12  1  0.62824689  0.03064930  0.82345443  1  0.623494  0  0.356059  0.394234  0  0.833846  0
H  H13  1  0.65366381  0.95647140  0.07035404  1  0.140387  0  0.125759  0.145287  0  0.946828  0
H  H14  1  0.95612792  0.65345200  0.07031977  1  0.141589  0  0.125831  0.145501  0  0.946375  0
H  H15  1  0.04387415  0.34654957  0.92967990  1  0.141602  0  0.125837  0.145479  0  0.946395  0
C  C16  1  0.88597832  0.38941032  0.77775810  1  1.580677  0  0.233012  0.632348  0  4.161592  0
C  C17  1  0.47276463  0.97343491  0.50021229  1  -0.208888  0  -0.013221  -0.105925  0  3.912702  0
C  C18  1  0.97343088  0.47276658  0.50021188  1  -0.208356  0  -0.013153  -0.105966  0  3.912692  0
C  C19  1  0.02656823  0.52723981  0.49979620  1  0.038093  0  -0.0132  -0.105653  0  3.912723  0
C  C20  1  0.52723594  0.02655775  0.49978114  1  0.03828  0  -0.013128  -0.105642  0  3.912583  0
C  C21  1  0.97317863  0.02681365  0.49999528  1  0.058025  0  -0.011794  -0.104074  0  3.906467  0
C  C22  1  0.02682194  0.97318537  0.50000849  1  -0.163893  0  -0.011598  -0.103772  0  3.906415  0
C  C23  1  0.11402299  0.61058678  0.22224166  1  1.580856  0  0.232954  0.632348  0  4.161622  0
C  C24  1  0.90919026  0.40814793  0.50021873  1  1.691081  0  0.241956  0.673442  0  4.223205  0
C  C25  1  0.09080959  0.59185867  0.49978976  1  1.691074  0  0.241942  0.673281  0  4.22343  0
C  C26  1  0.59185276  0.09079955  0.49977518  1  1.690405  0  0.241929  0.673306  0  4.223639  0
C  C27  1  0.40814414  0.90919634  0.50021746  1  1.69048  0  0.241795  0.673089  0  4.223744  0
C  C28  1  0.90917614  0.09081591  0.49999252  1  1.656493  0  0.243998  0.677246  0  4.218289  0
C  C29  1  0.61056422  0.11404913  0.22224886  1  1.580859  0  0.233115  0.632809  0  4.161472  0
C  C30  1  0.09082369  0.90918219  0.50000936  1  1.656587  0  0.243978  0.677142  0  4.218431  0
C  C31  1  0.59069717  0.40932140  0.50001473  1  1.652749  0  0.244493  0.676808  0  4.220381  0
C  C32  1  0.40930341  0.59067691  0.49998640  1  1.652105  0  0.244546  0.676927  0  4.220061  0
C  C33  1  0.52680781  0.47320169  0.50000816  1  0.058445  0  -0.010066  -0.101973  0  3.90893  0
C  C34  1  0.47319720  0.52680139  0.49999986  1  -0.164777  0  -0.010096  -0.101964  0  3.908836  0
C  C35  1  0.38943636  0.88595202  0.77775116  1  1.580827  0  0.233136  0.63269  0  4.16157  0
C  C36  1  0.52109606  0.09536106  0.03093490  1  0.639785  0  0.121414  0.285718  0  3.694706  0
C  C37  1  0.47890379  0.90463988  0.96906530  1  0.63978  0  0.121421  0.285672  0  3.694718  0
C  C38  1  0.90465399  0.47868848  0.96904080  1  0.643489  0  0.12171  0.28609  0  3.694561  0
C  C39  1  0.09534733  0.52131076  0.03095754  1  0.643387  0  0.121695  0.286091  0  3.694614  0
C  C40  1  0.41510873  0.02460482  0.96117963  1  -0.037223  0  -0.063988  -0.137107  0  3.622082  0
C  C41  1  0.58488965  0.97539713  0.03881920  1  -0.037129  0  -0.063986  -0.137074  0  3.622125  0
C  C42  1  0.97520202  0.58476910  0.03879293  1  -0.040855  0  -0.064514  -0.137775  0  3.621564  0
C  C43  1  0.02479857  0.41523205  0.96120593  1  -0.040901  0  -0.064493  -0.137707  0  3.621583  0
C  C44  1  0.44693943  0.94318675  0.89308200  1  0.026348  0  -0.003675  -0.095895  0  3.629163  0
C  C45  1  0.55306042  0.05681349  0.10691790  1  0.026334  0  -0.003676  -0.096018  0  3.62919  0
C  C46  1  0.05678809  0.55307735  0.10691210  1  0.024358  0  -0.00362  -0.095356  0  3.628408  0
C  C47  1  0.94321397  0.44692421  0.89308757  1  0.024142  0  -0.003639  -0.095379  0  3.628463  0
C  C48  1  0.55578736  0.01470425  0.96364756  1  -0.0092  0  0.003091  -0.089194  0  3.61985  0
C  C49  1  0.44421102  0.98529699  0.03635213  1  -0.009106  0  0.003094  -0.089213  0  3.61983  0
C  C50  1  0.98548349  0.44413203  0.03635503  1  -0.009587  0  0.003114  -0.090018  0  3.620353  0
C  C51  1  0.01451931  0.55586974  0.96364622  1  -0.009521  0  0.003098  -0.09002  0  3.62035  0
C  C52  1  0.62403993  0.03914396  0.93573024  1  1.560307  0  0.231091  0.585762  0  4.14435  0
C  C53  1  0.37595847  0.96086365  0.06427280  1  1.559776  0  0.231118  0.58587  0  4.144532  0
C  C54  1  0.96126640  0.37580125  0.06430480  1  1.560164  0  0.231394  0.586654  0  4.144662  0
C  C55  1  0.03873787  0.62419881  0.93569634  1  1.560307  0  0.231434  0.586805  0  4.144508  0
O  O56  1  0.74997338  0.25002761  0.50000205  1  -1.210215  0  -0.572797  -1.046576  0  2.535116  0
O  O57  1  0.20447271  0.61246911  0.26703356  1  -1.16344  0  -0.309468  -0.536433  0  2.30976  0
O  O58  1  0.61243171  0.20449931  0.26704827  1  -1.16378  0  -0.309599  -0.536709  0  2.310032  0
O  O59  1  0.38757035  0.79550013  0.73295223  1  -1.163751  0  -0.309647  -0.536725  0  2.309981  0
O  O60  1  0.94926417  0.39243019  0.57429642  1  -1.143366  0  -0.299328  -0.52745  0  2.272236  0
O  O61  1  0.05073640  0.60756812  0.42570646  1  -1.1437  0  -0.299269  -0.527365  0  2.272214  0
O  O62  1  0.60757099  0.05072521  0.42569822  1  -1.14255  0  -0.299283  -0.52745  0  2.272233  0
O  O63  1  0.39241928  0.94927095  0.57428876  1  -1.142601  0  -0.299287  -0.527354  0  2.272397  0
O  O64  1  0.25002720  0.74997071  0.49999849  1  -1.210293  0  -0.572816  -1.04666  0  2.535113  0
O  O65  1  0.95173670  0.18290583  0.55274288  1  -1.143117  0  -0.300661  -0.527882  0  2.264743  0
O  O66  1  0.04826314  0.81709228  0.44725668  1  -1.143163  0  -0.300637  -0.527844  0  2.26484  0
O  O67  1  0.81708963  0.04825522  0.44723309  1  -1.143378  0  -0.300639  -0.52792  0  2.264734  0
O  O68  1  0.18291094  0.95174168  0.55276684  1  -1.143336  0  -0.300613  -0.527883  0  2.264784  0
O  O69  1  0.59413273  0.36314384  0.54500905  1  -1.140207  0  -0.300532  -0.526413  0  2.264886  0
O  O70  1  0.40586858  0.63685468  0.45499307  1  -1.140161  0  -0.30055  -0.526441  0  2.264807  0
O  O71  1  0.63687504  0.40589157  0.45502534  1  -1.140199  0  -0.300575  -0.52656  0  2.264979  0
O  O72  1  0.36312184  0.59410217  0.54497222  1  -1.13963  0  -0.30055  -0.526598  0  2.264842  0
O  O73  1  0.81946352  0.37430256  0.42619013  1  -1.145384  0  -0.297735  -0.521848  0  2.269621  0
O  O74  1  0.18053485  0.62570150  0.57381779  1  -1.144973  0  -0.297734  -0.521809  0  2.269742  0
O  O75  1  0.62569626  0.18052690  0.57380136  1  -1.145262  0  -0.297728  -0.521806  0  2.270033  0
O  O76  1  0.37430504  0.81946666  0.42619686  1  -1.145415  0  -0.297644  -0.521687  0  2.269867  0
O  O77  1  0.93350446  0.34746316  0.73495975  1  -1.156836  0  -0.310055  -0.54005  0  2.311143  0
O  O78  1  0.06649982  0.65253831  0.26504142  1  -1.156936  0  -0.310013  -0.540015  0  2.311133  0
O  O79  1  0.65253884  0.06652157  0.26503832  1  -1.156901  0  -0.310099  -0.54016  0  2.310488  0
O  O80  1  0.34746248  0.93347625  0.73495941  1  -1.156821  0  -0.310102  -0.540095  0  2.310578  0
O  O81  1  0.79552712  0.38752475  0.73296474  1  -1.163497  0  -0.309479  -0.536395  0  2.309758  0
O  O82  1  0.71086722  0.08455708  0.99932730  1  -1.126243  0  -0.289799  -0.475312  0  2.030795  0
O  O83  1  0.57880619  0.00777905  0.83352619  1  -1.111456  0  -0.328125  -0.476429  0  2.219765  0
O  O84  1  0.28912532  0.91546801  0.00067959  1  -1.125756  0  -0.289817  -0.475334  0  2.030901  0
O  O85  1  0.42119951  0.99220796  0.16647227  1  -1.111552  0  -0.328124  -0.476428  0  2.219856  0
O  O86  1  0.91610428  0.28890420  0.00076191  1  -1.126646  0  -0.290148  -0.475544  0  2.031047  0
O  O87  1  0.99251045  0.42105477  0.16648179  1  -1.107975  0  -0.327731  -0.47696  0  2.219454  0
O  O88  1  0.08391103  0.71109257  0.99924200  1  -1.126598  0  -0.290204  -0.4757  0  2.030917  0
O  O89  1  0.00748204  0.57895120  0.83351740  1  -1.108174  0  -0.327754  -0.477094  0  2.219225  0
F  F90  1  0.54203798  0.19140229  0.05964753  1  -0.626352  0  -0.106663  -0.151803  0  1.293564  0
F  F91  1  0.45795965  0.80859945  0.94035323  1  -0.626315  0  -0.106642  -0.151759  0  1.293557  0
F  F92  1  0.80862629  0.45753332  0.94030149  1  -0.625409  0  -0.106805  -0.151883  0  1.293704  0
F  F93  1  0.19137504  0.54246875  0.05969808  1  -0.625464  0  -0.10682  -0.15192  0  1.293719  0
