# generated using pymatgen
data_CuH16C27(NO3)2
_symmetry_space_group_name_H-M   'P 1'
_cell_length_a   9.13029839
_cell_length_b   10.45155855
_cell_length_c   12.16490000
_cell_angle_alpha   94.38354718
_cell_angle_beta   93.14782834
_cell_angle_gamma   91.16239429
_symmetry_Int_Tables_number   1
_chemical_formula_structural   CuH16C27(NO3)2
_chemical_formula_sum   'Cu2 H32 C54 N4 O12'
_cell_volume   1155.35421685
_cell_formula_units_Z   2
loop_
 _symmetry_equiv_pos_site_id
 _symmetry_equiv_pos_as_xyz
  1  'x, y, z'
loop_
 _atom_site_type_symbol
 _atom_site_label
 _atom_site_symmetry_multiplicity
 _atom_site_fract_x
 _atom_site_fract_y
 _atom_site_fract_z
 _atom_site_occupancy
 _atom_site_pbe_bader_charge
 _atom_site_pbe_bader_spin_density
 _atom_site_pbe_cm5_charge
 _atom_site_pbe_ddec_charge
 _atom_site_pbe_ddec_spin_density
 _atom_site_pbe_ddec_sum_bond_order
 _atom_site_pbe_magmom
Cu  Cu0  1  0.13495521  0.69281776  0.22316938  1  1.043932  0.550058  0.743794  0.758625  0.714855  2.211412  0.549
Cu  Cu1  1  0.86504402  0.30718191  0.77683032  1  1.043858  0.550057  0.743813  0.758679  0.714851  2.211389  0.549
H  H2  1  0.28721743  0.58079735  0.40450360  1  0.655532  7.1e-05  0.297665  0.358561  -5.1e-05  0.994602  0.0
H  H3  1  0.71278071  0.41920233  0.59549606  1  0.655522  7.1e-05  0.297653  0.358545  -5.1e-05  0.994639  0.0
H  H4  1  0.55578880  0.85357768  0.50488590  1  0.100346  4e-06  0.107357  0.114725  -2.6e-05  0.999373  0.0
H  H5  1  0.44420613  0.14642488  0.49511464  1  0.100405  4e-06  0.107347  0.114715  -2.6e-05  0.999416  0.0
H  H6  1  0.77527907  0.00288352  0.52563457  1  0.104842  0.000287  0.102787  0.111305  0.000199  1.025141  0.0
H  H7  1  0.22471915  0.99711904  0.47436856  1  0.104867  0.000287  0.102782  0.111282  0.000199  1.025253  0.0
H  H8  1  0.78732602  0.99371718  0.17200721  1  0.069052  2.2e-05  0.102307  0.106797  1e-05  1.016353  0.0
H  H9  1  0.21267757  0.00628154  0.82799425  1  0.069035  2.2e-05  0.102321  0.10681  1e-05  1.016363  0.0
H  H10  1  0.55771777  0.85699393  0.15218478  1  0.089988  0.00047  0.101314  0.106431  0.000373  1.003468  0.0
H  H11  1  0.44228371  0.14300766  0.84781596  1  0.089974  0.00047  0.101307  0.106435  0.000373  1.003464  0.0
H  H12  1  0.25716230  0.15864143  0.26140961  1  0.110819  0.000112  0.107836  0.115777  1.7e-05  0.994905  0.0
H  H13  1  0.74283805  0.84135920  0.73859103  1  0.110804  0.000112  0.107851  0.115785  1.7e-05  0.994883  0.0
H  H14  1  0.00269828  0.40011199  0.47706012  1  0.081383  1.7e-05  0.102199  0.107677  -8e-06  1.037494  0.0
H  H15  1  0.99729988  0.59988865  0.52293960  1  0.081497  1.7e-05  0.102205  0.107696  -8e-06  1.037473  0.0
H  H16  1  0.81007092  0.23002480  0.47117405  1  0.099469  -3e-06  0.105336  0.120221  -5.5e-05  1.017735  0.0
H  H17  1  0.18992940  0.76997488  0.52882651  1  0.09948  -3e-06  0.105338  0.120225  -5.5e-05  1.017755  0.0
H  H18  1  0.37974398  0.56655638  0.08557565  1  0.099877  0.002488  0.121419  0.092608  0.001151  0.998082  0.002
H  H19  1  0.62025744  0.43344329  0.91442497  1  0.099879  0.002488  0.121428  0.09262  0.001151  0.998067  0.002
H  H20  1  0.39643286  0.35301486  0.97485065  1  0.076912  0.001176  0.109481  0.11207  0.000617  1.006534  0.001
H  H21  1  0.60357073  0.64698386  0.02514916  1  0.076939  0.001176  0.109509  0.112111  0.000617  1.006554  0.001
H  H22  1  0.18263893  0.19682691  0.96630078  1  0.121243  6.3e-05  0.11946  0.124665  -1.1e-05  0.979422  0.0
H  H23  1  0.81736249  0.80317276  0.03369901  1  0.121257  6.3e-05  0.119451  0.124669  -1.1e-05  0.97933  0.0
H  H24  1  0.92597816  0.14738285  0.02566231  1  0.177018  0.000571  0.112253  0.140606  0.000327  1.024897  0.0
H  H25  1  0.07402332  0.85261874  0.97433761  1  0.17701  0.000571  0.112269  0.14063  0.000327  1.024862  0.0
H  H26  1  0.71400532  0.21533652  0.13425245  1  0.0889  0.000718  0.110665  0.116318  0.000376  0.983964  0.0
H  H27  1  0.28599498  0.78466219  0.86574641  1  0.088902  0.000718  0.110658  0.116311  0.000376  0.983997  0.0
H  H28  1  0.59801500  0.38465292  0.26661057  1  0.154027  0.000153  0.116464  0.137322  5.6e-05  1.005602  0.0
H  H29  1  0.40198536  0.61534772  0.73338924  1  0.154015  0.000153  0.116455  0.137308  5.6e-05  1.005629  0.0
H  H30  1  0.62454430  0.59764634  0.37031868  1  0.118028  0.001123  0.114512  0.127173  0.000607  1.005307  0.001
H  H31  1  0.37545712  0.40235333  0.62968029  1  0.118  0.001123  0.114522  0.12718  0.000607  1.005393  0.001
H  H32  1  0.84858461  0.73768506  0.34944262  1  0.168852  0.002666  0.120902  0.095693  0.001288  1.023585  0.002
H  H33  1  0.15141682  0.26231462  0.65055635  1  0.168583  0.002666  0.120901  0.095703  0.001288  1.02361  0.002
C  C34  1  0.40991512  0.76172076  0.31721603  1  1.558308  0.001508  0.209564  0.568128  0.001475  4.203007  0.0
C  C35  1  0.59008189  0.23827795  0.68278105  1  1.558401  0.001509  0.2095  0.568033  0.001475  4.202883  0.0
C  C36  1  0.54403499  0.84677300  0.32740981  1  -0.020899  0.008007  -0.02277  -0.047886  0.005639  3.994692  0.006
C  C37  1  0.45596210  0.15322860  0.67259075  1  -0.020869  0.008007  -0.022684  -0.04767  0.005638  3.994491  0.006
C  C38  1  0.60622537  0.88669109  0.43269291  1  -0.02466  0.000993  -0.079921  -0.086605  0.000529  3.967566  0.001
C  C39  1  0.39377172  0.11331051  0.56730683  1  -0.025335  0.000994  -0.079954  -0.086663  0.00053  3.967653  0.001
C  C40  1  0.72891971  0.96865631  0.44400266  1  -0.061584  0.000922  -0.083515  -0.118404  0.000609  3.935538  0.001
C  C41  1  0.27108059  0.03134241  0.55599867  1  -0.06095  0.000922  -0.083511  -0.118424  0.000609  3.935813  0.001
C  C42  1  0.79614735  0.00661462  0.35034856  1  -0.021086  -0.000382  -0.000138  0.084451  -0.000453  3.98975  0.0
C  C43  1  0.20385405  0.99338410  0.64965281  1  -0.018012  -0.000382  -8.8e-05  0.084546  -0.000453  3.989706  0.0
C  C44  1  0.73564351  0.96357464  0.24483716  1  -0.041873  0.000192  -0.095191  -0.150943  1.9e-05  3.994624  0.0
C  C45  1  0.26435794  0.03642600  0.75516434  1  -0.044919  0.000192  -0.095231  -0.151015  1.9e-05  3.994729  0.0
C  C46  1  0.60874068  0.88677268  0.23350231  1  -0.106403  -0.000147  -0.090818  -0.098218  -0.000252  4.005181  0.0
C  C47  1  0.39125855  0.11322700  0.76649821  1  -0.106485  -0.000147  -0.090824  -0.098256  -0.000252  4.00524  0.0
C  C48  1  0.92234544  0.09791383  0.36197176  1  -0.057998  0.003054  0.004542  0.055635  0.001996  3.958051  0.002
C  C49  1  0.07765488  0.90208584  0.63802881  1  -0.057973  0.003054  0.004547  0.055644  0.001997  3.958049  0.002
C  C50  1  0.05062963  0.07669925  0.30421249  1  0.022565  0.008927  -0.009292  -0.060875  0.006355  3.930209  0.007
C  C51  1  0.94936958  0.92329947  0.69578962  1  0.022591  0.008927  -0.009272  -0.060823  0.006355  3.930145  0.007
C  C52  1  0.07535628  0.95041163  0.24009559  1  1.525601  -0.000375  0.199546  0.568231  -0.000504  4.233719  -0.002
C  C53  1  0.92464293  0.04958709  0.75990651  1  1.525979  -0.000373  0.199541  0.568183  -0.000504  4.233776  -0.002
C  C54  1  0.15888260  0.17335562  0.30738863  1  -0.032199  0.004296  -0.078411  -0.113734  0.002775  3.954583  0.003
C  C55  1  0.84111550  0.82664309  0.69261179  1  -0.032208  0.004295  -0.078425  -0.113749  0.002774  3.954576  0.003
C  C56  1  0.14213629  0.29058057  0.36868778  1  -0.107719  0.000536  -0.025447  -0.058687  0.000221  4.01238  0.0
C  C57  1  0.85786182  0.70941814  0.63131181  1  -0.107824  0.000538  -0.025464  -0.05866  0.000223  4.012327  0.0
C  C58  1  0.25465417  0.39500632  0.36405332  1  1.527862  0.000128  0.21884  0.573188  1.6e-05  4.146313  0.0
C  C59  1  0.74534616  0.60499336  0.63594561  1  1.527923  0.000128  0.218771  0.573082  1.6e-05  4.14639  0.0
C  C60  1  0.01716707  0.30944822  0.42940895  1  -0.00905  0.003548  -0.08711  -0.091519  0.002321  3.976948  0.002
C  C61  1  0.98283216  0.69055146  0.57059157  1  -0.009058  0.003547  -0.087108  -0.091534  0.00232  3.976882  0.002
C  C62  1  0.90895969  0.21379877  0.42627911  1  0.023889  -0.000829  -0.084264  -0.112193  -0.000995  3.942275  -0.001
C  C63  1  0.09103844  0.78620090  0.57372137  1  0.02391  -0.000829  -0.084268  -0.112216  -0.000995  3.942302  -0.001
C  C64  1  0.28928952  0.49620202  0.07772250  1  0.537226  -0.000923  0.063863  0.123641  -0.001287  3.925802  -0.001
C  C65  1  0.71071078  0.50379669  0.92227718  1  0.537163  -0.000922  0.063832  0.123616  -0.001287  3.925763  -0.001
C  C66  1  0.29730817  0.37657350  0.01726546  1  -0.034326  0.005496  -0.079759  -0.128032  0.003747  3.963564  0.004
C  C67  1  0.70269540  0.62342425  0.98273594  1  -0.034301  0.005496  -0.079743  -0.128043  0.003747  3.963626  0.004
C  C68  1  0.17961781  0.29019470  0.01251253  1  -0.049114  -0.002952  -0.047801  -0.048308  -0.003429  3.871415  -0.002
C  C69  1  0.82038361  0.70980498  0.98748644  1  -0.049109  -0.002952  -0.047816  -0.048334  -0.003428  3.871407  -0.002
C  C70  1  0.05295563  0.32336762  0.06899436  1  0.009178  0.003073  0.005774  0.053474  0.002135  3.989058  0.003
C  C71  1  0.94704470  0.67663205  0.93100457  1  0.009184  0.003073  0.005788  0.053486  0.002135  3.989009  0.003
C  C72  1  0.05421964  0.44617819  0.12673670  1  0.490809  0.001431  0.113076  0.114886  0.00067  3.998423  0.001
C  C73  1  0.94578072  0.55382245  0.87326229  1  0.490808  0.001432  0.113057  0.114835  0.000671  3.998416  0.001
C  C74  1  0.92636645  0.24068056  0.07210533  1  0.003028  0.001239  -0.074823  -0.120293  0.000774  3.948904  0.001
C  C75  1  0.07363609  0.75932007  0.92789539  1  0.003033  0.001239  -0.07482  -0.120273  0.000774  3.948829  0.001
C  C76  1  0.80947076  0.27914633  0.13108901  1  -0.018564  0.001122  -0.077835  -0.112861  0.000795  3.95908  0.001
C  C77  1  0.19052956  0.72085334  0.86891156  1  -0.018589  0.001122  -0.077856  -0.112888  0.000796  3.959167  0.001
C  C78  1  0.80922549  0.40192042  0.19200722  1  -0.000183  0.003782  0.001886  0.050561  0.002701  4.019006  0.003
C  C79  1  0.19077376  0.59808021  0.80799254  1  -0.000168  0.003782  0.001876  0.050519  0.002701  4.018983  0.003
C  C80  1  0.93188502  0.48576895  0.18794710  1  0.421221  0.00155  0.109961  0.11112  0.000938  4.013553  0.001
C  C81  1  0.06811531  0.51423072  0.81205265  1  0.421215  0.00155  0.109958  0.111159  0.000938  4.013553  0.001
C  C82  1  0.69552809  0.44470667  0.25898808  1  -0.03781  -0.003691  -0.054652  -0.067195  -0.004216  3.865339  -0.002
C  C83  1  0.30447226  0.55529397  0.74101009  1  -0.037791  -0.003691  -0.054608  -0.067128  -0.004216  3.865228  -0.002
C  C84  1  0.70956252  0.56401267  0.31662710  1  -0.024253  0.00673  -0.072507  -0.105181  0.004594  3.922109  0.005
C  C85  1  0.29043781  0.43598701  0.68337183  1  -0.024252  0.00673  -0.072512  -0.105159  0.004594  3.922203  0.005
C  C86  1  0.83439161  0.64266722  0.30615661  1  0.486981  -0.001447  0.066561  0.121598  -0.001962  3.89929  -0.001
C  C87  1  0.16560871  0.35733246  0.69384149  1  0.487223  -0.001447  0.066576  0.121594  -0.001961  3.899287  -0.001
N  N88  1  0.17017896  0.53021197  0.12998520  1  -1.216334  0.079562  -0.344159  -0.277612  0.053227  3.638698  0.068
N  N89  1  0.82982136  0.46978770  0.87001372  1  -1.216284  0.079564  -0.344141  -0.277573  0.053228  3.638592  0.068
N  N90  1  0.94234998  0.60409490  0.24301129  1  -1.234164  0.086973  -0.345529  -0.279722  0.057899  3.634898  0.075
N  N91  1  0.05765037  0.39590574  0.75698770  1  -1.234134  0.086976  -0.345578  -0.279814  0.057902  3.634845  0.075
O  O92  1  0.34012276  0.75046890  0.22151282  1  -1.116042  0.100138  -0.332816  -0.537836  0.064131  2.341278  0.089
O  O93  1  0.65987438  0.24953461  0.77848540  1  -1.115962  0.10014  -0.332791  -0.537831  0.064132  2.341223  0.089
O  O94  1  0.37333630  0.70743692  0.40125260  1  -1.183385  0.004318  -0.307906  -0.544227  0.002122  2.239615  0.004
O  O95  1  0.62665975  0.29256659  0.59874558  1  -1.183455  0.004319  -0.307912  -0.544257  0.002122  2.239665  0.004
O  O96  1  0.09093158  0.94558337  0.13887256  1  -1.144623  0.001881  -0.322011  -0.550514  0.000252  2.128382  0.002
O  O97  1  0.90906973  0.05441247  0.86113191  1  -1.14472  0.00188  -0.321996  -0.550482  0.000252  2.128358  0.002
O  O98  1  0.08082544  0.85324939  0.30125227  1  -1.077597  0.120981  -0.32845  -0.533408  0.077363  2.32122  0.108
O  O99  1  0.91917486  0.14674932  0.69875070  1  -1.077896  0.120969  -0.328476  -0.533452  0.077356  2.321417  0.108
O  O100  1  0.36900568  0.38106868  0.31536142  1  -1.169149  0.000113  -0.306313  -0.51546  6.2e-05  2.121135  0.0
O  O101  1  0.63099245  0.61893100  0.68463659  1  -1.16914  0.000114  -0.306294  -0.51544  6.3e-05  2.121154  0.0
O  O102  1  0.21542713  0.50588638  0.41518637  1  -1.177941  0.000246  -0.337935  -0.511782  5e-06  2.361069  0.0
O  O103  1  0.78457317  0.49411234  0.58481496  1  -1.177946  0.000246  -0.337879  -0.511707  5e-06  2.361034  0.0
