# generated using pymatgen
data_BaH9C5N3O7
_symmetry_space_group_name_H-M   'P 1'
_cell_length_a   6.70581569
_cell_length_b   7.64041714
_cell_length_c   10.70818114
_cell_angle_alpha   74.12871560
_cell_angle_beta   79.67521685
_cell_angle_gamma   72.72760489
_symmetry_Int_Tables_number   1
_chemical_formula_structural   BaH9C5N3O7
_chemical_formula_sum   'Ba2 H18 C10 N6 O14'
_cell_volume   501.04494731
_cell_formula_units_Z   2
loop_
 _symmetry_equiv_pos_site_id
 _symmetry_equiv_pos_as_xyz
  1  'x, y, z'
loop_
 _atom_site_type_symbol
 _atom_site_label
 _atom_site_symmetry_multiplicity
 _atom_site_fract_x
 _atom_site_fract_y
 _atom_site_fract_z
 _atom_site_occupancy
 _atom_site_hle17_bader_spin_density
 _atom_site_hle17_ddec_charge
 _atom_site_hle17_ddec_spin_density
 _atom_site_hle17_ddec_sum_bond_order
 _atom_site_hle17_magmom
 _atom_site_hse06_10hf_bader_spin_density
 _atom_site_hse06_10hf_ddec_charge
 _atom_site_hse06_10hf_ddec_spin_density
 _atom_site_hse06_10hf_ddec_sum_bond_order
 _atom_site_hse06_10hf_magmom
 _atom_site_hse06_bader_spin_density
 _atom_site_hse06_ddec_charge
 _atom_site_hse06_ddec_spin_density
 _atom_site_hse06_ddec_sum_bond_order
 _atom_site_hse06_magmom
 _atom_site_pbe_bader_spin_density
 _atom_site_pbe_cm5_charge
 _atom_site_pbe_ddec_charge
 _atom_site_pbe_ddec_spin_density
 _atom_site_pbe_ddec_sum_bond_order
 _atom_site_pbe_magmom
Ba  Ba0  1  0.24022578  0.42492232  0.15358341  1  0  1.622785  0  1.147706  0  0  1.468182  0  1.55468  0  0  1.507976  0  1.51136  0  0  0.932985  1.439143  0  1.58502  0
Ba  Ba1  1  0.75977405  0.57507592  0.84641742  1  0  1.622779  0  1.147695  0  0  1.468179  0  1.554659  0  0  1.507968  0  1.511348  0  0  0.932983  1.439143  0  1.585001  0
H  H2  1  0.84190483  0.18521328  0.28943432  1  0  0.113391  0  0.94396  0  0  0.123666  0  1.003636  0  0  0.126522  0  1.000681  0  0  0.155936  0.121491  0  1.005868  0
H  H3  1  0.15809915  0.81478635  0.71056577  1  0  0.113443  0  0.943955  0  0  0.123635  0  1.003731  0  0  0.126491  0  1.000776  0  0  0.155926  0.121463  0  1.00596  0
H  H4  1  0.86049147  0.67705633  0.39971081  1  0  0.139985  0  0.925065  0  0  0.152979  0  0.982976  0  0  0.156269  0  0.980313  0  0  0.135604  0.150526  0  0.985121  0
H  H5  1  0.13950949  0.32294331  0.60029055  1  0  0.140023  0  0.925009  0  0  0.152968  0  0.982959  0  0  0.156257  0  0.980294  0  0  0.135611  0.150514  0  0.985104  0
H  H6  1  0.76935110  0.89119278  0.45313982  1  0  0.136453  0  0.916583  0  0  0.149027  0  0.978496  0  0  0.151719  0  0.976516  0  0  0.133398  0.147093  0  0.979991  0
H  H7  1  0.23064905  0.10880968  0.54686108  1  0  0.136454  0  0.916607  0  0  0.14901  0  0.97852  0  0  0.151702  0  0.976535  0  0  0.133402  0.14708  0  0.98001  0
H  H8  1  0.58793416  0.39369537  0.39185449  1  0  0.420237  0  0.880491  0  0  0.385343  0  0.950456  0  0  0.397168  0  0.933051  0  0  0.29192  0.376934  0  0.962822  0
H  H9  1  0.41206638  0.60630568  0.60814571  1  0  0.420234  0  0.880494  0  0  0.385345  0  0.950451  0  0  0.39717  0  0.933046  0  0  0.291915  0.376936  0  0.962816  0
H  H10  1  0.76927661  0.72482265  0.09805226  1  0  0.418743  0  0.892033  0  0  0.381925  0  0.966728  0  0  0.393604  0  0.94968  0  0  0.294274  0.373639  0  0.978809  0
H  H11  1  0.23072585  0.27517699  0.90194707  1  0  0.418749  0  0.892033  0  0  0.381926  0  0.966735  0  0  0.393605  0  0.949687  0  0  0.294272  0.37364  0  0.978816  0
H  H12  1  0.51063827  0.00555377  0.23987336  1  0  0.406806  0  0.906753  0  0  0.372742  0  0.976821  0  0  0.384385  0  0.959851  0  0  0.282275  0.364534  0  0.988761  0
H  H13  1  0.48936076  0.99444729  0.76012701  1  0  0.406814  0  0.90675  0  0  0.372751  0  0.976815  0  0  0.384395  0  0.959846  0  0  0.282282  0.364544  0  0.988754  0
H  H14  1  0.42351480  0.58928550  0.35516010  1  0  0.414289  0  0.876055  0  0  0.380871  0  0.94885  0  0  0.390719  0  0.93444  0  0  0.29833  0.373903  0  0.959062  0
H  H15  1  0.57648463  0.41071414  0.64484050  1  0  0.414293  0  0.876047  0  0  0.380873  0  0.948847  0  0  0.390721  0  0.934437  0  0  0.298339  0.373906  0  0.959059  0
H  H16  1  0.71127225  0.54376517  0.18644787  1  0  0.42463  0  0.872224  0  0  0.397347  0  0.930142  0  0  0.408084  0  0.91424  0  0  0.300974  0.389694  0  0.941448  0
H  H17  1  0.28872910  0.45623306  0.81355278  1  0  0.424596  0  0.872272  0  0  0.397308  0  0.9302  0  0  0.408044  0  0.9143  0  0  0.300963  0.389654  0  0.941508  0
H  H18  1  0.35622230  0.95370786  0.36601904  1  0  0.417465  0  0.879513  0  0  0.385667  0  0.9452  0  0  0.395963  0  0.930101  0  0  0.287285  0.378382  0  0.955862  0
H  H19  1  0.64377633  0.04629460  0.63398204  1  0  0.417471  0  0.879504  0  0  0.385669  0  0.945198  0  0  0.395965  0  0.930099  0  0  0.287283  0.378384  0  0.95586  0
C  C20  1  0.31052875  0.90345646  0.98803033  1  0  0.644154  0  3.929803  0  0  0.585867  0  4.237125  0  0  0.619872  0  4.227385  0  0  0.233191  0.562808  0  4.242997  0
C  C21  1  0.68946724  0.09654462  0.01196758  1  0  0.644019  0  3.929639  0  0  0.585796  0  4.23692  0  0  0.619792  0  4.227177  0  0  0.233173  0.562765  0  4.2428  0
C  C22  1  0.16788301  0.94355284  0.10677427  1  0  0.183765  0  3.779501  0  0  0.163613  0  4.065937  0  0  0.169825  0  4.078694  0  0  0.223842  0.159365  0  4.057421  0
C  C23  1  0.83211338  0.05644683  0.89322293  1  0  0.184082  0  3.779177  0  0  0.163764  0  4.065788  0  0  0.170011  0  4.078487  0  0  0.223834  0.159417  0  4.057411  0
C  C24  1  0.94954254  0.08326638  0.23930423  1  0  0.178656  0  3.650466  0  0  0.102251  0  3.924556  0  0  0.115677  0  3.933944  0  0  0.179981  0.093577  0  3.918159  0
C  C25  1  0.05045880  0.91673186  0.76069456  1  0  0.178565  0  3.650596  0  0  0.102216  0  3.924647  0  0  0.11564  0  3.934041  0  0  0.179966  0.093541  0  3.918242  0
C  C26  1  0.90809494  0.79556951  0.41344396  1  0  -0.19526  0  3.610619  0  0  -0.27027  0  3.858704  0  0  -0.271726  0  3.863154  0  0  -0.042581  -0.269257  0  3.855938  0
C  C27  1  0.09190560  0.20443155  0.58655624  1  0  -0.195247  0  3.610766  0  0  -0.270161  0  3.858773  0  0  -0.271607  0  3.863208  0  0  -0.042544  -0.269158  0  3.856009  0
C  C28  1  0.07310439  0.71542544  0.51127865  1  0  0.701842  0  3.861918  0  0  0.648306  0  4.176201  0  0  0.680854  0  4.169019  0  0  0.223568  0.626279  0  4.180147  0
C  C29  1  0.92689697  0.28457279  0.48872387  1  0  0.701797  0  3.861947  0  0  0.648216  0  4.176276  0  0  0.680763  0  4.169095  0  0  0.223528  0.62619  0  4.18022  0
N  N30  1  0.12369144  0.80402919  0.20446160  1  0  -0.326444  0  2.948331  0  0  -0.315955  0  3.212481  0  0  -0.324839  0  3.226181  0  0  -0.246354  -0.309938  0  3.203526  0
N  N31  1  0.87630687  0.19596906  0.79553659  1  0  -0.32658  0  2.948441  0  0  -0.316031  0  3.212586  0  0  -0.324924  0  3.226277  0  0  -0.24639  -0.309981  0  3.203659  0
N  N32  1  0.06406918  0.11917319  0.12492750  1  0  -0.435463  0  3.065157  0  0  -0.390825  0  3.344965  0  0  -0.406561  0  3.358274  0  0  -0.348446  -0.380115  0  3.33577  0
N  N33  1  0.93592913  0.88082506  0.87507069  1  0  -0.435489  0  3.065125  0  0  -0.390792  0  3.344938  0  0  -0.406534  0  3.358229  0  0  -0.348399  -0.380051  0  3.335771  0
N  N34  1  0.98468831  0.89598108  0.28798057  1  0  0.092899  0  3.614248  0  0  0.206164  0  3.805331  0  0  0.199132  0  3.825276  0  0  -0.126532  0.210442  0  3.7921  0
N  N35  1  0.01531112  0.10401857  0.71201816  1  0  0.092857  0  3.614547  0  0  0.206133  0  3.805538  0  0  0.199097  0  3.82549  0  0  -0.126533  0.210416  0  3.792297  0
O  O36  1  0.38882240  0.73125726  0.98481762  1  0  -0.713663  0  1.98888  0  0  -0.647772  0  2.237075  0  0  -0.675063  0  2.228783  0  0  -0.386854  -0.628593  0  2.242171  0
O  O37  1  0.61117520  0.26873818  0.01518214  1  0  -0.713615  0  1.988932  0  0  -0.647747  0  2.237121  0  0  -0.675034  0  2.228823  0  0  -0.386833  -0.628567  0  2.242206  0
O  O38  1  0.33959052  0.04429144  0.89822140  1  0  -0.618661  0  2.035252  0  0  -0.549933  0  2.251351  0  0  -0.575996  0  2.24242  0  0  -0.281645  -0.531768  0  2.257135  0
O  O39  1  0.66040627  0.95570681  0.10177883  1  0  -0.618688  0  2.035198  0  0  -0.549959  0  2.251276  0  0  -0.576023  0  2.242345  0  0  -0.281647  -0.531791  0  2.25705  0
O  O40  1  0.01356904  0.62192760  0.62039012  1  0  -0.694751  0  2.004038  0  0  -0.637642  0  2.258282  0  0  -0.665131  0  2.249751  0  0  -0.374204  -0.618182  0  2.263409  0
O  O41  1  0.98643302  0.37807344  0.37960898  1  0  -0.694769  0  2.003981  0  0  -0.637644  0  2.258223  0  0  -0.665134  0  2.249693  0  0  -0.374217  -0.618182  0  2.263347  0
O  O42  1  0.50821203  0.48166365  0.31878071  1  0  -0.857025  0  1.836675  0  0  -0.795492  0  2.013268  0  0  -0.815503  0  1.980598  0  0  -0.590237  -0.781202  0  2.036085  0
O  O43  1  0.49178852  0.51833740  0.68121949  1  0  -0.857025  0  1.836667  0  0  -0.795482  0  2.013252  0  0  -0.815491  0  1.980583  0  0  -0.590238  -0.781188  0  2.036067  0
O  O44  1  0.25563059  0.74514676  0.47846854  1  0  -0.679224  0  1.957716  0  0  -0.607851  0  2.171695  0  0  -0.633812  0  2.160358  0  0  -0.312931  -0.589715  0  2.179098  0
O  O45  1  0.74437147  0.25485428  0.52153149  1  0  -0.679181  0  1.95771  0  0  -0.6078  0  2.171711  0  0  -0.633761  0  2.160373  0  0  -0.31291  -0.589667  0  2.179112  0
O  O46  1  0.81018236  0.58451531  0.11093784  1  0  -0.913447  0  1.846295  0  0  -0.857745  0  2.040995  0  0  -0.879109  0  2.009729  0  0  -0.633131  -0.842477  0  2.062788  0
O  O47  1  0.18981707  0.41548434  0.88906183  1  0  -0.913428  0  1.846315  0  0  -0.857713  0  2.04101  0  0  -0.879078  0  2.009748  0  0  -0.633116  -0.842444  0  2.062805  0
O  O48  1  0.41830107  0.05583859  0.31331307  1  0  -0.882157  0  1.775151  0  0  -0.830461  0  1.949912  0  0  -0.850032  0  1.919349  0  0  -0.630654  -0.816564  0  1.971237  0
O  O49  1  0.58169451  0.94416390  0.68668554  1  0  -0.882158  0  1.775113  0  0  -0.830465  0  1.949875  0  0  -0.850035  0  1.919311  0  0  -0.630646  -0.816567  0  1.971199  0
