# generated using pymatgen
data_ZnH12C21NO6
_symmetry_space_group_name_H-M   'P 1'
_cell_length_a   11.94650202
_cell_length_b   18.27388064
_cell_length_c   19.66875479
_cell_angle_alpha   89.98548287
_cell_angle_beta   90.46561020
_cell_angle_gamma   89.95840365
_symmetry_Int_Tables_number   1
_chemical_formula_structural   ZnH12C21NO6
_chemical_formula_sum   'Zn2 H24 C42 N2 O12'
_cell_volume   4293.72218867
_cell_formula_units_Z   2
loop_
 _symmetry_equiv_pos_site_id
 _symmetry_equiv_pos_as_xyz
  1  'x, y, z'
loop_
 _atom_site_type_symbol
 _atom_site_label
 _atom_site_symmetry_multiplicity
 _atom_site_fract_x
 _atom_site_fract_y
 _atom_site_fract_z
 _atom_site_occupancy
 _atom_site_pbe_bader_charge
 _atom_site_pbe_bader_spin_density
 _atom_site_pbe_cm5_charge
 _atom_site_pbe_ddec_charge
 _atom_site_pbe_ddec_spin_density
 _atom_site_pbe_ddec_sum_bond_order
 _atom_site_pbe_magmom
Zn  Zn0  1  0.49995100  0.42327215  0.49999151  1  1.271883  0  0.665848  0.811986  0  2.444223  0
Zn  Zn1  1  0.50005898  0.57672832  0.50000532  1  1.254223  0  0.665769  0.811852  0  2.444525  0
H  H2  1  0.50063909  0.61739024  0.71592502  1  0.100215  0  0.0982  0.115254  0  1.027041  0
H  H3  1  0.49935164  0.38260749  0.28407124  1  0.100233  0  0.098173  0.115208  0  1.027105  0
H  H4  1  0.49899477  0.61745592  0.28402633  1  0.099583  0  0.098096  0.11536  0  1.027365  0
H  H5  1  0.50100602  0.38254182  0.71597352  1  0.099451  0  0.098115  0.115395  0  1.027255  0
H  H6  1  0.33824721  0.44870313  0.93583085  1  0.078944  0  0.100093  0.100887  0  0.99618  0
H  H7  1  0.66174185  0.55130008  0.06416744  1  0.079127  0  0.10005  0.100819  0  0.996238  0
H  H8  1  0.33769033  0.44879534  0.06210375  1  0.047455  0  0.099838  0.100237  0  0.995708  0
H  H9  1  0.66229705  0.55120787  0.93789402  1  0.047301  0  0.099842  0.100321  0  0.99578  0
H  H10  1  0.61366521  0.30723270  0.57970650  1  0.121674  0  0.131582  0.107768  0  0.963781  0
H  H11  1  0.38633641  0.69276776  0.42029132  1  0.121669  0  0.131604  0.107802  0  0.963711  0
H  H12  1  0.38614506  0.30732694  0.42030028  1  0.119479  0  0.131533  0.107947  0  0.96343  0
H  H13  1  0.61385406  0.69267134  0.57969956  1  0.119543  0  0.131527  0.107923  0  0.963455  0
H  H14  1  0.61790760  0.17027070  0.58409888  1  0.072697  0  0.112513  0.117914  0  0.994131  0
H  H15  1  0.38208985  0.82973031  0.41590350  1  0.073004  0  0.112502  0.117877  0  0.994168  0
H  H16  1  0.38217599  0.17035142  0.41590773  1  0.074873  0  0.112724  0.118521  0  0.994189  0
H  H17  1  0.61781812  0.82964796  0.58409616  1  0.074851  0  0.112692  0.118473  0  0.994305  0
H  H18  1  0.32356293  0.06744905  0.47580491  1  0.105989  0  0.107533  0.10686  0  0.993281  0
H  H19  1  0.67643286  0.93254758  0.52420051  1  0.106007  0  0.107515  0.106854  0  0.993223  0
H  H20  1  0.67626526  0.06745052  0.52421380  1  0.107171  0  0.107633  0.107054  0  0.993353  0
H  H21  1  0.32373137  0.93254775  0.47579061  1  0.107076  0  0.107614  0.106975  0  0.993385  0
H  H22  1  0.49792447  0.67039056  0.81979709  1  0.591513  0  0.334192  0.359845  0  0.879395  0
H  H23  1  0.50206290  0.32960991  0.18019916  1  0.591543  0  0.334162  0.359811  0  0.879384  0
H  H24  1  0.49813086  0.67052758  0.18005316  1  0.591732  0  0.333936  0.35996  0  0.879674  0
H  H25  1  0.50185653  0.32947289  0.81994563  1  0.591718  0  0.33393  0.359934  0  0.879618  0
C  C26  1  0.49812524  0.49998875  0.36714094  1  1.551843  0  0.216049  0.599215  0  4.14518  0
C  C27  1  0.50187888  0.50000351  0.63285536  1  1.551829  0  0.21607  0.599227  0  4.145275  0
C  C28  1  0.49971209  0.50003293  0.07175513  1  -0.034495  0  -0.008845  0.109819  0  3.989359  0
C  C29  1  0.50027613  0.49997192  0.92824264  1  -0.034158  0  -0.008795  0.109864  0  3.989455  0
C  C30  1  0.56394811  0.27407660  0.54461798  1  0.424499  0  0.062692  0.109399  0  3.920343  0
C  C31  1  0.43605183  0.72592387  0.45538136  1  0.424498  0  0.062622  0.10928  0  3.920257  0
C  C32  1  0.43588030  0.27413861  0.45541231  1  0.425763  0  0.063076  0.109541  0  3.920825  0
C  C33  1  0.56411798  0.72586076  0.54458855  1  0.425736  0  0.06308  0.109616  0  3.920872  0
C  C34  1  0.56623249  0.19809967  0.54618894  1  0.08109  0  -0.080693  -0.181618  0  3.954518  0
C  C35  1  0.43376579  0.80190080  0.45381294  1  0.080884  0  -0.080689  -0.181553  0  3.954455  0
C  C36  1  0.43367898  0.19816803  0.45385586  1  0.080659  0  -0.081022  -0.182447  0  3.955409  0
C  C37  1  0.56631680  0.80183025  0.54614754  1  0.080623  0  -0.080993  -0.182414  0  3.955438  0
C  C38  1  0.49993786  0.15814399  0.50003943  1  -0.135861  0  0.015264  0.111492  0  4.000224  0
C  C39  1  0.50005541  0.84185593  0.49996395  1  -0.136032  0  0.01529  0.111589  0  4.000134  0
C  C40  1  0.40162444  0.03805765  0.48540255  1  0.047818  0  -0.084024  -0.119523  0  3.98316  0
C  C41  1  0.59836968  0.96194008  0.51460338  1  0.047828  0  -0.083972  -0.119379  0  3.982914  0
C  C42  1  0.59829908  0.03803337  0.51462653  1  -0.124862  0  -0.083895  -0.119361  0  3.983444  0
C  C43  1  0.40169587  0.96196600  0.48537788  1  -0.124851  0  -0.083852  -0.11916  0  3.983566  0
C  C44  1  0.50006926  0.92254432  0.49997597  1  -0.032618  0  -0.005548  0.061032  0  4.002633  0
C  C45  1  0.49992569  0.07745395  0.50002895  1  -0.032616  0  -0.00557  0.061107  0  4.002544  0
C  C46  1  0.28000505  0.49996421  0.49881654  1  1.743415  0  0.21755  0.655288  0  4.259025  0
C  C47  1  0.72001000  0.50003351  0.50118894  1  1.743726  0  0.217691  0.655583  0  4.258745  0
C  C48  1  0.15893962  0.50005044  0.49883069  1  0.092683  0  -0.020446  -0.147164  0  3.877598  0
C  C49  1  0.84107546  0.49995824  0.50118242  1  0.092818  0  -0.020567  -0.147364  0  3.877712  0
C  C50  1  0.05649871  0.50000824  0.49958154  1  -0.200001  0  -0.027347  0.007254  0  4.275652  0
C  C51  1  0.94350794  0.49999332  0.50041884  1  -0.372635  0  -0.027231  0.007432  0  4.275924  0
C  C52  1  0.50160527  0.56615076  0.74445029  1  -0.023912  0  -0.124437  -0.286283  0  4.036529  0
C  C53  1  0.49838881  0.43384807  0.25554700  1  -0.023852  0  -0.124415  -0.286216  0  4.036542  0
C  C54  1  0.49898059  0.56622595  0.25552334  1  -0.024152  0  -0.12486  -0.286987  0  4.037546  0
C  C55  1  0.50101768  0.43377288  0.74447548  1  -0.024113  0  -0.124907  -0.287077  0  4.037338  0
C  C56  1  0.50140370  0.56575003  0.81544388  1  0.432801  0  0.076877  0.27795  0  4.101274  0
C  C57  1  0.49858200  0.43425044  0.18455237  1  0.432535  0  0.076886  0.277853  0  4.10138  0
C  C58  1  0.49983969  0.56585436  0.18453292  1  0.441448  0  0.077268  0.278931  0  4.102894  0
C  C59  1  0.50015272  0.43414501  0.81546589  1  0.441476  0  0.077272  0.278865  0  4.102721  0
C  C60  1  0.50065077  0.49994508  0.85283095  1  0.054192  0  -0.022687  -0.139303  0  3.926545  0
C  C61  1  0.49933829  0.50005593  0.14716683  1  0.054236  0  -0.022605  -0.139347  0  3.926625  0
C  C62  1  0.50169258  0.49997113  0.70892656  1  -0.032481  0  -0.02267  0.025658  0  4.032934  0
C  C63  1  0.49830652  0.50002879  0.29107125  1  -0.03254  0  -0.022731  0.025602  0  4.032896  0
C  C64  1  0.40939965  0.47102649  0.96402377  1  0.022927  0  -0.091109  -0.12555  0  3.990809  0
C  C65  1  0.59058772  0.52897781  0.03597299  1  0.023169  0  -0.090961  -0.125314  0  3.990746  0
C  C66  1  0.40913593  0.47105934  0.03482610  1  -0.027926  0  -0.091235  -0.124824  0  3.988773  0
C  C67  1  0.59085061  0.52894441  0.96517117  1  -0.027926  0  -0.091235  -0.124973  0  3.989073  0
N  N68  1  0.49988089  0.31138186  0.50002073  1  -1.219525  0  -0.318093  -0.192358  0  3.517133  0
N  N69  1  0.50011989  0.68861807  0.49997759  1  -1.219442  0  -0.318085  -0.192399  0  3.517133  0
O  O70  1  0.49805400  0.43792632  0.39681371  1  -1.166387  0  -0.319538  -0.548585  0  2.330548  0
O  O71  1  0.50195431  0.56207688  0.60318311  1  -1.166336  0  -0.319606  -0.548676  0  2.330016  0
O  O72  1  0.50173469  0.43797850  0.60317105  1  -1.166755  0  -0.319353  -0.548299  0  2.330838  0
O  O73  1  0.49827111  0.56202306  0.39682729  1  -1.166602  0  -0.319384  -0.548369  0  2.330379  0
O  O74  1  0.32703773  0.43745389  0.49893915  1  -1.136984  0  -0.312414  -0.538614  0  2.257871  0
O  O75  1  0.67296724  0.56255259  0.50106071  1  -1.136929  0  -0.312473  -0.538743  0  2.257358  0
O  O76  1  0.67285967  0.43760706  0.50110505  1  -1.139731  0  -0.31266  -0.539083  0  2.257749  0
O  O77  1  0.32715953  0.56240161  0.49889638  1  -1.140544  0  -0.312648  -0.539001  0  2.257278  0
O  O78  1  0.50019668  0.62992370  0.85198334  1  -1.10989  0  -0.356125  -0.4475  0  2.264548  0
O  O79  1  0.49978149  0.37007623  0.14801288  1  -1.109756  0  -0.356112  -0.447412  0  2.264451  0
O  O80  1  0.49966916  0.63001888  0.14794198  1  -1.111799  0  -0.355515  -0.447775  0  2.265862  0
O  O81  1  0.50031822  0.36998159  0.85205579  1  -1.111736  0  -0.355553  -0.447763  0  2.26579  0
