# generated using pymatgen
data_HgH18(C11N4)2
_symmetry_space_group_name_H-M   'P 1'
_cell_length_a   10.30830252
_cell_length_b   11.33125011
_cell_length_c   12.88595713
_cell_angle_alpha   90.00025276
_cell_angle_beta   90.00060114
_cell_angle_gamma   89.56551655
_symmetry_Int_Tables_number   1
_chemical_formula_structural   HgH18(C11N4)2
_chemical_formula_sum   'Hg2 H36 C44 N16'
_cell_volume   1505.11324031
_cell_formula_units_Z   2
loop_
 _symmetry_equiv_pos_site_id
 _symmetry_equiv_pos_as_xyz
  1  'x, y, z'
loop_
 _atom_site_type_symbol
 _atom_site_label
 _atom_site_symmetry_multiplicity
 _atom_site_fract_x
 _atom_site_fract_y
 _atom_site_fract_z
 _atom_site_occupancy
 _atom_site_hle17_bader_spin_density
 _atom_site_hle17_ddec_charge
 _atom_site_hle17_ddec_spin_density
 _atom_site_hle17_ddec_sum_bond_order
 _atom_site_hle17_magmom
 _atom_site_hse06_10hf_bader_spin_density
 _atom_site_hse06_10hf_ddec_charge
 _atom_site_hse06_10hf_ddec_spin_density
 _atom_site_hse06_10hf_ddec_sum_bond_order
 _atom_site_hse06_10hf_magmom
 _atom_site_hse06_bader_spin_density
 _atom_site_hse06_ddec_charge
 _atom_site_hse06_ddec_spin_density
 _atom_site_hse06_ddec_sum_bond_order
 _atom_site_hse06_magmom
 _atom_site_pbe_bader_spin_density
 _atom_site_pbe_cm5_charge
 _atom_site_pbe_ddec_charge
 _atom_site_pbe_ddec_spin_density
 _atom_site_pbe_ddec_sum_bond_order
 _atom_site_pbe_magmom
Hg  Hg0  1  0.99999256  0.00000307  0.50000508  1  0  0.791117  0  1.927558  0  0  0.594137  0  2.375113  0  0  0.650449  0  2.341631  0  0  0.684619  0.555235  0  2.397788  0
Hg  Hg1  1  0.49999124  0.99999746  0.00000171  1  0  0.791099  0  1.927653  0  0  0.593992  0  2.375134  0  0  0.650303  0  2.341653  0  0  0.68461  0.555088  0  2.397809  0
H  H2  1  0.26668608  0.11923590  0.82789949  1  0  0.071586  0  0.931959  0  0  0.080469  0  0.992295  0  0  0.08297  0  0.989988  0  0  0.106405  0.078606  0  0.993958  0
H  H3  1  0.23331085  0.88077148  0.32789529  1  0  0.071512  0  0.931928  0  0  0.080409  0  0.992252  0  0  0.082911  0  0.989945  0  0  0.106351  0.078545  0  0.993916  0
H  H4  1  0.73332958  0.88075931  0.17210376  1  0  0.07157  0  0.932013  0  0  0.080449  0  0.992351  0  0  0.082945  0  0.990051  0  0  0.106424  0.078586  0  0.994015  0
H  H5  1  0.76669128  0.11922922  0.67211262  1  0  0.071561  0  0.932016  0  0  0.080438  0  0.992342  0  0  0.082936  0  0.990038  0  0  0.106377  0.078575  0  0.994005  0
H  H6  1  0.12996871  0.07621952  0.67319011  1  0  0.1056  0  0.974324  0  0  0.113461  0  1.043768  0  0  0.117056  0  1.041707  0  0  0.097265  0.110834  0  1.045518  0
H  H7  1  0.37003598  0.92379756  0.17318800  1  0  0.105646  0  0.974436  0  0  0.113484  0  1.043878  0  0  0.117076  0  1.041819  0  0  0.097279  0.110858  0  1.045624  0
H  H8  1  0.87003925  0.92378287  0.32680771  1  0  0.105616  0  0.974354  0  0  0.113459  0  1.043826  0  0  0.117054  0  1.041766  0  0  0.097259  0.11083  0  1.045577  0
H  H9  1  0.62996625  0.07621461  0.82681913  1  0  0.105587  0  0.974346  0  0  0.113483  0  1.043753  0  0  0.117076  0  1.041693  0  0  0.097284  0.110856  0  1.045503  0
H  H10  1  0.32480670  0.73552785  0.65706846  1  0  0.108933  0  0.956714  0  0  0.119472  0  1.015096  0  0  0.122865  0  1.013958  0  0  0.105169  0.117167  0  1.015885  0
H  H11  1  0.17516764  0.26448162  0.15705904  1  0  0.109024  0  0.956655  0  0  0.119614  0  1.014947  0  0  0.122984  0  1.013834  0  0  0.105239  0.117309  0  1.015739  0
H  H12  1  0.67517592  0.26446076  0.34293014  1  0  0.108902  0  0.956572  0  0  0.119428  0  1.014976  0  0  0.122813  0  1.013848  0  0  0.105148  0.117122  0  1.015764  0
H  H13  1  0.82481902  0.73552547  0.84294266  1  0  0.10898  0  0.956736  0  0  0.119619  0  1.014975  0  0  0.122962  0  1.013897  0  0  0.105242  0.117316  0  1.015764  0
H  H14  1  0.44892962  0.79241256  0.80964681  1  0  0.072275  0  0.979431  0  0  0.071624  0  1.060422  0  0  0.074484  0  1.057128  0  0  0.104558  0.069522  0  1.062889  0
H  H15  1  0.05107278  0.20758142  0.30963070  1  0  0.072381  0  0.979464  0  0  0.071725  0  1.060444  0  0  0.074595  0  1.057121  0  0  0.104604  0.069626  0  1.062906  0
H  H16  1  0.55106461  0.20757237  0.19034480  1  0  0.072309  0  0.979508  0  0  0.071626  0  1.06054  0  0  0.074479  0  1.057251  0  0  0.104595  0.069527  0  1.063004  0
H  H17  1  0.94892838  0.79241929  0.69036789  1  0  0.072381  0  0.979417  0  0  0.071723  0  1.060395  0  0  0.074587  0  1.057082  0  0  0.104621  0.069623  0  1.062859  0
H  H18  1  0.17465599  0.69521513  0.55929853  1  0  0.049188  0  0.950786  0  0  0.064514  0  1.01502  0  0  0.065451  0  1.011436  0  0  0.123605  0.063544  0  1.017809  0
H  H19  1  0.32534625  0.30480229  0.05929053  1  0  0.049338  0  0.950486  0  0  0.064502  0  1.01491  0  0  0.065439  0  1.011323  0  0  0.123627  0.063532  0  1.017698  0
H  H20  1  0.82533550  0.30478837  0.44069386  1  0  0.049213  0  0.95065  0  0  0.064519  0  1.014907  0  0  0.065455  0  1.011325  0  0  0.123605  0.063551  0  1.017692  0
H  H21  1  0.67465689  0.69520369  0.94070496  1  0  0.049146  0  0.950685  0  0  0.064389  0  1.015027  0  0  0.065329  0  1.011437  0  0  0.123546  0.06342  0  1.017813  0
H  H22  1  0.80310011  0.48457089  0.26811167  1  0  0.056295  0  0.968842  0  0  0.06389  0  1.036579  0  0  0.065992  0  1.034942  0  0  0.099374  0.062188  0  1.037989  0
H  H23  1  0.69690077  0.51542988  0.76810829  1  0  0.056302  0  0.968918  0  0  0.06387  0  1.03669  0  0  0.06596  0  1.035065  0  0  0.099363  0.062173  0  1.038097  0
H  H24  1  0.19689818  0.51543427  0.73188382  1  0  0.05629  0  0.968779  0  0  0.063848  0  1.036544  0  0  0.065972  0  1.034887  0  0  0.099371  0.062148  0  1.037951  0
H  H25  1  0.30310027  0.48455760  0.23189496  1  0  0.056261  0  0.968805  0  0  0.063821  0  1.036581  0  0  0.065972  0  1.034901  0  0  0.099334  0.062118  0  1.037991  0
H  H26  1  0.83193426  0.68281488  0.34809692  1  0  0.111  0  0.940119  0  0  0.124538  0  0.992951  0  0  0.128317  0  0.991793  0  0  0.105174  0.12198  0  0.993664  0
H  H27  1  0.66807448  0.31718883  0.84809331  1  0  0.110994  0  0.940343  0  0  0.124575  0  0.993105  0  0  0.128355  0  0.991945  0  0  0.10517  0.122017  0  0.993817  0
H  H28  1  0.16806503  0.31719380  0.65190012  1  0  0.110987  0  0.940149  0  0  0.124568  0  0.992921  0  0  0.128345  0  0.991764  0  0  0.105199  0.12201  0  0.993635  0
H  H29  1  0.33192951  0.68280301  0.15190684  1  0  0.111021  0  0.940143  0  0  0.12463  0  0.992888  0  0  0.128411  0  0.991724  0  0  0.105174  0.12207  0  0.993604  0
H  H30  1  0.21896775  0.57057752  0.43524948  1  0  0.103276  0  0.950267  0  0  0.115834  0  1.004543  0  0  0.119223  0  1.003867  0  0  0.103259  0.113417  0  1.005288  0
H  H31  1  0.28105189  0.42942569  0.93524802  1  0  0.103248  0  0.950386  0  0  0.115849  0  1.004599  0  0  0.119239  0  1.003918  0  0  0.103276  0.113432  0  1.005345  0
H  H32  1  0.78102859  0.42942591  0.56475145  1  0  0.10322  0  0.950294  0  0  0.115775  0  1.004568  0  0  0.11916  0  1.003897  0  0  0.103241  0.113358  0  1.005314  0
H  H33  1  0.71896285  0.57057572  0.06475756  1  0  0.103216  0  0.950363  0  0  0.115786  0  1.00462  0  0  0.119173  0  1.003946  0  0  0.103246  0.113369  0  1.005367  0
H  H34  1  0.17141050  0.37722099  0.35664861  1  0  0.061511  0  0.936513  0  0  0.073014  0  0.995797  0  0  0.075369  0  0.993918  0  0  0.106979  0.071298  0  0.997141  0
H  H35  1  0.32860904  0.62277652  0.85665219  1  0  0.061641  0  0.936631  0  0  0.073171  0  0.99587  0  0  0.075517  0  0.993999  0  0  0.107058  0.071456  0  0.997214  0
H  H36  1  0.82859651  0.62278317  0.64335231  1  0  0.061535  0  0.936536  0  0  0.073039  0  0.995827  0  0  0.075395  0  0.993943  0  0  0.106987  0.071321  0  0.997173  0
H  H37  1  0.67141161  0.37723363  0.14336659  1  0  0.061489  0  0.936552  0  0  0.072937  0  0.995889  0  0  0.07529  0  0.994014  0  0  0.106974  0.071223  0  0.997232  0
C  C38  1  0.27532350  0.03451487  0.78790001  1  0  0.135205  0  3.777062  0  0  0.109842  0  4.026618  0  0  0.11886  0  4.045003  0  0  0.033756  0.10415  0  4.013608  0
C  C39  1  0.22467680  0.96549403  0.28789684  1  0  0.135374  0  3.777051  0  0  0.110004  0  4.026595  0  0  0.119023  0  4.044969  0  0  0.033862  0.104313  0  4.013585  0
C  C40  1  0.72469020  0.96547772  0.21209316  1  0  0.135259  0  3.776812  0  0  0.109916  0  4.026367  0  0  0.118935  0  4.044748  0  0  0.033723  0.104225  0  4.013356  0
C  C41  1  0.77531471  0.03451300  0.71210486  1  0  0.13544  0  3.776678  0  0  0.110097  0  4.026234  0  0  0.119114  0  4.044613  0  0  0.033954  0.104403  0  4.013229  0
C  C42  1  0.20007337  0.01078435  0.70117656  1  0  -0.228001  0  3.720739  0  0  -0.241521  0  3.963436  0  0  -0.253285  0  3.985263  0  0  -0.103156  -0.233827  0  3.948691  0
C  C43  1  0.29992681  0.98922852  0.20117411  1  0  -0.228124  0  3.720356  0  0  -0.241623  0  3.96308  0  0  -0.253384  0  3.984904  0  0  -0.103244  -0.233926  0  3.948333  0
C  C44  1  0.79992774  0.98921019  0.29882126  1  0  -0.227898  0  3.720615  0  0  -0.241407  0  3.963304  0  0  -0.253171  0  3.985131  0  0  -0.103093  -0.233706  0  3.948558  0
C  C45  1  0.70006954  0.01077667  0.79883069  1  0  -0.228043  0  3.720425  0  0  -0.241624  0  3.963167  0  0  -0.253385  0  3.984993  0  0  -0.1033  -0.233928  0  3.948421  0
C  C46  1  0.21264250  0.90067158  0.65089182  1  0  0.283046  0  3.840734  0  0  0.272836  0  4.082362  0  0  0.287772  0  4.105186  0  0  0.105689  0.263174  0  4.066618  0
C  C47  1  0.28735700  0.09933928  0.15087960  1  0  0.282896  0  3.840487  0  0  0.27266  0  4.08211  0  0  0.287594  0  4.104931  0  0  0.105744  0.262996  0  4.066369  0
C  C48  1  0.78734600  0.09932314  0.34910833  1  0  0.282831  0  3.840661  0  0  0.272624  0  4.082312  0  0  0.28756  0  4.105143  0  0  0.105654  0.262951  0  4.066579  0
C  C49  1  0.71263938  0.90067032  0.84911900  1  0  0.283058  0  3.840651  0  0  0.272793  0  4.082249  0  0  0.287732  0  4.105063  0  0  0.105732  0.263131  0  4.066507  0
C  C50  1  0.30545261  0.82130386  0.69196467  1  0  -0.224547  0  3.711501  0  0  -0.240172  0  3.957886  0  0  -0.251845  0  3.979197  0  0  -0.100427  -0.232553  0  3.943356  0
C  C51  1  0.19454353  0.17870549  0.19195508  1  0  -0.22456  0  3.711594  0  0  -0.240206  0  3.957941  0  0  -0.251868  0  3.979288  0  0  -0.100524  -0.232591  0  3.943419  0
C  C52  1  0.69453389  0.17868471  0.30803237  1  0  -0.224415  0  3.711157  0  0  -0.239994  0  3.957532  0  0  -0.251658  0  3.978842  0  0  -0.100367  -0.232383  0  3.943031  0
C  C53  1  0.80545089  0.82130149  0.80804894  1  0  -0.224715  0  3.711553  0  0  -0.240422  0  3.95794  0  0  -0.252059  0  3.979279  0  0  -0.100596  -0.232804  0  3.943406  0
C  C54  1  0.37607503  0.85359251  0.77895352  1  0  0.132551  0  3.764824  0  0  0.106393  0  4.020102  0  0  0.115213  0  4.038701  0  0  0.032618  0.1006  0  4.007541  0
C  C55  1  0.12392804  0.14641365  0.27894167  1  0  0.132503  0  3.764672  0  0  0.106362  0  4.019945  0  0  0.115181  0  4.038544  0  0  0.032714  0.100572  0  4.00738  0
C  C56  1  0.62391830  0.14639948  0.22103809  1  0  0.13261  0  3.764677  0  0  0.106455  0  4.01997  0  0  0.115281  0  4.038563  0  0  0.032664  0.100658  0  4.007403  0
C  C57  1  0.87607409  0.85358705  0.72105926  1  0  0.132617  0  3.764514  0  0  0.106479  0  4.019797  0  0  0.115305  0  4.038388  0  0  0.032678  0.100689  0  4.007233  0
C  C58  1  0.12143637  0.76903188  0.52369535  1  0  0.305441  0  3.825835  0  0  0.245706  0  4.100053  0  0  0.270136  0  4.109689  0  0  0.165845  0.229783  0  4.09275  0
C  C59  1  0.37856238  0.23097217  0.02369682  1  0  0.305506  0  3.825592  0  0  0.245826  0  4.09978  0  0  0.270266  0  4.109407  0  0  0.165938  0.229901  0  4.092477  0
C  C60  1  0.87855702  0.23096806  0.47630014  1  0  0.305282  0  3.825963  0  0  0.245578  0  4.100192  0  0  0.270007  0  4.109832  0  0  0.165759  0.229658  0  4.092885  0
C  C61  1  0.62142708  0.76902165  0.97630643  1  0  0.305541  0  3.826115  0  0  0.245774  0  4.100299  0  0  0.270206  0  4.109934  0  0  0.165925  0.22985  0  4.092996  0
C  C62  1  0.89430092  0.50623251  0.30667578  1  0  0.105512  0  3.813467  0  0  0.082514  0  4.074241  0  0  0.08933  0  4.092573  0  0  0.023129  0.078489  0  4.061546  0
C  C63  1  0.60570922  0.49377098  0.80667931  1  0  0.105569  0  3.813385  0  0  0.082592  0  4.074139  0  0  0.089417  0  4.092475  0  0  0.023194  0.078562  0  4.061441  0
C  C64  1  0.10569926  0.49376733  0.69331350  1  0  0.105555  0  3.813514  0  0  0.082578  0  4.074281  0  0  0.089375  0  4.092611  0  0  0.023168  0.078552  0  4.061587  0
C  C65  1  0.39430648  0.50622777  0.19333015  1  0  0.105511  0  3.81355  0  0  0.082531  0  4.074335  0  0  0.089306  0  4.092664  0  0  0.023079  0.078507  0  4.061635  0
C  C66  1  0.90996017  0.61722944  0.35076902  1  0  -0.215899  0  3.716117  0  0  -0.231395  0  3.956807  0  0  -0.241432  0  3.977733  0  0  -0.098661  -0.224729  0  3.942308  0
C  C67  1  0.59004954  0.38276987  0.85076423  1  0  -0.215942  0  3.716038  0  0  -0.231475  0  3.956691  0  0  -0.241517  0  3.977618  0  0  -0.098723  -0.224806  0  3.942189  0
C  C68  1  0.09003614  0.38277134  0.64922414  1  0  -0.215885  0  3.716197  0  0  -0.231383  0  3.9569  0  0  -0.241418  0  3.977834  0  0  -0.098728  -0.224719  0  3.942401  0
C  C69  1  0.40995348  0.61722199  0.14923824  1  0  -0.215903  0  3.716272  0  0  -0.231506  0  3.956898  0  0  -0.241548  0  3.977843  0  0  -0.098665  -0.224838  0  3.942396  0
C  C70  1  0.02709413  0.64440096  0.40165721  1  0  0.282493  0  3.862819  0  0  0.281125  0  4.108507  0  0  0.293541  0  4.130527  0  0  0.101647  0.273053  0  4.093368  0
C  C71  1  0.47291236  0.35559167  0.90166096  1  0  0.282483  0  3.863293  0  0  0.281109  0  4.108992  0  0  0.293528  0  4.131023  0  0  0.101776  0.273033  0  4.09385  0
C  C72  1  0.97290223  0.35560600  0.59833673  1  0  0.282586  0  3.862421  0  0  0.281109  0  4.108283  0  0  0.293518  0  4.130309  0  0  0.101751  0.27304  0  4.093142  0
C  C73  1  0.52708674  0.64439584  0.09834230  1  0  0.282364  0  3.862699  0  0  0.281123  0  4.108241  0  0  0.293538  0  4.130257  0  0  0.101699  0.273052  0  4.093099  0
C  C74  1  0.12384368  0.55554734  0.40090701  1  0  -0.233776  0  3.732259  0  0  -0.247639  0  3.974099  0  0  -0.258867  0  3.99762  0  0  -0.102375  -0.240696  0  3.958777  0
C  C75  1  0.37616968  0.44445490  0.90090797  1  0  -0.233856  0  3.732304  0  0  -0.247731  0  3.974162  0  0  -0.258964  0  3.997682  0  0  -0.102521  -0.240788  0  3.958848  0
C  C76  1  0.87615459  0.44445606  0.59908770  1  0  -0.233711  0  3.732364  0  0  -0.247525  0  3.974225  0  0  -0.258746  0  3.997746  0  0  -0.102393  -0.240584  0  3.9589  0
C  C77  1  0.62385380  0.55554639  0.09909761  1  0  -0.233556  0  3.73196  0  0  -0.247472  0  3.973745  0  0  -0.258694  0  3.997254  0  0  -0.102337  -0.240531  0  3.958428  0
C  C78  1  0.09757291  0.44712542  0.35533538  1  0  0.120605  0  3.800499  0  0  0.097144  0  4.061673  0  0  0.10401  0  4.080252  0  0  0.030414  0.092901  0  4.048942  0
C  C79  1  0.40243989  0.55288012  0.85533077  1  0  0.120366  0  3.800885  0  0  0.096854  0  4.062114  0  0  0.103731  0  4.080689  0  0  0.030305  0.092605  0  4.049388  0
C  C80  1  0.90243211  0.55287259  0.64466554  1  0  0.120603  0  3.800489  0  0  0.097117  0  4.061685  0  0  0.103988  0  4.080259  0  0  0.030423  0.092875  0  4.048957  0
C  C81  1  0.59757690  0.44713273  0.14467326  1  0  0.120626  0  3.800299  0  0  0.097199  0  4.061501  0  0  0.104067  0  4.080066  0  0  0.030407  0.092954  0  4.048771  0
N  N82  1  0.36191169  0.95770773  0.82780219  1  0  -0.352997  0  3.209333  0  0  -0.292403  0  3.477917  0  0  -0.312374  0  3.496508  0  0  -0.33325  -0.278646  0  3.464916  0
N  N83  1  0.13809291  0.04228984  0.32779470  1  0  -0.353111  0  3.209223  0  0  -0.292542  0  3.477811  0  0  -0.312512  0  3.496396  0  0  -0.333372  -0.278788  0  3.464814  0
N  N84  1  0.63809230  0.04228412  0.17219020  1  0  -0.353267  0  3.209102  0  0  -0.292681  0  3.477727  0  0  -0.312652  0  3.49631  0  0  -0.333412  -0.27892  0  3.464726  0
N  N85  1  0.86190532  0.95770915  0.67220777  1  0  -0.353308  0  3.209074  0  0  -0.29273  0  3.47766  0  0  -0.312705  0  3.496245  0  0  -0.333412  -0.278975  0  3.464664  0
N  N86  1  0.13576596  0.87690108  0.56545814  1  0  -0.419767  0  3.318099  0  0  -0.321745  0  3.582902  0  0  -0.355826  0  3.602613  0  0  -0.348519  -0.298652  0  3.568553  0
N  N87  1  0.36422657  0.12310679  0.06545364  1  0  -0.419679  0  3.318467  0  0  -0.321495  0  3.583038  0  0  -0.35557  0  3.602751  0  0  -0.348573  -0.298407  0  3.56869  0
N  N88  1  0.86422548  0.12309800  0.43453891  1  0  -0.419515  0  3.317993  0  0  -0.321537  0  3.582854  0  0  -0.355619  0  3.602567  0  0  -0.348449  -0.298439  0  3.568502  0
N  N89  1  0.63576490  0.87689494  0.93454884  1  0  -0.41979  0  3.318231  0  0  -0.321515  0  3.582702  0  0  -0.355597  0  3.602421  0  0  -0.348526  -0.298423  0  3.568347  0
N  N90  1  0.04008649  0.75462315  0.44703168  1  0  -0.472881  0  3.119418  0  0  -0.425495  0  3.399696  0  0  -0.450246  0  3.41287  0  0  -0.355248  -0.408634  0  3.389906  0
N  N91  1  0.45992464  0.24538817  0.94702558  1  0  -0.472881  0  3.119689  0  0  -0.425503  0  3.399966  0  0  -0.450258  0  3.413146  0  0  -0.355217  -0.408638  0  3.39017  0
N  N92  1  0.95989913  0.24537513  0.55295683  1  0  -0.472899  0  3.11925  0  0  -0.425469  0  3.39955  0  0  -0.450214  0  3.412721  0  0  -0.355228  -0.408609  0  3.38976  0
N  N93  1  0.54008139  0.75461512  0.05296526  1  0  -0.4728  0  3.119596  0  0  -0.425459  0  3.399835  0  0  -0.450208  0  3.413009  0  0  -0.355188  -0.408598  0  3.390044  0
N  N94  1  0.98515197  0.42015117  0.30839259  1  0  -0.352222  0  3.091535  0  0  -0.31909  0  3.366843  0  0  -0.331959  0  3.381571  0  0  -0.345564  -0.310601  0  3.356626  0
N  N95  1  0.51485621  0.57984706  0.80839570  1  0  -0.352246  0  3.091906  0  0  -0.319091  0  3.367188  0  0  -0.33196  0  3.381912  0  0  -0.345689  -0.310599  0  3.356975  0
N  N96  1  0.01485308  0.57985038  0.69160756  1  0  -0.352214  0  3.091394  0  0  -0.319063  0  3.36668  0  0  -0.33193  0  3.381417  0  0  -0.345532  -0.310577  0  3.356467  0
N  N97  1  0.48515949  0.42015168  0.19161687  1  0  -0.352272  0  3.091362  0  0  -0.319103  0  3.366604  0  0  -0.331972  0  3.381351  0  0  -0.345568  -0.310613  0  3.356384  0
