# generated using pymatgen
data_CuH20C18S2(NO4)2
_symmetry_space_group_name_H-M   'P 1'
_cell_length_a   7.65687178
_cell_length_b   12.23950443
_cell_length_c   24.53520625
_cell_angle_alpha   91.93600481
_cell_angle_beta   89.99966614
_cell_angle_gamma   90.00022493
_symmetry_Int_Tables_number   1
_chemical_formula_structural   CuH20C18S2(NO4)2
_chemical_formula_sum   'Cu4 H80 C72 S8 N8 O32'
_cell_volume   2298.03663793
_cell_formula_units_Z   4
loop_
 _symmetry_equiv_pos_site_id
 _symmetry_equiv_pos_as_xyz
  1  'x, y, z'
loop_
 _atom_site_type_symbol
 _atom_site_label
 _atom_site_symmetry_multiplicity
 _atom_site_fract_x
 _atom_site_fract_y
 _atom_site_fract_z
 _atom_site_occupancy
 _atom_site_pbe_bader_charge
 _atom_site_pbe_bader_spin_density
 _atom_site_pbe_cm5_charge
 _atom_site_pbe_ddec_charge
 _atom_site_pbe_ddec_spin_density
 _atom_site_pbe_ddec_sum_bond_order
 _atom_site_pbe_magmom
Cu  Cu0  1  0.10223266  0.46959637  0.96213622  1  1.081353  0.521046  0.682757  0.824179  0.670255  2.300234  0.518
Cu  Cu1  1  0.60223187  0.03040625  0.53786666  1  1.081355  -0.521044  0.682738  0.824135  -0.670251  2.300303  -0.518
Cu  Cu2  1  0.89775306  0.53040543  0.03786797  1  1.081282  -0.521039  0.682655  0.823897  -0.670248  2.300734  -0.518
Cu  Cu3  1  0.39776431  0.96959562  0.46213264  1  1.081242  0.521047  0.682684  0.823974  0.670257  2.300603  0.518
H  H4  1  0.28610817  0.79101557  0.07653942  1  0.089101  0.002238  0.118318  0.115881  0.001087  0.964319  0.001
H  H5  1  0.78612610  0.70898692  0.42345612  1  0.088701  -0.002237  0.118281  0.115868  -0.001086  0.964331  -0.001
H  H6  1  0.71386319  0.20898064  0.92345406  1  0.088968  -0.002239  0.118275  0.115777  -0.001087  0.964416  -0.001
H  H7  1  0.21387791  0.29101737  0.57654568  1  0.088568  0.002239  0.118327  0.11591  0.001087  0.964315  0.001
H  H8  1  0.34887079  0.80262259  0.00684395  1  0.120753  -0.001141  0.127581  0.136974  -0.00057  0.944303  -0.001
H  H9  1  0.84887689  0.69738819  0.49315409  1  0.120933  0.00114  0.12756  0.13692  0.00057  0.944355  0.001
H  H10  1  0.65113322  0.19738423  0.99315137  1  0.120971  0.00114  0.127531  0.136846  0.00057  0.944213  0.001
H  H11  1  0.15113888  0.30261768  0.50685141  1  0.121109  -0.00114  0.127533  0.136862  -0.00057  0.944262  -0.001
H  H12  1  0.59770690  0.68644373  0.02078785  1  0.525489  -2.9e-05  0.304308  0.296357  -7.6e-05  0.995489  0.0
H  H13  1  0.09770770  0.81355827  0.47921169  1  0.52552  2.9e-05  0.304312  0.296342  7.6e-05  0.995522  0.0
H  H14  1  0.40229842  0.31354916  0.97921004  1  0.5256  2.9e-05  0.30433  0.296372  7.6e-05  0.995498  0.0
H  H15  1  0.90229893  0.18645254  0.52079105  1  0.525642  -2.9e-05  0.30433  0.296353  -7.6e-05  0.99558  0.0
H  H16  1  0.42479355  0.63572849  0.21785476  1  0.094261  1e-06  0.105367  0.104989  0.0  1.041549  0.0
H  H17  1  0.92479943  0.86427590  0.28214505  1  0.094198  -0.0  0.105344  0.104955  -0.0  1.041602  0.0
H  H18  1  0.57519218  0.36427582  0.78214500  1  0.094236  -0.0  0.105353  0.104959  -0.0  1.041607  0.0
H  H19  1  0.07520066  0.13573417  0.71785197  1  0.094429  1e-06  0.105359  0.10501  0.0  1.041696  0.0
H  H20  1  0.45022138  0.77033148  0.29584572  1  0.05324  1e-05  0.10505  0.114873  8e-06  0.997279  0.0
H  H21  1  0.95022265  0.72967133  0.20415442  1  0.053234  -1e-05  0.10506  0.114861  -8e-06  0.997294  0.0
H  H22  1  0.54976957  0.22967531  0.70415205  1  0.053165  -1e-05  0.105111  0.114891  -8e-06  0.997234  0.0
H  H23  1  0.04977875  0.27032807  0.79584565  1  0.0532  1e-05  0.105056  0.114829  8e-06  0.997277  0.0
H  H24  1  0.68958663  0.00032893  0.19006090  1  0.085758  3e-06  0.104269  0.111157  -1e-06  1.010348  0.0
H  H25  1  0.18958393  0.49967166  0.30993595  1  0.085936  -3e-06  0.104248  0.111156  1e-06  1.010368  0.0
H  H26  1  0.31041869  0.99966970  0.80993548  1  0.085966  -3e-06  0.104233  0.111122  1e-06  1.010365  0.0
H  H27  1  0.81041486  0.50033916  0.69006638  1  0.08579  3e-06  0.104221  0.111109  -1e-06  1.010513  0.0
H  H28  1  0.66685887  0.86588425  0.11216079  1  0.098537  -3.1e-05  0.11135  0.116823  -3.3e-05  0.990735  0.0
H  H29  1  0.16686678  0.63411630  0.38783738  1  0.098574  3e-05  0.11135  0.116831  3.3e-05  0.990816  0.0
H  H30  1  0.33314253  0.13411272  0.88783760  1  0.098421  3e-05  0.111369  0.116853  3.3e-05  0.990755  0.0
H  H31  1  0.83312417  0.36589534  0.61216457  1  0.098516  -3.1e-05  0.111358  0.116804  -3.3e-05  0.990742  0.0
H  H32  1  0.54833502  0.05530601  0.28443820  1  0.064359  4.4e-05  0.090808  0.131558  3.5e-05  1.022107  0.0
H  H33  1  0.04833244  0.44469747  0.21556223  1  0.064305  -4.4e-05  0.0908  0.131539  -3.5e-05  1.022169  0.0
H  H34  1  0.45166899  0.94470237  0.71556286  1  0.064395  -4.4e-05  0.090786  0.131561  -3.5e-05  1.022067  0.0
H  H35  1  0.95167157  0.55530676  0.78444323  1  0.064108  4.4e-05  0.09079  0.131564  3.5e-05  1.022066  0.0
H  H36  1  0.52798835  0.94871002  0.33179253  1  0.075302  1.2e-05  0.095628  0.152109  1e-06  1.004255  0.0
H  H37  1  0.02798287  0.55129016  0.16820914  1  0.075289  -1.2e-05  0.095623  0.152068  -1e-06  1.004368  0.0
H  H38  1  0.47201435  0.05129510  0.66820765  1  0.075278  -1.2e-05  0.095627  0.152071  -1e-06  1.004349  0.0
H  H39  1  0.97201983  0.44870025  0.83179075  1  0.07525  1.2e-05  0.095631  0.152126  1e-06  1.00434  0.0
H  H40  1  0.73502365  0.98405584  0.30616011  1  0.071203  -0.0  0.091878  0.13805  0.0  1.029355  0.0
H  H41  1  0.23502007  0.51594489  0.19383549  1  0.071231  0.0  0.091888  0.138092  -0.0  1.029297  0.0
H  H42  1  0.26496992  0.01594361  0.69383588  1  0.071142  0.0  0.09191  0.138022  -0.0  1.02933  0.0
H  H43  1  0.76498002  0.48405202  0.80616738  1  0.070837  0.0  0.091879  0.138055  0.0  1.029328  0.0
H  H44  1  0.19770968  0.24136448  0.11399569  1  0.110204  0.000329  0.126401  0.132126  0.000194  0.953908  0.0
H  H45  1  0.69773123  0.25863854  0.38600365  1  0.109919  -0.000329  0.126382  0.132045  -0.000194  0.953935  0.0
H  H46  1  0.80229041  0.75863334  0.88599946  1  0.110283  -0.000329  0.126413  0.132111  -0.000194  0.953941  0.0
H  H47  1  0.30228976  0.74136896  0.61400188  1  0.110319  0.000329  0.126417  0.132132  0.000194  0.953969  0.0
H  H48  1  0.26832478  0.36624533  0.14567480  1  0.121629  0.000869  0.112196  0.106519  0.000442  1.007287  0.001
H  H49  1  0.76833699  0.13375948  0.35432526  1  0.12168  -0.000868  0.112195  0.106477  -0.000441  1.007335  -0.001
H  H50  1  0.73166879  0.63376883  0.85432190  1  0.121677  -0.000869  0.112162  0.106498  -0.000441  1.007228  -0.001
H  H51  1  0.23166440  0.86623659  0.64567882  1  0.121598  0.000869  0.11217  0.106492  0.000441  1.00725  0.001
H  H52  1  0.51303110  0.35786254  0.07395464  1  0.480702  -0.000101  0.308755  0.288004  -0.000138  0.944527  0.0
H  H53  1  0.01304618  0.14213678  0.42604577  1  0.480609  0.000101  0.308699  0.287907  0.000138  0.944677  0.0
H  H54  1  0.48696246  0.64214345  0.92604189  1  0.480767  0.000101  0.308714  0.287966  0.000138  0.944736  0.0
H  H55  1  0.98696698  0.85785194  0.57395816  1  0.480839  -0.000101  0.308718  0.288021  -0.000138  0.944718  0.0
H  H56  1  0.40957821  0.19533930  0.23552386  1  0.105276  -3e-06  0.101038  0.102257  -1e-06  1.053302  0.0
H  H57  1  0.90958143  0.30464382  0.26447224  1  0.105348  3e-06  0.10105  0.102237  1e-06  1.053234  0.0
H  H58  1  0.59041274  0.80465770  0.76447208  1  0.105394  3e-06  0.101043  0.102255  1e-06  1.0533  0.0
H  H59  1  0.09041474  0.69534324  0.73553370  1  0.105477  -3e-06  0.10106  0.102283  -1e-06  1.053367  0.0
H  H60  1  0.42562349  0.31115100  0.32091411  1  0.101976  1.2e-05  0.098028  0.10846  1.4e-05  1.041628  0.0
H  H61  1  0.92562628  0.18883542  0.17908203  1  0.101748  -1.2e-05  0.098039  0.108552  -1.4e-05  1.04144  0.0
H  H62  1  0.57437399  0.68884519  0.67908181  1  0.101827  -1.2e-05  0.098077  0.10851  -1.4e-05  1.041529  0.0
H  H63  1  0.07437251  0.81116229  0.82092208  1  0.102048  1.2e-05  0.098061  0.108534  1.4e-05  1.0414  0.0
H  H64  1  0.75225315  0.54006824  0.23911603  1  0.085222  1e-06  0.100368  0.104094  2e-06  1.035603  0.0
H  H65  1  0.25226157  0.95992927  0.26087947  1  0.085591  -0.0  0.100375  0.104108  -2e-06  1.035547  0.0
H  H66  1  0.24774303  0.45994019  0.76088177  1  0.085484  -0.0  0.100416  0.104092  -2e-06  1.035647  0.0
H  H67  1  0.74774244  0.04005950  0.73912038  1  0.085352  1e-06  0.100391  0.104121  2e-06  1.035632  0.0
H  H68  1  0.74667687  0.42177704  0.15507527  1  0.120434  4e-06  0.108876  0.119355  1.1e-05  1.014459  0.0
H  H69  1  0.24669698  0.07821548  0.34492295  1  0.120321  -4e-06  0.108872  0.119301  -1e-05  1.014407  0.0
H  H70  1  0.25331538  0.57822485  0.84492200  1  0.120487  -4e-06  0.108895  0.119391  -1e-05  1.014395  0.0
H  H71  1  0.75331094  0.92177489  0.65507979  1  0.120525  5e-06  0.108892  0.119373  1.1e-05  1.014423  0.0
H  H72  1  0.70420791  0.56624922  0.33448098  1  0.042215  -2.7e-05  0.091852  0.132926  -2.2e-05  1.004669  0.0
H  H73  1  0.20421665  0.93374085  0.16551202  1  0.042011  2.7e-05  0.091879  0.132984  2.3e-05  1.004662  0.0
H  H74  1  0.29579218  0.43374613  0.66551615  1  0.04223  2.7e-05  0.091902  0.133022  2.2e-05  1.004618  0.0
H  H75  1  0.79578998  0.06625937  0.83448807  1  0.042044  -2.7e-05  0.091905  0.133022  -2.3e-05  1.004667  0.0
H  H76  1  0.47556218  0.54914102  0.34405284  1  0.051956  2.1e-05  0.0905  0.125878  1.3e-05  1.022588  0.0
H  H77  1  0.97557357  0.95085046  0.15594254  1  0.051974  -2.1e-05  0.090501  0.12593  -1.3e-05  1.022539  0.0
H  H78  1  0.52444183  0.45085675  0.65594679  1  0.052001  -2.1e-05  0.090485  0.125884  -1.3e-05  1.022554  0.0
H  H79  1  0.02443305  0.04914894  0.84405752  1  0.051905  2.1e-05  0.090531  0.125962  1.3e-05  1.022526  0.0
H  H80  1  0.62426725  0.45655367  0.37294930  1  0.027147  0.0  0.095197  0.139919  -3e-06  0.991617  0.0
H  H81  1  0.12427816  0.04343779  0.12704627  1  0.027379  -1e-06  0.095197  0.139978  3e-06  0.99166  0.0
H  H82  1  0.37573545  0.54344494  0.62704872  1  0.027341  -1e-06  0.095175  0.139933  3e-06  0.991711  0.0
H  H83  1  0.87573107  0.95656160  0.87295461  1  0.027411  0.0  0.095171  0.139967  -3e-06  0.991678  0.0
C  C84  1  0.21576619  0.65354020  0.02377098  1  1.571523  -0.000323  0.216295  0.605635  -0.000453  4.119551  -0.001
C  C85  1  0.71577486  0.84646537  0.47622679  1  1.57148  0.000328  0.216393  0.606002  0.000454  4.119501  0.001
C  C86  1  0.78423521  0.34646502  0.97622146  1  1.571671  0.000327  0.216388  0.605997  0.000455  4.119294  0.001
C  C87  1  0.28423830  0.15353643  0.52377781  1  1.571681  -0.000326  0.216406  0.605932  -0.000453  4.119428  -0.001
C  C88  1  0.34117132  0.74672174  0.04090551  1  0.305448  -8.3e-05  -0.049701  -0.121577  -2.8e-05  3.873885  -0.001
C  C89  1  0.84117189  0.75328006  0.45908991  1  0.30571  7.8e-05  -0.049679  -0.121582  2.6e-05  3.873871  0.001
C  C90  1  0.65882485  0.25328267  0.95908650  1  0.30545  7.3e-05  -0.049627  -0.121418  2.2e-05  3.873633  0.001
C  C91  1  0.15883343  0.24671931  0.54091301  1  0.305704  -7.6e-05  -0.049703  -0.121547  -2.4e-05  3.873624  -0.001
C  C92  1  0.54627353  0.74289109  0.16096363  1  -0.283173  7.9e-05  -0.027898  -0.121451  5.5e-05  4.036379  0.0
C  C93  1  0.04627790  0.75711490  0.33903445  1  -0.283056  -7.9e-05  -0.027868  -0.121341  -5.5e-05  4.036417  0.0
C  C94  1  0.45372525  0.25711406  0.83903410  1  -0.283107  -7.8e-05  -0.027895  -0.121349  -5.5e-05  4.03633  0.0
C  C95  1  0.95371827  0.24289430  0.66096703  1  -0.283593  7.9e-05  -0.027821  -0.121395  5.5e-05  4.036431  0.0
C  C96  1  0.48350974  0.71541388  0.21216436  1  0.037694  9.4e-05  -0.082702  -0.084314  6e-05  4.009807  0.0
C  C97  1  0.98350978  0.78458901  0.28783490  1  0.03768  -9.4e-05  -0.082655  -0.084317  -6.1e-05  4.00994  0.0
C  C98  1  0.51648905  0.28458556  0.78783245  1  0.03771  -9.4e-05  -0.082719  -0.0844  -6.1e-05  4.009882  0.0
C  C99  1  0.01648378  0.21541855  0.71216614  1  0.037746  9.4e-05  -0.08278  -0.084517  6e-05  4.010165  0.0
C  C100  1  0.49899239  0.79103526  0.25568999  1  -0.02632  -2.7e-05  -0.088118  -0.141905  -1.7e-05  3.934298  0.0
C  C101  1  0.99898625  0.70896685  0.24430964  1  -0.026308  2.7e-05  -0.088126  -0.141816  1.7e-05  3.934386  0.0
C  C102  1  0.50100901  0.20896745  0.74430729  1  -0.026664  2.7e-05  -0.088167  -0.141814  1.7e-05  3.934465  0.0
C  C103  1  0.00100340  0.29103825  0.75569217  1  -0.026665  -2.7e-05  -0.088077  -0.141715  -1.7e-05  3.93427  0.0
C  C104  1  0.57601249  0.89354503  0.24859041  1  -0.018856  0.000154  0.00241  0.181896  9.1e-05  3.970698  0.0
C  C105  1  0.07600579  0.60645775  0.25140837  1  -0.018701  -0.000154  0.002384  0.181871  -9.1e-05  3.970762  0.0
C  C106  1  0.42399022  0.10646177  0.75140654  1  -0.018448  -0.000154  0.002399  0.181841  -9.1e-05  3.97086  0.0
C  C107  1  0.92399169  0.39354818  0.74859264  1  -0.018649  0.000154  0.002332  0.181902  9.1e-05  3.970753  0.0
C  C108  1  0.63495358  0.91963892  0.19642489  1  -0.019558  -3.2e-05  -0.084637  -0.124849  -2.2e-05  3.9298  0.0
C  C109  1  0.13494313  0.58036236  0.30357457  1  -0.019779  3.2e-05  -0.084639  -0.124956  2.2e-05  3.929944  0.0
C  C110  1  0.36505696  0.08036296  0.80357360  1  -0.019774  3.2e-05  -0.08459  -0.124852  2.1e-05  3.929782  0.0
C  C111  1  0.86505043  0.41964765  0.69642734  1  -0.019779  -3.2e-05  -0.084608  -0.124967  -2.2e-05  3.929796  0.0
C  C112  1  0.62155402  0.84524100  0.15263075  1  -0.0032  8e-05  -0.081312  -0.083329  4.5e-05  4.003257  0.0
C  C113  1  0.12154715  0.65475861  0.34736829  1  -0.003497  -8e-05  -0.081317  -0.083368  -4.5e-05  4.003433  0.0
C  C114  1  0.37845652  0.15475841  0.84736809  1  -0.003297  -8e-05  -0.081318  -0.083403  -4.5e-05  4.003296  0.0
C  C115  1  0.87845686  0.34524814  0.65263233  1  -0.003078  8e-05  -0.081354  -0.083262  4.5e-05  4.003219  0.0
C  C116  1  0.59648803  0.97436311  0.29525642  1  -0.109061  8.5e-05  -0.245575  -0.439529  0.000105  3.948082  0.0
C  C117  1  0.09648562  0.52563808  0.20474229  1  -0.108895  -8.5e-05  -0.24555  -0.439487  -0.000105  3.948173  0.0
C  C118  1  0.40350815  0.02564286  0.70474133  1  -0.108909  -8.5e-05  -0.245569  -0.439435  -0.000105  3.948057  0.0
C  C119  1  0.90351447  0.47436128  0.79526103  1  -0.108177  8.5e-05  -0.245516  -0.439567  0.000105  3.948138  0.0
C  C120  1  0.16552902  0.38162238  0.06599549  1  1.566063  -0.000133  0.231341  0.632391  -0.00025  4.087203  0.0
C  C121  1  0.66554618  0.11838136  0.43400595  1  1.565996  0.000135  0.231357  0.632416  0.000252  4.087191  0.0
C  C122  1  0.83445801  0.61838029  0.93400423  1  1.565962  0.000134  0.231336  0.632233  0.00025  4.087404  0.0
C  C123  1  0.33445130  0.88162044  0.56599824  1  1.565619  -0.00013  0.231365  0.632264  -0.000249  4.087281  0.0
C  C124  1  0.26821658  0.31791845  0.10707960  1  0.274835  0.000742  -0.057534  -0.141939  0.00041  3.89773  0.001
C  C125  1  0.76823230  0.18208228  0.39291996  1  0.275123  -0.000744  -0.057593  -0.141871  -0.000412  3.897902  -0.001
C  C126  1  0.73177045  0.68208504  0.89292014  1  0.27474  -0.000746  -0.057616  -0.141914  -0.000412  3.898059  -0.001
C  C127  1  0.23176909  0.81791382  0.60708208  1  0.274959  0.000741  -0.057613  -0.141938  0.00041  3.898138  0.001
C  C128  1  0.57846386  0.30103347  0.19070772  1  -0.237822  -1e-05  -0.030653  -0.121879  1.2e-05  4.025151  0.0
C  C129  1  0.07846842  0.19895211  0.30929148  1  -0.237783  1e-05  -0.030678  -0.122007  -1.2e-05  4.025545  0.0
C  C130  1  0.42152448  0.69896842  0.80928954  1  -0.237743  1e-05  -0.030705  -0.121873  -1.2e-05  4.025417  0.0
C  C131  1  0.92152514  0.80103333  0.69071320  1  -0.237778  -1e-05  -0.030618  -0.121831  1.2e-05  4.025493  0.0
C  C132  1  0.48635391  0.27031659  0.23697078  1  -0.032431  0.000152  -0.08687  -0.086944  0.000111  4.005288  0.0
C  C133  1  0.98636975  0.22967569  0.26302536  1  -0.03161  -0.000152  -0.086773  -0.086704  -0.000112  4.005179  0.0
C  C134  1  0.51364357  0.72968119  0.76302803  1  -0.032376  -0.000152  -0.086863  -0.086928  -0.000112  4.005245  0.0
C  C135  1  0.01363818  0.77031715  0.73697579  1  -0.032484  0.000152  -0.08691  -0.086994  0.000111  4.005318  0.0
C  C136  1  0.49482711  0.33614706  0.28447364  1  -0.02575  -6.7e-05  -0.094523  -0.149866  -4.4e-05  3.933159  0.0
C  C137  1  0.99484603  0.16384605  0.21552291  1  -0.026346  6.7e-05  -0.094644  -0.150182  4.4e-05  3.933313  0.0
C  C138  1  0.50517168  0.66384746  0.71552388  1  -0.025657  6.7e-05  -0.094631  -0.15009  4.4e-05  3.933074  0.0
C  C139  1  0.00515928  0.83614923  0.78447952  1  -0.026068  -6.6e-05  -0.094602  -0.150065  -4.4e-05  3.932881  0.0
C  C140  1  0.59066811  0.43406720  0.28603771  1  -0.065655  0.000153  0.002523  0.186455  9.8e-05  3.945617  0.0
C  C141  1  0.09067754  0.06592579  0.21395998  1  -0.065601  -0.000153  0.002623  0.186647  -9.8e-05  3.945604  0.0
C  C142  1  0.40932284  0.56593141  0.71396030  1  -0.065645  -0.000153  0.002599  0.186693  -9.8e-05  3.945337  0.0
C  C143  1  0.90931864  0.93406623  0.78604197  1  -0.06529  0.000153  0.002613  0.186714  9.8e-05  3.945326  0.0
C  C144  1  0.67833369  0.46399440  0.23855644  1  -0.03046  6e-06  -0.090255  -0.142114  7e-06  3.936528  0.0
C  C145  1  0.17833682  0.03599798  0.26144068  1  -0.031513  -6e-06  -0.090259  -0.142183  -7e-06  3.936689  0.0
C  C146  1  0.32166509  0.53600746  0.76144327  1  -0.030683  -6e-06  -0.090275  -0.142111  -7e-06  3.93667  0.0
C  C147  1  0.82165675  0.96399078  0.73856039  1  -0.030838  6e-06  -0.090317  -0.14224  7e-06  3.93662  0.0
C  C148  1  0.67481160  0.39809896  0.19114601  1  -0.026965  8.4e-05  -0.08431  -0.083216  4.6e-05  3.987767  0.0
C  C149  1  0.17482078  0.10188766  0.30885344  1  -0.026425  -8.4e-05  -0.084305  -0.083071  -4.6e-05  3.987827  0.0
C  C150  1  0.32518849  0.60190128  0.80885244  1  -0.027006  -8.4e-05  -0.08431  -0.083247  -4.6e-05  3.988053  0.0
C  C151  1  0.82518323  0.89809698  0.69114959  1  -0.027003  8.4e-05  -0.084265  -0.083159  4.6e-05  3.98795  0.0
C  C152  1  0.59955269  0.50543624  0.33705505  1  -0.036355  -1.4e-05  -0.23726  -0.413248  -1.5e-05  3.946144  0.0
C  C153  1  0.09956316  0.99455765  0.16294025  1  -0.036346  1.4e-05  -0.237349  -0.413479  1.5e-05  3.946067  0.0
C  C154  1  0.40044741  0.49456322  0.66294094  1  -0.036752  1.4e-05  -0.237292  -0.413393  1.5e-05  3.946025  0.0
C  C155  1  0.90044216  0.00544175  0.83706022  1  -0.036663  -1.4e-05  -0.237398  -0.413576  -1.5e-05  3.946091  0.0
S  S156  1  0.55192485  0.64232794  0.10781248  1  2.900909  9.9e-05  0.568874  1.111575  6e-06  5.876213  0.0
S  S157  1  0.05194061  0.85767561  0.39218636  1  2.900543  -9.9e-05  0.568694  1.111398  -6e-06  5.876374  0.0
S  S158  1  0.44805827  0.35767232  0.89218434  1  2.900115  -9.9e-05  0.568664  1.111369  -6e-06  5.876473  0.0
S  S159  1  0.94806601  0.14233031  0.60781587  1  2.900711  9.9e-05  0.568806  1.111579  6e-06  5.876532  0.0
S  S160  1  0.56467003  0.22017645  0.12927979  1  2.901474  -0.000381  0.549185  1.069674  -0.000412  5.960444  0.0
S  S161  1  0.06469224  0.27980670  0.37071490  1  2.9015  0.000381  0.549081  1.069432  0.000412  5.96096  0.0
S  S162  1  0.43532222  0.77982627  0.87071627  1  2.901074  0.000381  0.54935  1.069764  0.000412  5.960407  0.0
S  S163  1  0.93531699  0.72017385  0.62928846  1  2.900997  -0.000381  0.54941  1.069955  -0.000412  5.960517  0.0
N  N164  1  0.51794956  0.71123639  0.05288718  1  -1.323517  -0.005029  -0.457661  -0.472711  -0.003165  3.447817  -0.004
N  N165  1  0.01796256  0.78876057  0.44710874  1  -1.323389  0.005029  -0.457584  -0.472691  0.003164  3.447914  0.004
N  N166  1  0.48203747  0.28875246  0.94710697  1  -1.323156  0.005026  -0.457688  -0.47271  0.003162  3.447892  0.004
N  N167  1  0.98204537  0.21124207  0.55289302  1  -1.323471  -0.005029  -0.457671  -0.472749  -0.003165  3.448014  -0.004
N  N168  1  0.44409791  0.29182384  0.08733898  1  -1.251853  -0.001589  -0.459371  -0.456914  -0.000889  3.391245  -0.001
N  N169  1  0.94411865  0.20817486  0.41265982  1  -1.251792  0.00159  -0.45934  -0.456782  0.00089  3.391466  0.001
N  N170  1  0.55588912  0.70818053  0.91265630  1  -1.251926  0.00159  -0.459408  -0.456994  0.00089  3.391766  0.001
N  N171  1  0.05588928  0.79181546  0.58734699  1  -1.251826  -0.00159  -0.459442  -0.457098  -0.00089  3.39176  -0.001
O  O172  1  0.26530596  0.59076766  0.98431335  1  -1.109511  0.083445  -0.310915  -0.51967  0.054348  2.340221  0.075
O  O173  1  0.76531058  0.90923131  0.51568718  1  -1.109501  -0.08344  -0.310945  -0.519792  -0.054346  2.34015  -0.075
O  O174  1  0.73468629  0.40922117  0.01568202  1  -1.109815  -0.083449  -0.311  -0.519949  -0.054352  2.340142  -0.075
O  O175  1  0.23469473  0.09077947  0.48431801  1  -1.109802  0.08345  -0.311008  -0.519884  0.054353  2.340165  0.075
O  O176  1  0.92618900  0.35115193  0.94967311  1  -1.097261  0.084408  -0.309863  -0.514861  0.055119  2.320879  0.076
O  O177  1  0.42619026  0.14885313  0.55032516  1  -1.09729  -0.084418  -0.30985  -0.514826  -0.055126  2.321026  -0.076
O  O178  1  0.07381631  0.64885731  0.05032471  1  -1.097362  -0.084436  -0.309844  -0.514766  -0.055137  2.320807  -0.076
O  O179  1  0.57382551  0.85114544  0.44967652  1  -1.097314  0.084425  -0.309939  -0.515015  0.055129  2.32095  0.076
O  O180  1  0.41637045  0.56241802  0.11707500  1  -1.305602  -0.000276  -0.303515  -0.523415  -0.000165  2.189362  0.0
O  O181  1  0.91639058  0.93759206  0.38292534  1  -1.305249  0.000276  -0.303435  -0.523331  0.000164  2.189313  0.0
O  O182  1  0.58360221  0.43759114  0.88292893  1  -1.305095  0.000276  -0.303376  -0.523315  0.000164  2.189639  0.0
O  O183  1  0.08362257  0.06242534  0.61707386  1  -1.305444  -0.000276  -0.303413  -0.523306  -0.000164  2.189647  0.0
O  O184  1  0.73176713  0.60302361  0.10394597  1  -1.316725  0.001001  -0.322796  -0.559671  0.000513  2.318558  0.0
O  O185  1  0.23178568  0.89698034  0.39605337  1  -1.316841  -0.001  -0.322735  -0.559553  -0.000513  2.318481  0.0
O  O186  1  0.26820162  0.39696602  0.89605105  1  -1.316867  -0.001  -0.322659  -0.559527  -0.000513  2.318112  0.0
O  O187  1  0.76821441  0.10302962  0.60395180  1  -1.31667  0.001001  -0.322769  -0.559696  0.000514  2.318299  0.0
O  O188  1  0.22209043  0.38051273  0.01710850  1  -1.114762  0.073374  -0.304871  -0.520139  0.048214  2.415543  0.067
O  O189  1  0.72210015  0.11948868  0.48289361  1  -1.114995  -0.073372  -0.304869  -0.520151  -0.048214  2.415563  -0.067
O  O190  1  0.77791358  0.61948667  0.98289116  1  -1.11479  -0.073351  -0.304903  -0.520082  -0.0482  2.415785  -0.067
O  O191  1  0.27790647  0.88051723  0.51710944  1  -1.114703  0.073353  -0.304883  -0.520054  0.0482  2.415676  0.067
O  O192  1  0.96887715  0.56906203  0.91587837  1  -1.098832  0.076994  -0.300412  -0.503079  0.050238  2.359252  0.069
O  O193  1  0.46887302  0.93094147  0.58412350  1  -1.098818  -0.076998  -0.300418  -0.503079  -0.050241  2.359222  -0.069
O  O194  1  0.03111380  0.43094721  0.08411904  1  -1.098993  -0.076981  -0.3004  -0.503041  -0.05023  2.359373  -0.069
O  O195  1  0.53112707  0.06905785  0.41588308  1  -1.098651  0.076986  -0.300416  -0.50311  0.050232  2.359415  0.069
O  O196  1  0.73538226  0.21198958  0.10419677  1  -1.313799  -0.001017  -0.320453  -0.532558  -0.000665  2.150204  -0.001
O  O197  1  0.23542886  0.28796542  0.39579215  1  -1.313627  0.001017  -0.320222  -0.53235  0.000666  2.149776  0.001
O  O198  1  0.26460086  0.78800328  0.89580316  1  -1.313481  0.001016  -0.320422  -0.532486  0.000665  2.149852  0.001
O  O199  1  0.76460258  0.71199152  0.60420340  1  -1.313751  -0.001017  -0.320453  -0.532525  -0.000665  2.150137  -0.001
O  O200  1  0.46613068  0.12297689  0.14079413  1  -1.316222  -1e-05  -0.309933  -0.530889  3e-06  2.19861  0.0
O  O201  1  0.96618352  0.37700798  0.35920231  1  -1.316586  1e-05  -0.309982  -0.530813  -3e-06  2.19923  0.0
O  O202  1  0.53387071  0.87701924  0.85920587  1  -1.316341  1e-05  -0.309931  -0.530856  -3e-06  2.19879  0.0
O  O203  1  0.03387142  0.62298151  0.64080489  1  -1.315998  -1e-05  -0.309956  -0.530981  3e-06  2.198697  0.0
