# generated using pymatgen
data_LaH11C17O11
_symmetry_space_group_name_H-M   'P 1'
_cell_length_a   8.89134686
_cell_length_b   8.90236801
_cell_length_c   12.72745341
_cell_angle_alpha   81.95756979
_cell_angle_beta   69.30030770
_cell_angle_gamma   60.92654757
_symmetry_Int_Tables_number   1
_chemical_formula_structural   LaH11C17O11
_chemical_formula_sum   'La2 H22 C34 O22'
_cell_volume   823.02602738
_cell_formula_units_Z   2
loop_
 _symmetry_equiv_pos_site_id
 _symmetry_equiv_pos_as_xyz
  1  'x, y, z'
loop_
 _atom_site_type_symbol
 _atom_site_label
 _atom_site_symmetry_multiplicity
 _atom_site_fract_x
 _atom_site_fract_y
 _atom_site_fract_z
 _atom_site_occupancy
 _atom_site_hle17_bader_spin_density
 _atom_site_hle17_ddec_charge
 _atom_site_hle17_ddec_spin_density
 _atom_site_hle17_ddec_sum_bond_order
 _atom_site_hle17_magmom
 _atom_site_hse06_10hf_bader_spin_density
 _atom_site_hse06_10hf_ddec_charge
 _atom_site_hse06_10hf_ddec_spin_density
 _atom_site_hse06_10hf_ddec_sum_bond_order
 _atom_site_hse06_10hf_magmom
 _atom_site_hse06_bader_spin_density
 _atom_site_hse06_ddec_charge
 _atom_site_hse06_ddec_spin_density
 _atom_site_hse06_ddec_sum_bond_order
 _atom_site_hse06_magmom
 _atom_site_pbe_bader_spin_density
 _atom_site_pbe_cm5_charge
 _atom_site_pbe_ddec_charge
 _atom_site_pbe_ddec_spin_density
 _atom_site_pbe_ddec_sum_bond_order
 _atom_site_pbe_magmom
La  La0  1  0.08558660  0.76554988  0.58465583  1  0  2.135384  0  1.737083  0  0  2.013531  0  2.250483  0  0  2.116807  0  2.1487  0  0  1.410658  1.935563  0  2.322102  0
La  La1  1  0.91441349  0.23444956  0.41534461  1  0  2.13537  0  1.737104  0  0  2.013537  0  2.250469  0  0  2.116811  0  2.14869  0  0  1.410656  1.93557  0  2.322087  0
H  H2  1  0.54621250  0.81536417  0.46118474  1  0  0.112457  0  0.966107  0  0  0.120889  0  1.032191  0  0  0.124936  0  1.029072  0  0  0.113877  0.117891  0  1.034642  0
H  H3  1  0.45378576  0.18463654  0.53881444  1  0  0.112475  0  0.966065  0  0  0.120879  0  1.032186  0  0  0.124922  0  1.029068  0  0  0.113889  0.11788  0  1.034638  0
H  H4  1  0.48567565  0.00436884  0.14234199  1  0  0.123344  0  0.965396  0  0  0.127291  0  1.037287  0  0  0.132155  0  1.032943  0  0  0.110818  0.123752  0  1.04053  0
H  H5  1  0.51432436  0.99563317  0.85765820  1  0  0.123376  0  0.965349  0  0  0.127305  0  1.037267  0  0  0.132166  0  1.032924  0  0  0.110827  0.123763  0  1.040508  0
H  H6  1  0.93167589  0.96743949  0.22688051  1  0  0.113087  0  0.958182  0  0  0.119463  0  1.030096  0  0  0.123238  0  1.027293  0  0  0.114439  0.11677  0  1.032118  0
H  H7  1  0.06832483  0.03255866  0.77311991  1  0  0.113103  0  0.958119  0  0  0.119476  0  1.030035  0  0  0.123251  0  1.027234  0  0  0.114437  0.116781  0  1.032064  0
H  H8  1  0.72113999  0.90774590  0.98603788  1  0  0.06023  0  0.910397  0  0  0.070665  0  0.974609  0  0  0.07138  0  0.971843  0  0  0.120672  0.069985  0  0.976788  0
H  H9  1  0.27885818  0.09225739  0.01396263  1  0  0.060233  0  0.910363  0  0  0.070666  0  0.974568  0  0  0.071382  0  0.971799  0  0  0.120661  0.069961  0  0.976769  0
H  H10  1  0.85499497  0.00811288  0.89889889  1  0  0.060445  0  0.9369  0  0  0.068564  0  1.00773  0  0  0.069275  0  1.005181  0  0  0.12181  0.067901  0  1.009741  0
H  H11  1  0.14500504  0.99188912  0.10110131  1  0  0.06045  0  0.936918  0  0  0.068567  0  1.007741  0  0  0.069277  0  1.00519  0  0  0.121797  0.0679  0  1.009747  0
H  H12  1  0.83292628  0.27248862  0.93873344  1  0  0.131586  0  0.939457  0  0  0.138249  0  1.004359  0  0  0.142562  0  1.001027  0  0  0.114526  0.135141  0  1.006788  0
H  H13  1  0.16707319  0.72751207  0.06126467  1  0  0.13162  0  0.939466  0  0  0.138284  0  1.004353  0  0  0.142598  0  1.001018  0  0  0.114539  0.135175  0  1.006781  0
H  H14  1  0.05966850  0.53617350  0.84324111  1  0  0.415475  0  0.862101  0  0  0.386546  0  0.938103  0  0  0.399182  0  0.923889  0  0  0.314278  0.3776  0  0.948129  0
H  H15  1  0.94033408  0.46382334  0.15675741  1  0  0.415469  0  0.862111  0  0  0.386542  0  0.938112  0  0  0.399178  0  0.923899  0  0  0.314272  0.377591  0  0.948149  0
H  H16  1  0.61933482  0.66360963  0.71379899  1  0  0.116291  0  0.947947  0  0  0.124699  0  1.011811  0  0  0.128463  0  1.00901  0  0  0.116714  0.121932  0  1.013973  0
H  H17  1  0.38066279  0.33639237  0.28620101  1  0  0.116304  0  0.947941  0  0  0.124699  0  1.011826  0  0  0.128462  0  1.009027  0  0  0.116713  0.121933  0  1.013987  0
H  H18  1  0.34061365  0.36954497  0.88614146  1  0  0.11763  0  0.938477  0  0  0.12676  0  1.002755  0  0  0.130469  0  1.000064  0  0  0.111668  0.124075  0  1.004761  0
H  H19  1  0.65938644  0.63045445  0.11385819  1  0  0.117605  0  0.938521  0  0  0.126736  0  1.002805  0  0  0.130442  0  1.000116  0  0  0.111666  0.124053  0  1.00482  0
H  H20  1  0.21574903  0.40002667  0.49625988  1  0  0.441242  0  0.861004  0  0  0.410926  0  0.923243  0  0  0.422915  0  0.90605  0  0  0.301156  0.402307  0  0.935571  0
H  H21  1  0.78424921  0.59997406  0.50374088  1  0  0.441079  0  0.861239  0  0  0.410876  0  0.923323  0  0  0.422865  0  0.906128  0  0  0.301102  0.402261  0  0.935645  0
H  H22  1  0.39398195  0.42981552  0.44531622  1  0  0.44094  0  0.856506  0  0  0.412039  0  0.917064  0  0  0.423714  0  0.900187  0  0  0.304012  0.403594  0  0.929245  0
H  H23  1  0.60601694  0.57018390  0.55468294  1  0  0.441021  0  0.856396  0  0  0.412129  0  0.916942  0  0  0.423805  0  0.900064  0  0  0.304037  0.403687  0  0.929119  0
C  C24  1  0.84514630  0.85531601  0.43513615  1  0  0.673024  0  3.872848  0  0  0.62491  0  4.161719  0  0  0.660025  0  4.156276  0  0  0.226426  0.600774  0  4.164583  0
C  C25  1  0.15485385  0.14468087  0.56486532  1  0  0.673  0  3.872861  0  0  0.624827  0  4.161819  0  0  0.659942  0  4.15638  0  0  0.226403  0.600699  0  4.16468  0
C  C26  1  0.74877349  0.88908553  0.35308042  1  0  -0.04462  0  3.78325  0  0  -0.019309  0  4.020187  0  0  -0.025531  0  4.040932  0  0  -0.011531  -0.015396  0  4.00641  0
C  C27  1  0.25122539  0.11091391  0.64692031  1  0  -0.044579  0  3.783254  0  0  -0.019298  0  4.020256  0  0  -0.025507  0  4.04098  0  0  -0.011548  -0.015394  0  4.006486  0
C  C28  1  0.59757680  0.86149285  0.37985483  1  0  -0.089468  0  3.697583  0  0  -0.130476  0  3.948297  0  0  -0.129253  0  3.965879  0  0  -0.080059  -0.131088  0  3.936579  0
C  C29  1  0.40242087  0.13850661  0.62014699  1  0  -0.089478  0  3.697565  0  0  -0.13045  0  3.948298  0  0  -0.129225  0  3.965872  0  0  -0.080057  -0.131056  0  3.936571  0
C  C30  1  0.50447825  0.90387772  0.30319289  1  0  -0.037751  0  3.761287  0  0  -0.012988  0  3.99692  0  0  -0.018917  0  4.01772  0  0  -0.01232  -0.009281  0  3.983119  0
C  C31  1  0.49552241  0.09612298  0.69680649  1  0  -0.037705  0  3.761262  0  0  -0.012943  0  3.996884  0  0  -0.018875  0  4.017682  0  0  -0.012302  -0.009234  0  3.983069  0
C  C32  1  0.32979623  0.89429579  0.33739217  1  0  0.685805  0  3.8849  0  0  0.639931  0  4.181004  0  0  0.675449  0  4.174363  0  0  0.226259  0.615405  0  4.1847  0
C  C33  1  0.67020379  0.10570619  0.66260645  1  0  0.685727  0  3.884964  0  0  0.639875  0  4.181049  0  0  0.675396  0  4.174406  0  0  0.226234  0.615347  0  4.184749  0
C  C34  1  0.56523266  0.96670847  0.19842257  1  0  -0.18678  0  3.707181  0  0  -0.222864  0  3.963149  0  0  -0.224516  0  3.97961  0  0  -0.093617  -0.221513  0  3.952187  0
C  C35  1  0.43476672  0.03329482  0.80157686  1  0  -0.186807  0  3.707109  0  0  -0.222867  0  3.963093  0  0  -0.22453  0  3.979581  0  0  -0.093615  -0.221505  0  3.952108  0
C  C36  1  0.72411895  0.98158864  0.16945656  1  0  0.268864  0  3.804022  0  0  0.263734  0  4.069024  0  0  0.272214  0  4.085719  0  0  0.081757  0.257607  0  4.057804  0
C  C37  1  0.27587985  0.01841337  0.83054393  1  0  0.268884  0  3.804001  0  0  0.263727  0  4.069057  0  0  0.272205  0  4.085751  0  0  0.081749  0.2576  0  4.057832  0
C  C38  1  0.81203547  0.94909195  0.24812860  1  0  -0.161291  0  3.699747  0  0  -0.202355  0  3.962361  0  0  -0.203929  0  3.980215  0  0  -0.085317  -0.201007  0  3.950336  0
C  C39  1  0.18796636  0.05090879  0.75187285  1  0  -0.161385  0  3.699842  0  0  -0.202414  0  3.962467  0  0  -0.203991  0  3.980313  0  0  -0.085325  -0.201067  0  3.950458  0
C  C40  1  0.74534722  0.01944783  0.97715406  1  0  0.267948  0  3.624325  0  0  0.186289  0  3.912295  0  0  0.202969  0  3.909096  0  0  0.03233  0.17482  0  3.914417  0
C  C41  1  0.25465159  0.98055418  0.02284643  1  0  0.267908  0  3.624297  0  0  0.186284  0  3.912225  0  0  0.202968  0  3.909023  0  0  0.032352  0.174846  0  3.914334  0
C  C42  1  0.59003564  0.30211307  0.91466275  1  0  0.27422  0  3.778093  0  0  0.268451  0  4.044873  0  0  0.275905  0  4.062645  0  0  0.087091  0.262934  0  4.03299  0
C  C43  1  0.40996382  0.69788763  0.08533614  1  0  0.274337  0  3.777962  0  0  0.26858  0  4.044721  0  0  0.276036  0  4.062492  0  0  0.087103  0.263061  0  4.032847  0
C  C44  1  0.73079987  0.34225669  0.89731334  1  0  -0.172056  0  3.672719  0  0  -0.208659  0  3.929138  0  0  -0.209945  0  3.948284  0  0  -0.084733  -0.207486  0  3.916289  0
C  C45  1  0.26919959  0.65774402  0.10268633  1  0  -0.172141  0  3.672674  0  0  -0.208734  0  3.929091  0  0  -0.21002  0  3.948237  0  0  -0.084746  -0.207559  0  3.916239  0
C  C46  1  0.73865346  0.47431026  0.82461738  1  0  -0.052403  0  3.761873  0  0  -0.027956  0  3.999278  0  0  -0.036665  0  4.02186  0  0  -0.012372  -0.022355  0  3.984219  0
C  C47  1  0.26134721  0.52569044  0.17538122  1  0  -0.052369  0  3.761766  0  0  -0.027953  0  3.999172  0  0  -0.036664  0  4.021755  0  0  -0.012362  -0.02236  0  3.984107  0
C  C48  1  0.88530527  0.52374767  0.79689296  1  0  0.680659  0  3.769881  0  0  0.634467  0  4.058942  0  0  0.669525  0  4.049883  0  0  0.252328  0.610361  0  4.064772  0
C  C49  1  0.11469484  0.47625173  0.20310512  1  0  0.680737  0  3.769706  0  0  0.634607  0  4.058682  0  0  0.669665  0  4.049623  0  0  0.252407  0.610525  0  4.064482  0
C  C50  1  0.60779003  0.56453525  0.77151820  1  0  -0.060942  0  3.669784  0  0  -0.105739  0  3.923166  0  0  -0.10204  0  3.939145  0  0  -0.071295  -0.108023  0  3.912598  0
C  C51  1  0.39221064  0.43546544  0.22847961  1  0  -0.061017  0  3.66972  0  0  -0.105802  0  3.923117  0  0  -0.102101  0  3.939097  0  0  -0.071337  -0.108085  0  3.912546  0
C  C52  1  0.46225102  0.52975352  0.79488187  1  0  -0.038245  0  3.754162  0  0  -0.012885  0  3.991599  0  0  -0.019348  0  4.011225  0  0  -0.009652  -0.009085  0  3.978939  0
C  C53  1  0.53775091  0.47024462  0.20511825  1  0  -0.038254  0  3.754099  0  0  -0.012912  0  3.991548  0  0  -0.019376  0  4.011174  0  0  -0.009662  -0.009106  0  3.97888  0
C  C54  1  0.32801463  0.62216888  0.73392692  1  0  0.664867  0  3.876331  0  0  0.613859  0  4.171865  0  0  0.648111  0  4.166832  0  0  0.218364  0.590536  0  4.174292  0
C  C55  1  0.67198482  0.37783184  0.26607276  1  0  0.664905  0  3.876216  0  0  0.613927  0  4.171714  0  0  0.64818  0  4.16668  0  0  0.218366  0.590611  0  4.174133  0
C  C56  1  0.45128206  0.40067899  0.86843797  1  0  -0.14071  0  3.665841  0  0  -0.179344  0  3.921671  0  0  -0.179591  0  3.938082  0  0  -0.079204  -0.178905  0  3.910727  0
C  C57  1  0.54871925  0.59932042  0.13156060  1  0  -0.140746  0  3.665826  0  0  -0.17939  0  3.921681  0  0  -0.179632  0  3.938086  0  0  -0.07922  -0.17896  0  3.910759  0
O  O58  1  0.85906914  0.73413457  0.50349530  1  0  -0.635888  0  1.990591  0  0  -0.578751  0  2.216308  0  0  -0.60833  0  2.207838  0  0  -0.316691  -0.557774  0  2.221591  0
O  O59  1  0.14092671  0.26586615  0.49650526  1  0  -0.635924  0  1.990492  0  0  -0.57869  0  2.216213  0  0  -0.608276  0  2.207751  0  0  -0.316679  -0.557714  0  2.221499  0
O  O60  1  0.91754543  0.94939700  0.43515305  1  0  -0.755643  0  2.146756  0  0  -0.700117  0  2.409705  0  0  -0.738447  0  2.404498  0  0  -0.401875  -0.672153  0  2.411839  0
O  O61  1  0.08245537  0.05059858  0.56484761  1  0  -0.755638  0  2.146817  0  0  -0.700096  0  2.409811  0  0  -0.738409  0  2.404561  0  0  -0.40187  -0.672137  0  2.411951  0
O  O62  1  0.31346696  0.77976856  0.40466107  1  0  -0.669015  0  1.999948  0  0  -0.626978  0  2.254066  0  0  -0.659965  0  2.247224  0  0  -0.368554  -0.603055  0  2.257897  0
O  O63  1  0.68653250  0.22023214  0.59533782  1  0  -0.668973  0  2.000062  0  0  -0.626946  0  2.254179  0  0  -0.659935  0  2.247336  0  0  -0.368523  -0.603022  0  2.258012  0
O  O64  1  0.20647353  0.00910541  0.29856200  1  0  -0.698468  0  1.968304  0  0  -0.658259  0  2.227918  0  0  -0.691564  0  2.21925  0  0  -0.396635  -0.633701  0  2.232679  0
O  O65  1  0.79352833  0.99089530  0.70143788  1  0  -0.698442  0  1.968261  0  0  -0.658254  0  2.227897  0  0  -0.691551  0  2.21921  0  0  -0.39664  -0.633701  0  2.232665  0
O  O66  1  0.80262342  0.02915272  0.06538784  1  0  -0.304275  0  2.310318  0  0  -0.241487  0  2.552658  0  0  -0.258637  0  2.552707  0  0  -0.184325  -0.229265  0  2.552179  0
O  O67  1  0.19737722  0.97084803  0.93461390  1  0  -0.304207  0  2.310283  0  0  -0.241425  0  2.552637  0  0  -0.258574  0  2.552684  0  0  -0.184297  -0.229214  0  2.552158  0
O  O68  1  0.57823135  0.16516492  0.97597062  1  0  -0.323493  0  2.297883  0  0  -0.259128  0  2.542265  0  0  -0.277591  0  2.544004  0  0  -0.188626  -0.245966  0  2.540662  0
O  O69  1  0.42176928  0.83483583  0.02403113  1  0  -0.323526  0  2.297761  0  0  -0.259186  0  2.542153  0  0  -0.27765  0  2.543891  0  0  -0.188627  -0.246024  0  2.540544  0
O  O70  1  0.97187978  0.48570287  0.87124562  1  0  -0.533565  0  2.032956  0  0  -0.483912  0  2.237275  0  0  -0.505296  0  2.221574  0  0  -0.321903  -0.469097  0  2.247932  0
O  O71  1  0.02812344  0.51429268  0.12875287  1  0  -0.533571  0  2.032994  0  0  -0.483937  0  2.237288  0  0  -0.505321  0  2.221586  0  0  -0.321916  -0.46913  0  2.24795  0
O  O72  1  0.92058494  0.59897070  0.70928527  1  0  -0.615278  0  2.040702  0  0  -0.57146  0  2.286577  0  0  -0.60022  0  2.277996  0  0  -0.321848  -0.55097  0  2.291965  0
O  O73  1  0.07941330  0.40103003  0.29071549  1  0  -0.61533  0  2.040534  0  0  -0.571534  0  2.286382  0  0  -0.600295  0  2.277805  0  0  -0.321887  -0.551056  0  2.291764  0
O  O74  1  0.16293474  0.64908032  0.77842350  1  0  -0.688797  0  1.984119  0  0  -0.6353  0  2.216514  0  0  -0.665676  0  2.207317  0  0  -0.340941  -0.613592  0  2.221967  0
O  O75  1  0.83706534  0.35091912  0.22157773  1  0  -0.688815  0  1.984091  0  0  -0.635326  0  2.216475  0  0  -0.665702  0  2.207277  0  0  -0.340939  -0.613624  0  2.221929  0
O  O76  1  0.38057644  0.67382948  0.63532379  1  0  -0.666098  0  1.98848  0  0  -0.609348  0  2.222117  0  0  -0.640781  0  2.214868  0  0  -0.335699  -0.586895  0  2.226304  0
O  O77  1  0.61942244  0.32616996  0.36467694  1  0  -0.666078  0  1.988379  0  0  -0.609352  0  2.222018  0  0  -0.640782  0  2.214767  0  0  -0.335696  -0.586901  0  2.226198  0
O  O78  1  0.26432842  0.48147194  0.49555761  1  0  -0.908705  0  1.860885  0  0  -0.863969  0  2.068581  0  0  -0.893083  0  2.033945  0  0  -0.661993  -0.842354  0  2.092613  0
O  O79  1  0.73567048  0.51852748  0.50444155  1  0  -0.908622  0  1.860998  0  0  -0.863992  0  2.068543  0  0  -0.893104  0  2.033906  0  0  -0.661956  -0.842383  0  2.092576  0
