# generated using pymatgen
data_CdH17C22NO8
_symmetry_space_group_name_H-M   'P 1'
_cell_length_a   8.20388484
_cell_length_b   10.07644658
_cell_length_c   14.29356838
_cell_angle_alpha   97.39209541
_cell_angle_beta   101.39792368
_cell_angle_gamma   112.74978208
_symmetry_Int_Tables_number   1
_chemical_formula_structural   CdH17C22NO8
_chemical_formula_sum   'Cd2 H34 C44 N2 O16'
_cell_volume   1040.32817889
_cell_formula_units_Z   2
loop_
 _symmetry_equiv_pos_site_id
 _symmetry_equiv_pos_as_xyz
  1  'x, y, z'
loop_
 _atom_site_type_symbol
 _atom_site_label
 _atom_site_symmetry_multiplicity
 _atom_site_fract_x
 _atom_site_fract_y
 _atom_site_fract_z
 _atom_site_occupancy
 _atom_site_hle17_bader_spin_density
 _atom_site_hle17_ddec_charge
 _atom_site_hle17_ddec_spin_density
 _atom_site_hle17_ddec_sum_bond_order
 _atom_site_hle17_magmom
 _atom_site_hse06_10hf_bader_spin_density
 _atom_site_hse06_10hf_ddec_charge
 _atom_site_hse06_10hf_ddec_spin_density
 _atom_site_hse06_10hf_ddec_sum_bond_order
 _atom_site_hse06_10hf_magmom
 _atom_site_hse06_bader_spin_density
 _atom_site_hse06_ddec_charge
 _atom_site_hse06_ddec_spin_density
 _atom_site_hse06_ddec_sum_bond_order
 _atom_site_hse06_magmom
 _atom_site_pbe_bader_spin_density
 _atom_site_pbe_cm5_charge
 _atom_site_pbe_ddec_charge
 _atom_site_pbe_ddec_spin_density
 _atom_site_pbe_ddec_sum_bond_order
 _atom_site_pbe_magmom
Cd  Cd0  1  0.19663796  0.92333515  0.54705405  1  0  1.175418  0  1.621353  0  0  0.990518  0  2.061092  0  0  1.048624  0  2.006464  0  0  0.777053  0.946065  0  2.100662  0
Cd  Cd1  1  0.80336196  0.07666795  0.45294691  1  0  1.175422  0  1.621344  0  0  0.990506  0  2.061082  0  0  1.048613  0  2.006453  0  0  0.777041  0.946054  0  2.100652  0
H  H2  1  0.50382154  0.09721057  0.72456148  1  0  0.397513  0  0.854609  0  0  0.380819  0  0.914034  0  0  0.388652  0  0.904966  0  0  0.305628  0.375134  0  0.92071  0
H  H3  1  0.49618203  0.90279473  0.27544149  1  0  0.397516  0  0.854615  0  0  0.380832  0  0.914024  0  0  0.388665  0  0.904956  0  0  0.305644  0.375147  0  0.920698  0
H  H4  1  0.59401159  0.09915191  0.63779536  1  0  0.434355  0  0.864461  0  0  0.401876  0  0.930092  0  0  0.412462  0  0.914719  0  0  0.29086  0.394339  0  0.941065  0
H  H5  1  0.40598949  0.90085340  0.36220594  1  0  0.434368  0  0.864453  0  0  0.401884  0  0.930089  0  0  0.412473  0  0.914713  0  0  0.290851  0.39435  0  0.941057  0
H  H6  1  0.11112662  0.70841218  0.29898083  1  0  0.400119  0  0.89737  0  0  0.36721  0  0.978934  0  0  0.379672  0  0.96518  0  0  0.298736  0.358521  0  0.987766  0
H  H7  1  0.88887472  0.29158657  0.70101704  1  0  0.400098  0  0.897366  0  0  0.367209  0  0.978902  0  0  0.379676  0  0.965172  0  0  0.298749  0.358495  0  0.987774  0
H  H8  1  0.18672056  0.44197310  0.53408110  1  0  0.1285  0  0.940658  0  0  0.13218  0  1.011106  0  0  0.136587  0  1.007442  0  0  0.109605  0.129007  0  1.013788  0
H  H9  1  0.81328234  0.55803332  0.46592050  1  0  0.128498  0  0.940637  0  0  0.132163  0  1.011109  0  0  0.136563  0  1.007455  0  0  0.109595  0.128993  0  1.013788  0
H  H10  1  0.00680712  0.13934507  0.84909287  1  0  0.111571  0  0.967268  0  0  0.11993  0  1.029461  0  0  0.123659  0  1.0276  0  0  0.10709  0.117238  0  1.031063  0
H  H11  1  0.99317719  0.86064468  0.15090786  1  0  0.111676  0  0.967213  0  0  0.120021  0  1.02941  0  0  0.123758  0  1.027538  0  0  0.107133  0.117329  0  1.03101  0
H  H12  1  0.38445547  0.21956363  0.33739543  1  0  0.126989  0  0.951545  0  0  0.133994  0  1.0199  0  0  0.138092  0  1.016766  0  0  0.108954  0.13082  0  1.02261  0
H  H13  1  0.61554771  0.78043615  0.66260695  1  0  0.127009  0  0.951382  0  0  0.133974  0  1.0198  0  0  0.138074  0  1.016661  0  0  0.108928  0.1308  0  1.02251  0
H  H14  1  0.37788214  0.63750752  0.30283445  1  0  0.10133  0  0.955773  0  0  0.111563  0  1.021432  0  0  0.115604  0  1.01801  0  0  0.103145  0.108398  0  1.0244  0
H  H15  1  0.62211987  0.36249011  0.69716409  1  0  0.101263  0  0.955832  0  0  0.111512  0  1.02148  0  0  0.115552  0  1.018058  0  0  0.103126  0.108358  0  1.024432  0
H  H16  1  0.14806645  0.73834944  0.70730593  1  0  0.10391  0  0.95412  0  0  0.108694  0  1.021892  0  0  0.111591  0  1.019162  0  0  0.123685  0.106736  0  1.023587  0
H  H17  1  0.85194085  0.26165590  0.29269534  1  0  0.103859  0  0.954183  0  0  0.108665  0  1.021938  0  0  0.111561  0  1.019211  0  0  0.123683  0.106708  0  1.023633  0
H  H18  1  0.36462789  0.21293704  0.16206548  1  0  0.052903  0  0.937392  0  0  0.065456  0  1.003165  0  0  0.066024  0  1.002356  0  0  0.094517  0.065032  0  1.003764  0
H  H19  1  0.63537711  0.78706386  0.83793650  1  0  0.052884  0  0.937428  0  0  0.065464  0  1.003198  0  0  0.066034  0  1.002384  0  0  0.094485  0.065037  0  1.003797  0
H  H20  1  0.58647257  0.29643846  0.24957032  1  0  0.084571  0  0.95067  0  0  0.093745  0  1.017286  0  0  0.095426  0  1.014719  0  0  0.110082  0.092509  0  1.019172  0
H  H21  1  0.41353443  0.70355918  0.75042945  1  0  0.084558  0  0.950727  0  0  0.093778  0  1.017337  0  0  0.095415  0  1.014819  0  0  0.110076  0.092539  0  1.019222  0
H  H22  1  0.09006942  0.74316809  0.87227767  1  0  0.103866  0  0.955093  0  0  0.114909  0  1.013877  0  0  0.117324  0  1.014884  0  0  0.106384  0.113135  0  1.01343  0
H  H23  1  0.90993327  0.25682842  0.12772223  1  0  0.103742  0  0.955137  0  0  0.114806  0  1.0139  0  0  0.117219  0  1.014908  0  0  0.106348  0.113037  0  1.013447  0
H  H24  1  0.01504197  0.85307026  0.00505197  1  0  0.095263  0  0.943055  0  0  0.110673  0  0.997797  0  0  0.113364  0  0.996345  0  0  0.108347  0.108867  0  0.998667  0
H  H25  1  0.98495517  0.14692509  0.99494931  1  0  0.095257  0  0.94306  0  0  0.110687  0  0.997775  0  0  0.113377  0  0.996321  0  0  0.108354  0.10888  0  0.998645  0
H  H26  1  0.07691985  0.12099489  0.68893656  1  0  0.100089  0  0.94602  0  0  0.10626  0  1.011317  0  0  0.109248  0  1.008452  0  0  0.12012  0.104124  0  1.013284  0
H  H27  1  0.92307280  0.87900373  0.31106596  1  0  0.100106  0  0.945973  0  0  0.106265  0  1.011294  0  0  0.109255  0  1.008425  0  0  0.120087  0.104128  0  1.013268  0
H  H28  1  0.95956656  0.59593193  0.05712657  1  0  0.088318  0  0.976514  0  0  0.096619  0  1.043646  0  0  0.099567  0  1.04206  0  0  0.097672  0.094541  0  1.044753  0
H  H29  1  0.04043102  0.40406683  0.94286880  1  0  0.088272  0  0.976564  0  0  0.096586  0  1.04369  0  0  0.09953  0  1.042102  0  0  0.097686  0.094509  0  1.044797  0
H  H30  1  0.33297237  0.20482036  0.99971078  1  0  0.079807  0  0.997065  0  0  0.087709  0  1.065825  0  0  0.089281  0  1.067381  0  0  0.091483  0.08658  0  1.064855  0
H  H31  1  0.66702784  0.79517611  0.00029024  1  0  0.079804  0  0.997024  0  0  0.087706  0  1.065775  0  0  0.089279  0  1.06733  0  0  0.091486  0.086577  0  1.064805  0
H  H32  1  0.76322052  0.47590658  0.88611025  1  0  0.09585  0  0.952027  0  0  0.10335  0  1.016952  0  0  0.106692  0  1.01509  0  0  0.100654  0.100964  0  1.018332  0
H  H33  1  0.23677083  0.52409214  0.11388514  1  0  0.095858  0  0.952  0  0  0.103352  0  1.01693  0  0  0.106695  0  1.015065  0  0  0.100642  0.100967  0  1.018311  0
H  H34  1  0.44684220  0.27937494  0.85785052  1  0  0.083204  0  0.950877  0  0  0.093252  0  1.012971  0  0  0.096051  0  1.011437  0  0  0.098101  0.091189  0  1.01421  0
H  H35  1  0.55314986  0.72062262  0.14214903  1  0  0.083238  0  0.950831  0  0  0.093278  0  1.012935  0  0  0.096076  0  1.011401  0  0  0.098123  0.091217  0  1.014173  0
C  C36  1  0.27852533  0.55337894  0.42197391  1  0  -0.045718  0  3.784631  0  0  -0.019338  0  4.023423  0  0  -0.026671  0  4.045946  0  0  -0.015538  -0.014544  0  4.00793  0
C  C37  1  0.72147650  0.44662309  0.57802574  1  0  -0.045651  0  3.784587  0  0  -0.019284  0  4.023407  0  0  -0.026619  0  4.045934  0  0  -0.015511  -0.014505  0  4.007947  0
C  C38  1  0.24189392  0.43764340  0.47101100  1  0  -0.07268  0  3.659851  0  0  -0.114725  0  3.914305  0  0  -0.113338  0  3.933558  0  0  -0.078624  -0.115375  0  3.90168  0
C  C39  1  0.75811098  0.56235973  0.52898980  1  0  -0.072728  0  3.659775  0  0  -0.114742  0  3.914254  0  0  -0.113351  0  3.93351  0  0  -0.078633  -0.115391  0  3.901627  0
C  C40  1  0.38641838  0.42786254  0.30898463  1  0  0.26703  0  3.814851  0  0  0.263625  0  4.077442  0  0  0.272202  0  4.094274  0  0  0.081461  0.257393  0  4.065996  0
C  C41  1  0.61359276  0.57214061  0.69101755  1  0  0.267051  0  3.814896  0  0  0.263612  0  4.077487  0  0  0.27219  0  4.094317  0  0  0.081415  0.25738  0  4.066041  0
C  C42  1  0.24656596  0.68393382  0.45824105  1  0  0.673642  0  3.840222  0  0  0.613336  0  4.136183  0  0  0.648676  0  4.128049  0  0  0.218071  0.589446  0  4.140514  0
C  C43  1  0.75343461  0.31606824  0.54175637  1  0  0.673622  0  3.840263  0  0  0.613296  0  4.136264  0  0  0.648634  0  4.128134  0  0  0.218057  0.589405  0  4.140592  0
C  C44  1  0.03994559  0.04908948  0.82292091  1  0  -0.155433  0  3.680186  0  0  -0.170415  0  3.924619  0  0  -0.178463  0  3.945285  0  0  -0.080065  -0.165241  0  3.910889  0
C  C45  1  0.96004417  0.95090363  0.17707935  1  0  -0.155673  0  3.680239  0  0  -0.170613  0  3.924663  0  0  -0.178663  0  3.945324  0  0  -0.080168  -0.165436  0  3.910933  0
C  C46  1  0.35337731  0.31306728  0.35827158  1  0  -0.182077  0  3.683416  0  0  -0.220566  0  3.940553  0  0  -0.222251  0  3.959608  0  0  -0.095844  -0.219005  0  3.927771  0
C  C47  1  0.64663316  0.68693695  0.64173133  1  0  -0.182065  0  3.683185  0  0  -0.220501  0  3.94034  0  0  -0.222185  0  3.959393  0  0  -0.095761  -0.218939  0  3.927555  0
C  C48  1  0.27909685  0.31853557  0.43857928  1  0  -0.049814  0  3.786267  0  0  -0.022595  0  4.022814  0  0  -0.031152  0  4.047448  0  0  -0.018667  -0.017134  0  4.006333  0
C  C49  1  0.72090623  0.68146644  0.56142191  1  0  -0.049795  0  3.786164  0  0  -0.022621  0  4.022756  0  0  -0.031176  0  4.047386  0  0  -0.018717  -0.01716  0  4.006278  0
C  C50  1  0.23756984  0.19260450  0.48863306  1  0  0.639659  0  3.920335  0  0  0.587669  0  4.21083  0  0  0.622594  0  4.20523  0  0  0.199554  0.564003  0  4.213435  0
C  C51  1  0.76242950  0.80739749  0.51136773  1  0  0.639634  0  3.92022  0  0  0.587663  0  4.210717  0  0  0.622588  0  4.205117  0  0  0.199563  0.563997  0  4.213324  0
C  C52  1  0.34845142  0.54757055  0.34091084  1  0  -0.165881  0  3.697629  0  0  -0.205061  0  3.95465  0  0  -0.20624  0  3.971912  0  0  -0.093942  -0.203751  0  3.943001  0
C  C53  1  0.65155051  0.45242926  0.65908930  1  0  -0.165847  0  3.697727  0  0  -0.205037  0  3.954786  0  0  -0.206215  0  3.97205  0  0  -0.093946  -0.203732  0  3.943124  0
C  C54  1  0.04559927  0.94290667  0.87705601  1  0  0.125417  0  3.819327  0  0  0.139401  0  4.052088  0  0  0.144465  0  4.0745  0  0  0.005385  0.136188  0  4.036871  0
C  C55  1  0.95439663  0.05708866  0.12294583  1  0  0.125587  0  3.819115  0  0  0.1395  0  4.05196  0  0  0.144556  0  4.074374  0  0  0.005479  0.136287  0  4.036744  0
C  C56  1  0.12011442  0.82673865  0.74289143  1  0  0.134425  0  3.693733  0  0  0.103592  0  3.94414  0  0  0.111112  0  3.963667  0  0  0.05205  0.098779  0  3.930396  0
C  C57  1  0.87988444  0.17326004  0.25710827  1  0  0.134466  0  3.693846  0  0  0.10361  0  3.944265  0  0  0.111128  0  3.963792  0  0  0.052013  0.098798  0  3.930523  0
C  C58  1  0.49400868  0.31392624  0.19072828  1  0  0.04416  0  3.633127  0  0  -0.021845  0  3.898483  0  0  -0.013029  0  3.900507  0  0  -0.065452  -0.027812  0  3.896912  0
C  C59  1  0.50599689  0.68607578  0.80927318  1  0  0.044274  0  3.63306  0  0  -0.021862  0  3.898549  0  0  -0.013016  0  3.900588  0  0  -0.065403  -0.027818  0  3.896966  0
C  C60  1  0.75762291  0.46927982  0.12438241  1  0  -0.112514  0  3.730083  0  0  -0.097576  0  3.964573  0  0  -0.106155  0  3.987886  0  0  -0.016657  -0.091969  0  3.949334  0
C  C61  1  0.24238034  0.53071784  0.87561486  1  0  -0.112552  0  3.730342  0  0  -0.09737  0  3.964575  0  0  -0.105945  0  3.987886  0  0  -0.016632  -0.091766  0  3.949335  0
C  C62  1  0.08533613  0.82930246  0.83424996  1  0  -0.154521  0  3.680739  0  0  -0.170168  0  3.922971  0  0  -0.178604  0  3.944833  0  0  -0.078798  -0.164737  0  3.908419  0
C  C63  1  0.91466091  0.17069510  0.16575083  1  0  -0.154401  0  3.680737  0  0  -0.170048  0  3.922995  0  0  -0.178479  0  3.944855  0  0  -0.078748  -0.164622  0  3.908442  0
C  C64  1  0.88389281  0.54318990  0.22507768  1  0  0.636761  0  3.820677  0  0  0.587892  0  4.12044  0  0  0.620541  0  4.112331  0  0  0.224328  0.565727  0  4.125829  0
C  C65  1  0.11610932  0.45680547  0.77492414  1  0  0.63656  0  3.820352  0  0  0.587613  0  4.120141  0  0  0.620265  0  4.11204  0  0  0.224197  0.56545  0  4.125521  0
C  C66  1  0.01383947  0.94632322  0.97382664  1  0  -0.102131  0  3.722402  0  0  -0.121658  0  3.972585  0  0  -0.123103  0  3.989578  0  0  -0.077475  -0.12063  0  3.960826  0
C  C67  1  0.98615642  0.05367213  0.02617380  1  0  -0.102132  0  3.722179  0  0  -0.121652  0  3.972376  0  0  -0.123092  0  3.989368  0  0  -0.077444  -0.120627  0  3.960619  0
C  C68  1  0.07799653  0.04003823  0.73263803  1  0  0.125894  0  3.703292  0  0  0.094243  0  3.957022  0  0  0.101637  0  3.975549  0  0  0.045775  0.089589  0  3.943873  0
C  C69  1  0.92200225  0.95996263  0.26736468  1  0  0.125961  0  3.703379  0  0  0.094321  0  3.957074  0  0  0.101715  0  3.975603  0  0  0.045846  0.089667  0  3.943925  0
C  C70  1  0.57903538  0.35692968  0.10859796  1  0  0.066701  0  3.704242  0  0  0.07979  0  3.938435  0  0  0.081011  0  3.961345  0  0  -0.002707  0.079009  0  3.922973  0
C  C71  1  0.42096481  0.64306684  0.89140026  1  0  0.066781  0  3.704273  0  0  0.079728  0  3.938586  0  0  0.080949  0  3.961489  0  0  -0.002713  0.078948  0  3.923117  0
C  C72  1  0.82141690  0.50978519  0.04355949  1  0  -0.084614  0  3.765369  0  0  -0.108599  0  4.017446  0  0  -0.109239  0  4.039609  0  0  -0.091752  -0.108074  0  4.002628  0
C  C73  1  0.17858069  0.49021354  0.95643728  1  0  -0.084525  0  3.765331  0  0  -0.108576  0  4.017342  0  0  -0.109212  0  4.039499  0  0  -0.091749  -0.108052  0  4.002527  0
C  C74  1  0.47177804  0.28956022  0.01204103  1  0  -0.119483  0  3.748981  0  0  -0.135965  0  3.991742  0  0  -0.140529  0  4.015384  0  0  -0.091444  -0.132975  0  3.975787  0
C  C75  1  0.52822215  0.71043627  0.98795860  1  0  -0.119588  0  3.749016  0  0  -0.13604  0  3.991822  0  0  -0.140605  0  4.015467  0  0  -0.091479  -0.13305  0  3.975868  0
C  C76  1  0.71257764  0.44138179  0.94792512  1  0  -0.068907  0  3.771462  0  0  -0.084595  0  4.029197  0  0  -0.087464  0  4.049919  0  0  -0.092272  -0.082758  0  4.015042  0
C  C77  1  0.28741632  0.55861471  0.05207243  1  0  -0.069024  0  3.771406  0  0  -0.084712  0  4.029148  0  0  -0.087581  0  4.049869  0  0  -0.092314  -0.082877  0  4.014996  0
C  C78  1  0.53636700  0.33066483  0.93212760  1  0  -0.044839  0  3.760881  0  0  -0.062582  0  4.014456  0  0  -0.062225  0  4.03468  0  0  -0.087755  -0.062588  0  4.000716  0
C  C79  1  0.46362696  0.66933166  0.06786995  1  0  -0.044716  0  3.760881  0  0  -0.062446  0  4.014427  0  0  -0.062089  0  4.034654  0  0  -0.087702  -0.062455  0  4.000691  0
N  N80  1  0.11877058  0.93156859  0.69354332  1  0  -0.352169  0  3.293884  0  0  -0.269701  0  3.554146  0  0  -0.292264  0  3.57562  0  0  -0.332284  -0.253867  0  3.538553  0
N  N81  1  0.88123011  0.06843121  0.30645738  1  0  -0.352225  0  3.294079  0  0  -0.269759  0  3.554349  0  0  -0.292323  0  3.575822  0  0  -0.3323  -0.253926  0  3.538756  0
O  O82  1  0.12023615  0.16931181  0.53884221  1  0  -0.681664  0  2.009684  0  0  -0.616486  0  2.265852  0  0  -0.644613  0  2.252399  0  0  -0.338508  -0.596145  0  2.274556  0
O  O83  1  0.87976492  0.83069350  0.46115909  1  0  -0.681624  0  2.009636  0  0  -0.616446  0  2.265791  0  0  -0.644574  0  2.252336  0  0  -0.338489  -0.596104  0  2.274495  0
O  O84  1  0.22645974  0.70526385  0.54338297  1  0  -0.580342  0  1.962592  0  0  -0.509789  0  2.201732  0  0  -0.538969  0  2.193125  0  0  -0.296079  -0.489  0  2.206748  0
O  O85  1  0.77354074  0.29474039  0.45661606  1  0  -0.580362  0  1.962713  0  0  -0.509774  0  2.201821  0  0  -0.538954  0  2.193216  0  0  -0.296065  -0.488985  0  2.206837  0
O  O86  1  0.24024585  0.77470414  0.40212864  1  0  -0.698276  0  2.072948  0  0  -0.620283  0  2.303427  0  0  -0.64854  0  2.290189  0  0  -0.326839  -0.599552  0  2.312327  0
O  O87  1  0.75975165  0.22529679  0.59786904  1  0  -0.69828  0  2.072833  0  0  -0.620276  0  2.303295  0  0  -0.648531  0  2.29006  0  0  -0.326849  -0.599529  0  2.312203  0
O  O88  1  0.45499709  0.43500599  0.22895679  1  0  -0.293041  0  2.31334  0  0  -0.22232  0  2.54721  0  0  -0.240921  0  2.551112  0  0  -0.183897  -0.208965  0  2.543984  0
O  O89  1  0.54501415  0.56499494  0.77104587  1  0  -0.293133  0  2.313312  0  0  -0.222309  0  2.547168  0  0  -0.240911  0  2.551059  0  0  -0.183852  -0.208959  0  2.543939  0
O  O90  1  0.32089011  0.11013748  0.47733589  1  0  -0.612308  0  1.998433  0  0  -0.538598  0  2.239057  0  0  -0.569033  0  2.230561  0  0  -0.319668  -0.516884  0  2.244931  0
O  O91  1  0.67910684  0.88986229  0.52266511  1  0  -0.612332  0  1.998395  0  0  -0.538599  0  2.238969  0  0  -0.569032  0  2.230467  0  0  -0.319675  -0.516887  0  2.244844  0
O  O92  1  0.50491222  0.03268309  0.66817078  1  0  -0.805538  0  1.814757  0  0  -0.755489  0  1.991873  0  0  -0.774707  0  1.964331  0  0  -0.58086  -0.741663  0  2.011579  0
O  O93  1  0.49508944  0.96732331  0.33183140  1  0  -0.805543  0  1.814754  0  0  -0.755499  0  1.991889  0  0  -0.774719  0  1.96434  0  0  -0.580863  -0.741676  0  2.011599  0
O  O94  1  0.02685122  0.66917383  0.22791247  1  0  -0.574765  0  2.086129  0  0  -0.522489  0  2.309157  0  0  -0.54519  0  2.294526  0  0  -0.342116  -0.506667  0  2.318383  0
O  O95  1  0.97315000  0.33082715  0.77208352  1  0  -0.574605  0  2.086249  0  0  -0.522342  0  2.309273  0  0  -0.545045  0  2.294663  0  0  -0.342064  -0.506508  0  2.318532  0
O  O96  1  0.86373588  0.49283067  0.29803046  1  0  -0.520583  0  1.958426  0  0  -0.477514  0  2.175906  0  0  -0.497508  0  2.168939  0  0  -0.27154  -0.464047  0  2.180689  0
O  O97  1  0.13626952  0.50717373  0.70196072  1  0  -0.520531  0  1.957677  0  0  -0.477473  0  2.175204  0  0  -0.49747  0  2.168245  0  0  -0.271487  -0.464003  0  2.179979  0
