# generated using pymatgen
data_CoH20C22O7
_symmetry_space_group_name_H-M   'P 1'
_cell_length_a   5.98316834
_cell_length_b   8.20875315
_cell_length_c   19.87720544
_cell_angle_alpha   103.14614047
_cell_angle_beta   89.98563487
_cell_angle_gamma   90.02503519
_symmetry_Int_Tables_number   1
_chemical_formula_structural   CoH20C22O7
_chemical_formula_sum   'Co2 H40 C44 O14'
_cell_volume   950.67134505
_cell_formula_units_Z   2
loop_
 _symmetry_equiv_pos_site_id
 _symmetry_equiv_pos_as_xyz
  1  'x, y, z'
loop_
 _atom_site_type_symbol
 _atom_site_label
 _atom_site_symmetry_multiplicity
 _atom_site_fract_x
 _atom_site_fract_y
 _atom_site_fract_z
 _atom_site_occupancy
 _atom_site_hle17_ddec_charge
 _atom_site_hle17_ddec_spin_density
 _atom_site_hle17_ddec_sum_bond_order
 _atom_site_hle17_magmom
 _atom_site_pbe_cm5_charge
 _atom_site_pbe_ddec_charge
 _atom_site_pbe_ddec_spin_density
 _atom_site_pbe_ddec_sum_bond_order
 _atom_site_pbe_magmom
Co  Co0  1  0.49999615  0.99999833  0.49999938  1  1.16513  2.838568  2.028104  2.586  0.580663  0.921193  1.009807  2.593902  0.928
Co  Co1  1  0.49999779  0.49999649  0.50000016  1  1.166335  -2.838648  2.026784  -2.586  0.581799  0.92375  -1.00975  2.591505  -0.928
H  H2  1  0.31813608  0.73476519  0.43422345  1  0.432094  0.000151  0.871356  0.0  0.306862  0.396562  7.6e-05  0.940931  0.0
H  H3  1  0.31909355  0.76571259  0.56613495  1  0.432785  -0.000173  0.870251  0.0  0.307377  0.397713  -8.1e-05  0.939213  0.0
H  H4  1  0.68186619  0.26522775  0.56577636  1  0.432187  0.000151  0.871228  0.0  0.306934  0.396688  7.6e-05  0.940758  0.0
H  H5  1  0.68090705  0.23428425  0.43386719  1  0.432697  -0.000173  0.870379  0.0  0.307346  0.397642  -8.1e-05  0.939312  0.0
H  H6  1  0.13352980  0.87150580  0.42675064  1  0.437385  0.000866  0.855176  0.002  0.308067  0.406259  -0.000194  0.916499  0.0
H  H7  1  0.13302694  0.62931463  0.57328299  1  0.437342  -0.000911  0.855667  -0.002  0.307833  0.406212  0.000193  0.916943  0.0
H  H8  1  0.86646913  0.12848585  0.57324857  1  0.43735  0.000866  0.855251  0.002  0.308077  0.406278  -0.000194  0.916469  0.0
H  H9  1  0.86697367  0.37068449  0.42671632  1  0.437349  -0.000911  0.85566  -0.002  0.307819  0.406215  0.000193  0.91694  0.0
H  H10  1  0.22407824  0.25974396  0.45985881  1  0.420097  0.000517  0.885104  0.001  0.29331  0.37813  0.000375  0.964672  0.001
H  H11  1  0.22404073  0.24007920  0.54017582  1  0.420771  -0.000512  0.884193  -0.001  0.293459  0.378529  -0.000375  0.964182  -0.001
H  H12  1  0.77591902  0.74024508  0.54013867  1  0.420074  0.000517  0.885107  0.001  0.293299  0.378096  0.000375  0.964696  0.001
H  H13  1  0.77595151  0.75991484  0.45982207  1  0.420734  -0.000512  0.88426  -0.001  0.29346  0.378524  -0.000375  0.964193  -0.001
H  H14  1  0.52571433  0.90751737  0.69893847  1  0.111821  1.2e-05  0.938238  0.0  0.107242  0.117786  -1.7e-05  1.003706  0.0
H  H15  1  0.52558859  0.59260910  0.30110337  1  0.112134  -1e-05  0.93828  0.0  0.107151  0.118219  1.6e-05  1.003544  0.0
H  H16  1  0.47428962  0.09248413  0.30105953  1  0.111784  1.2e-05  0.938238  0.0  0.107228  0.117752  -1.7e-05  1.00371  0.0
H  H17  1  0.47441034  0.40738494  0.69889452  1  0.112119  -1.1e-05  0.938175  0.0  0.107138  0.118182  1.6e-05  1.00347  0.0
H  H18  1  0.66338736  0.81124912  0.80173318  1  0.093548  -1.1e-05  0.978453  0.0  0.098643  0.100969  3e-06  1.043383  0.0
H  H19  1  0.66346856  0.68880129  0.19826272  1  0.093546  1.2e-05  0.978449  0.0  0.098592  0.100781  -3e-06  1.04365  0.0
H  H20  1  0.33662327  0.18874761  0.19826745  1  0.093601  -1e-05  0.978215  0.0  0.098663  0.101034  3e-06  1.043144  0.0
H  H21  1  0.33652870  0.31119252  0.80173213  1  0.093565  1.1e-05  0.978406  0.0  0.098599  0.100787  -3e-06  1.04364  0.0
H  H22  1  0.61099790  0.78737764  0.92260192  1  0.08625  1e-06  0.960992  0.0  0.096136  0.095809  3e-06  1.02098  0.0
H  H23  1  0.61119271  0.71262106  0.07739973  1  0.08637  -1e-06  0.960809  0.0  0.096221  0.096082  -3e-06  1.020617  0.0
H  H24  1  0.38902276  0.21261655  0.07739800  1  0.086305  0.0  0.960919  0.0  0.096193  0.095828  3e-06  1.020943  0.0
H  H25  1  0.38879620  0.28737900  0.92259564  1  0.08635  -1e-06  0.960965  0.0  0.09623  0.096122  -3e-06  1.020699  0.0
H  H26  1  0.26665112  0.89911911  0.98734230  1  0.07836  -5e-06  0.973685  0.0  0.094543  0.088944  -1.1e-05  1.036051  0.0
H  H27  1  0.26683912  0.60081838  0.01266983  1  0.078321  6e-06  0.973623  0.0  0.094656  0.088923  1.1e-05  1.035883  0.0
H  H28  1  0.73336787  0.10087497  0.01265610  1  0.07825  -5e-06  0.973648  0.0  0.094541  0.088879  -1.1e-05  1.035978  0.0
H  H29  1  0.73312973  0.39919074  0.98733029  1  0.078352  5e-06  0.973552  0.0  0.094643  0.088914  1.1e-05  1.035855  0.0
H  H30  1  0.96836353  0.03009696  0.92974503  1  0.086327  -0.0  0.970428  0.0  0.096767  0.096401  9e-06  1.033324  0.0
H  H31  1  0.96836645  0.46981364  0.07030743  1  0.086212  -1e-06  0.970474  0.0  0.096742  0.096313  -9e-06  1.033342  0.0
H  H32  1  0.03165880  0.96989977  0.07025560  1  0.086319  -0.0  0.970394  0.0  0.096739  0.096383  9e-06  1.033305  0.0
H  H33  1  0.03161744  0.53019957  0.92969757  1  0.086199  0.0  0.970524  0.0  0.09676  0.096298  -9e-06  1.033413  0.0
H  H34  1  0.82865274  0.12145474  0.82738009  1  0.090065  3.6e-05  0.985236  0.0  0.096509  0.099302  -9e-06  1.048161  0.0
H  H35  1  0.82854307  0.37847133  0.17267825  1  0.089816  -3.7e-05  0.985194  0.0  0.096482  0.09918  9e-06  1.048048  0.0
H  H36  1  0.17136792  0.87854343  0.17262317  1  0.090091  3.7e-05  0.985185  0.0  0.096518  0.099355  -9e-06  1.048076  0.0
H  H37  1  0.17143915  0.62154176  0.82732523  1  0.089758  -3.6e-05  0.98527  0.0  0.09645  0.099154  9e-06  1.048092  0.0
H  H38  1  0.88725740  0.15413258  0.70771498  1  0.097677  -2e-06  0.961089  0.0  0.10177  0.102463  4e-06  1.029628  0.0
H  H39  1  0.88693331  0.34589544  0.29236044  1  0.09799  1e-06  0.960974  0.0  0.101887  0.102534  -4e-06  1.029704  0.0
H  H40  1  0.11274654  0.84587563  0.29228960  1  0.097645  -2e-06  0.96119  0.0  0.101759  0.102416  4e-06  1.029733  0.0
H  H41  1  0.11305225  0.65411148  0.70764354  1  0.098014  -0.0  0.961024  0.0  0.101905  0.10261  -4e-06  1.029666  0.0
C  C42  1  0.20959525  0.03095238  0.69612237  1  -0.073076  0.002482  3.774242  0.004  -0.020723  -0.046614  -0.000502  4.007623  0.0
C  C43  1  0.20936868  0.46915706  0.30395976  1  -0.073127  -0.002433  3.774203  -0.003  -0.020536  -0.046439  0.000506  4.007239  0.0
C  C44  1  0.79042040  0.96905075  0.30388079  1  -0.07315  0.002481  3.774372  0.004  -0.020631  -0.046526  -0.000502  4.007533  0.0
C  C45  1  0.79063359  0.53084573  0.69603884  1  -0.072988  -0.002454  3.774103  -0.004  -0.020521  -0.046353  0.000506  4.007186  0.0
C  C46  1  0.37275104  0.95257706  0.72702464  1  -0.096445  0.00083  3.661198  0.001  -0.07543  -0.133569  -0.001406  3.902991  -0.002
C  C47  1  0.37261027  0.54754902  0.27303120  1  -0.097358  -0.000883  3.662047  -0.001  -0.075455  -0.134584  0.001411  3.903666  0.002
C  C48  1  0.62725624  0.04741440  0.27297203  1  -0.096284  0.000832  3.661163  0.001  -0.075379  -0.133461  -0.001407  3.902866  -0.002
C  C49  1  0.62739367  0.45245627  0.72696760  1  -0.097353  -0.000859  3.661926  -0.001  -0.075467  -0.134552  0.001411  3.903537  0.002
C  C50  1  0.34628887  0.93544073  0.79599591  1  0.044311  -0.000187  3.781802  0.0  -0.006135  0.067198  9.9e-05  3.987968  0.0
C  C51  1  0.34626427  0.56457419  0.20404453  1  0.044504  0.000209  3.78178  0.0  -0.006074  0.067284  -9.9e-05  3.987918  0.0
C  C52  1  0.65372510  0.06455460  0.20400259  1  0.043999  -0.000183  3.781856  0.0  -0.006192  0.066943  9.9e-05  3.98798  0.0
C  C53  1  0.65372297  0.43542754  0.79595651  1  0.044479  0.000193  3.781873  0.0  -0.00601  0.067335  -9.9e-05  3.987951  0.0
C  C54  1  0.51215009  0.85953743  0.82989892  1  -0.103912  0.000354  3.727136  0.0  -0.08611  -0.12365  -0.000508  3.960244  -0.001
C  C55  1  0.51223059  0.64045618  0.17011633  1  -0.103917  -0.000383  3.726692  0.0  -0.086178  -0.12355  0.00051  3.959893  0.001
C  C56  1  0.48786221  0.14046036  0.17009928  1  -0.103845  0.000343  3.727029  0.0  -0.086062  -0.123624  -0.000508  3.960141  -0.001
C  C57  1  0.48775497  0.35954532  0.82988166  1  -0.103922  -0.00036  3.726716  0.0  -0.086206  -0.123564  0.00051  3.959961  0.001
C  C58  1  0.48297440  0.84707391  0.89743162  1  -0.083337  -0.000173  3.787406  0.0  -0.097856  -0.094284  0.000165  4.02565  0.0
C  C59  1  0.48308266  0.65289326  0.10257885  1  -0.08379  0.000199  3.787636  0.0  -0.098017  -0.094808  -0.000165  4.025781  0.0
C  C60  1  0.51704292  0.15292282  0.10256901  1  -0.083492  -0.000164  3.787372  0.0  -0.097975  -0.0944  0.000165  4.025655  0.0
C  C61  1  0.51689454  0.34710695  0.89741854  1  -0.083743  0.000177  3.787402  0.0  -0.097998  -0.094821  -0.000165  4.025558  0.0
C  C62  1  0.28639817  0.90962170  0.93395302  1  -0.076158  0.00034  3.800808  0.0  -0.096133  -0.090558  -0.000599  4.037241  -0.001
C  C63  1  0.28651099  0.59035813  0.06607084  1  -0.075931  -0.000371  3.800599  0.0  -0.09607  -0.09032  0.000599  4.03706  0.001
C  C64  1  0.71362249  0.09037135  0.06604831  1  -0.076037  0.000332  3.800533  0.0  -0.096158  -0.090477  -0.000599  4.036968  -0.001
C  C65  1  0.71346955  0.40964848  0.93392908  1  -0.075987  -0.000347  3.80025  0.0  -0.096079  -0.090321  0.000599  4.036729  0.001
C  C66  1  0.12127031  0.98284926  0.90228653  1  -0.123949  -0.00017  3.754599  0.0  -0.092987  -0.138563  0.00018  3.984593  0.0
C  C67  1  0.12129880  0.51707985  0.09774450  1  -0.123595  0.000202  3.754188  0.0  -0.092988  -0.138242  -0.000179  3.983967  0.0
C  C68  1  0.87875202  0.01714993  0.09771379  1  -0.123969  -0.000161  3.754438  0.0  -0.092953  -0.138583  0.00018  3.984457  0.0
C  C69  1  0.87868008  0.48293555  0.90225664  1  -0.123543  0.000176  3.754225  0.0  -0.092973  -0.13817  -0.000179  3.984048  0.0
C  C70  1  0.14632291  0.99798107  0.83301963  1  0.059337  0.000239  3.787881  0.0  -0.004628  0.07494  -0.000451  3.991103  -0.001
C  C71  1  0.14631834  0.50197889  0.16702034  1  0.059062  -0.000266  3.788344  0.0  -0.004656  0.074945  0.000451  3.991225  0.001
C  C72  1  0.85370444  0.00201558  0.16697998  1  0.059666  0.000236  3.787616  0.0  -0.004619  0.07527  -0.000451  3.990797  -0.001
C  C73  1  0.85367223  0.49802898  0.83297969  1  0.059096  -0.000249  3.788335  0.0  -0.004704  0.074845  0.00045  3.991406  0.001
C  C74  1  0.98061078  0.07452424  0.79940531  1  -0.117375  5.1e-05  3.747778  0.0  -0.088871  -0.131042  0.000228  3.980047  0.0
C  C75  1  0.98053103  0.42542911  0.20065235  1  -0.117373  -1.1e-05  3.747775  0.0  -0.088897  -0.131222  -0.000224  3.979972  0.0
C  C76  1  0.01940486  0.92547643  0.20059815  1  -0.117629  4.9e-05  3.747768  0.0  -0.088904  -0.131345  0.000228  3.980108  0.0
C  C77  1  0.01945788  0.57457993  0.79934676  1  -0.117385  -3.7e-05  3.747937  0.0  -0.088876  -0.131227  -0.000224  3.980147  0.0
C  C78  1  0.01195528  0.09180841  0.73290570  1  -0.06549  0.00037  3.741116  0.001  -0.085954  -0.092955  -0.000389  3.983496  -0.001
C  C79  1  0.01175482  0.40818658  0.26715484  1  -0.065008  -0.000407  3.740528  -0.001  -0.085793  -0.092325  0.000386  3.982844  0.001
C  C80  1  0.98806036  0.90819101  0.26709766  1  -0.065356  0.000372  3.741114  0.001  -0.085986  -0.092851  -0.000389  3.983447  -0.001
C  C81  1  0.98823242  0.59182515  0.73284701  1  -0.065059  -0.000381  3.740681  -0.001  -0.085803  -0.092387  0.000386  3.983009  0.001
C  C82  1  0.24195511  0.06291746  0.62591705  1  0.669305  -9.3e-05  3.838248  -0.001  0.225489  0.578992  -0.003491  4.139848  -0.004
C  C83  1  0.24147808  0.43742164  0.37420288  1  0.670312  8.4e-05  3.836222  0.001  0.226012  0.579878  0.003496  4.137728  0.004
C  C84  1  0.75804716  0.93708310  0.37408489  1  0.669385  -9.3e-05  3.83835  -0.001  0.225571  0.57903  -0.003491  4.139929  -0.004
C  C85  1  0.75851751  0.56258107  0.62579472  1  0.670184  8.4e-05  3.836275  0.001  0.225994  0.579787  0.003495  4.137751  0.004
O  O86  1  0.39052210  0.97237110  0.58735197  1  -0.660899  0.037617  2.225772  0.059  -0.302057  -0.530063  -0.003729  2.495455  -0.006
O  O87  1  0.38924094  0.52857068  0.41290983  1  -0.660892  -0.037505  2.225466  -0.059  -0.302138  -0.530067  0.003764  2.495053  0.007
O  O88  1  0.60946680  0.02762309  0.41264795  1  -0.660883  0.03762  2.225779  0.059  -0.302053  -0.530067  -0.003729  2.495489  -0.006
O  O89  1  0.61075298  0.47142726  0.58709039  1  -0.660915  -0.03751  2.225475  -0.059  -0.302154  -0.530098  0.003765  2.495032  0.007
O  O90  1  0.12704347  0.17634904  0.60841560  1  -0.61915  0.001786  1.996188  0.004  -0.303853  -0.542597  -0.00197  2.221128  -0.003
O  O91  1  0.12700778  0.32359783  0.39165461  1  -0.619666  -0.001772  1.996475  -0.004  -0.303875  -0.542806  0.001977  2.221033  0.003
O  O92  1  0.87295045  0.82365155  0.39158685  1  -0.619149  0.001786  1.996257  0.004  -0.303923  -0.542603  -0.001971  2.22123  -0.003
O  O93  1  0.87299283  0.67639996  0.60834359  1  -0.619572  -0.001773  1.996534  -0.004  -0.303859  -0.542725  0.001976  2.221076  0.003
O  O94  1  0.27037008  0.85251383  0.45181026  1  -0.844754  0.038785  2.051527  0.061  -0.57697  -0.757079  -0.000805  2.296114  -0.002
O  O95  1  0.27252440  0.64751082  0.54930190  1  -0.845584  -0.038797  2.050647  -0.061  -0.578487  -0.759427  0.000717  2.29578  0.002
O  O96  1  0.72962550  0.14747914  0.54819006  1  -0.844814  0.038783  2.05146  0.061  -0.577039  -0.757223  -0.000805  2.296021  -0.002
O  O97  1  0.72748121  0.35248473  0.45069964  1  -0.845539  -0.038795  2.050717  -0.061  -0.578468  -0.759364  0.000717  2.295804  0.002
O  O98  1  0.32018417  0.24998721  0.50001959  1  -0.85069  5e-06  1.993928  0.0  -0.556102  -0.768077  6e-06  2.237111  0.0
O  O99  1  0.67981142  0.75000683  0.49997830  1  -0.850667  4e-06  1.993935  0.0  -0.556112  -0.768074  5e-06  2.237103  0.0
