# generated using pymatgen
data_HgH16C22Br2N6(ClO)2
_symmetry_space_group_name_H-M   'P 1'
_cell_length_a   3.93094478
_cell_length_b   14.84071849
_cell_length_c   20.49618426
_cell_angle_alpha   90.06474089
_cell_angle_beta   89.99906375
_cell_angle_gamma   90.00076339
_symmetry_Int_Tables_number   1
_chemical_formula_structural   HgH16C22Br2N6(ClO)2
_chemical_formula_sum   'Hg2 H32 C44 Br4 N12 Cl4 O4'
_cell_volume   1195.70655457
_cell_formula_units_Z   2
loop_
 _symmetry_equiv_pos_site_id
 _symmetry_equiv_pos_as_xyz
  1  'x, y, z'
loop_
 _atom_site_type_symbol
 _atom_site_label
 _atom_site_symmetry_multiplicity
 _atom_site_fract_x
 _atom_site_fract_y
 _atom_site_fract_z
 _atom_site_occupancy
 _atom_site_hle17_bader_spin_density
 _atom_site_hle17_ddec_charge
 _atom_site_hle17_ddec_spin_density
 _atom_site_hle17_ddec_sum_bond_order
 _atom_site_hle17_magmom
 _atom_site_hse06_10hf_bader_spin_density
 _atom_site_hse06_10hf_ddec_charge
 _atom_site_hse06_10hf_ddec_spin_density
 _atom_site_hse06_10hf_ddec_sum_bond_order
 _atom_site_hse06_10hf_magmom
 _atom_site_hse06_bader_spin_density
 _atom_site_hse06_ddec_charge
 _atom_site_hse06_ddec_spin_density
 _atom_site_hse06_ddec_sum_bond_order
 _atom_site_hse06_magmom
 _atom_site_pbe_bader_spin_density
 _atom_site_pbe_cm5_charge
 _atom_site_pbe_ddec_charge
 _atom_site_pbe_ddec_spin_density
 _atom_site_pbe_ddec_sum_bond_order
 _atom_site_pbe_magmom
Hg  Hg0  1  0.00000312  0.99999614  0.99999727  1  0  0.726998  0  2.142239  0  0  0.576654  0  2.638267  0  0  0.62673  0  2.603725  0  0  0.478939  0.542077  0  2.661647  0
Hg  Hg1  1  0.49999332  0.50000402  0.49999932  1  0  0.727033  0  2.14222  0  0  0.576686  0  2.638251  0  0  0.626761  0  2.603706  0  0  0.478941  0.542109  0  2.661632  0
H  H2  1  0.85342081  0.57693768  0.82556160  1  0  0.267546  0  0.953191  0  0  0.237878  0  1.045897  0  0  0.246431  0  1.037867  0  0  0.29195  0.231845  0  1.051578  0
H  H3  1  0.35336500  0.92306841  0.67444509  1  0  0.267652  0  0.953303  0  0  0.237968  0  1.045988  0  0  0.246506  0  1.037969  0  0  0.291957  0.231934  0  1.051661  0
H  H4  1  0.14660399  0.42306495  0.17444092  1  0  0.267738  0  0.953199  0  0  0.238074  0  1.04587  0  0  0.246615  0  1.037841  0  0  0.292008  0.232042  0  1.051545  0
H  H5  1  0.64660383  0.07694025  0.32556184  1  0  0.267612  0  0.953119  0  0  0.237932  0  1.045849  0  0  0.246477  0  1.037815  0  0  0.291969  0.231898  0  1.051524  0
H  H6  1  0.31877755  0.45799122  0.95729710  1  0  0.129616  0  0.958166  0  0  0.136942  0  1.01861  0  0  0.140979  0  1.015627  0  0  0.110652  0.134058  0  1.020819  0
H  H7  1  0.81874590  0.04201633  0.54270317  1  0  0.129644  0  0.958205  0  0  0.137015  0  1.018612  0  0  0.141049  0  1.015627  0  0  0.110658  0.134131  0  1.020814  0
H  H8  1  0.68121926  0.54200875  0.04269907  1  0  0.129682  0  0.958127  0  0  0.13706  0  1.01851  0  0  0.1411  0  1.01552  0  0  0.110675  0.134166  0  1.020716  0
H  H9  1  0.18121785  0.95798024  0.45729884  1  0  0.129703  0  0.958117  0  0  0.137006  0  1.018594  0  0  0.141042  0  1.015609  0  0  0.110668  0.134125  0  1.020805  0
H  H10  1  0.18811874  0.77267130  0.97532178  1  0  0.103058  0  0.944415  0  0  0.105286  0  1.017965  0  0  0.109302  0  1.014338  0  0  0.118645  0.10232  0  1.020709  0
H  H11  1  0.68816383  0.72733553  0.52468691  1  0  0.103066  0  0.944395  0  0  0.105202  0  1.018014  0  0  0.109223  0  1.014392  0  0  0.118618  0.102218  0  1.020829  0
H  H12  1  0.81188062  0.22732798  0.02467682  1  0  0.103062  0  0.944558  0  0  0.1053  0  1.018082  0  0  0.109316  0  1.014458  0  0  0.11868  0.102335  0  1.020844  0
H  H13  1  0.31185079  0.27267653  0.47531564  1  0  0.103177  0  0.944367  0  0  0.105302  0  1.018018  0  0  0.10932  0  1.014394  0  0  0.118648  0.102328  0  1.020795  0
H  H14  1  0.68799794  0.94730020  0.84934322  1  0  0.078041  0  0.992639  0  0  0.07677  0  1.074519  0  0  0.080733  0  1.070807  0  0  0.094585  0.073927  0  1.077233  0
H  H15  1  0.18800988  0.55269388  0.65065664  1  0  0.078008  0  0.99264  0  0  0.076753  0  1.074513  0  0  0.080715  0  1.070804  0  0  0.094599  0.073911  0  1.077225  0
H  H16  1  0.31197852  0.05269168  0.15065145  1  0  0.077954  0  0.992735  0  0  0.076716  0  1.07455  0  0  0.080681  0  1.070835  0  0  0.09458  0.073874  0  1.077263  0
H  H17  1  0.81198439  0.44730745  0.34933758  1  0  0.077903  0  0.992728  0  0  0.076624  0  1.074651  0  0  0.080587  0  1.07094  0  0  0.094553  0.073781  0  1.077363  0
H  H18  1  0.85636132  0.27338334  0.77506779  1  0  0.101139  0  0.96564  0  0  0.112017  0  1.028116  0  0  0.114519  0  1.027121  0  0  0.099381  0.110253  0  1.028837  0
H  H19  1  0.35630182  0.22661354  0.72493573  1  0  0.101015  0  0.965643  0  0  0.111893  0  1.028146  0  0  0.114397  0  1.027149  0  0  0.099284  0.110124  0  1.028872  0
H  H20  1  0.14363295  0.72660784  0.22493420  1  0  0.101079  0  0.965786  0  0  0.112044  0  1.028167  0  0  0.114525  0  1.027196  0  0  0.099338  0.110282  0  1.028878  0
H  H21  1  0.64369754  0.77339990  0.27506146  1  0  0.101137  0  0.965544  0  0  0.111976  0  1.028084  0  0  0.114481  0  1.027082  0  0  0.099318  0.110206  0  1.028806  0
H  H22  1  0.38294375  0.29307884  0.95909603  1  0  0.086823  0  0.964329  0  0  0.09449  0  1.032853  0  0  0.096802  0  1.031553  0  0  0.094543  0.092842  0  1.033821  0
H  H23  1  0.88294070  0.20692891  0.54090940  1  0  0.086805  0  0.964377  0  0  0.094516  0  1.032844  0  0  0.096828  0  1.031542  0  0  0.094549  0.092865  0  1.03382  0
H  H24  1  0.61706578  0.70692246  0.04090307  1  0  0.086798  0  0.964326  0  0  0.094489  0  1.03282  0  0  0.0968  0  1.031523  0  0  0.094541  0.092842  0  1.033787  0
H  H25  1  0.11706884  0.79306702  0.45908577  1  0  0.086855  0  0.964503  0  0  0.094591  0  1.032921  0  0  0.096888  0  1.03166  0  0  0.094583  0.092958  0  1.033853  0
H  H26  1  0.14659747  0.19870335  0.86840066  1  0  0.088276  0  0.983969  0  0  0.093929  0  1.054665  0  0  0.096714  0  1.053435  0  0  0.082052  0.091924  0  1.0557  0
H  H27  1  0.64655585  0.30130153  0.63160454  1  0  0.088098  0  0.984068  0  0  0.093825  0  1.054689  0  0  0.096609  0  1.05346  0  0  0.082017  0.091823  0  1.05572  0
H  H28  1  0.85340953  0.80129255  0.13160086  1  0  0.088232  0  0.984152  0  0  0.093926  0  1.054789  0  0  0.09671  0  1.053561  0  0  0.082029  0.091924  0  1.055821  0
H  H29  1  0.35344351  0.69870453  0.36838677  1  0  0.088148  0  0.984198  0  0  0.09395  0  1.054721  0  0  0.096736  0  1.053488  0  0  0.082002  0.091938  0  1.055768  0
H  H30  1  0.58381701  0.81821561  0.77040139  1  0  0.083756  0  0.968744  0  0  0.082501  0  1.045859  0  0  0.086543  0  1.04305  0  0  0.107854  0.079558  0  1.048009  0
H  H31  1  0.08380834  0.68177605  0.72960270  1  0  0.083675  0  0.968694  0  0  0.082429  0  1.045848  0  0  0.086495  0  1.043014  0  0  0.107845  0.079486  0  1.047997  0
H  H32  1  0.41617217  0.18177086  0.22959863  1  0  0.083685  0  0.968668  0  0  0.08241  0  1.045898  0  0  0.086517  0  1.043017  0  0  0.107836  0.07947  0  1.048047  0
H  H33  1  0.91619865  0.31822187  0.27039834  1  0  0.083746  0  0.968621  0  0  0.082474  0  1.045788  0  0  0.086541  0  1.042949  0  0  0.107831  0.079532  0  1.047939  0
C  C34  1  0.99355838  0.71151314  0.88615242  1  0  0.069208  0  3.738713  0  0  0.075964  0  3.98565  0  0  0.073956  0  4.003774  0  0  0.123132  0.076776  0  3.973755  0
C  C35  1  0.49353918  0.78848739  0.61385527  1  0  0.069298  0  3.738903  0  0  0.076104  0  3.985866  0  0  0.074112  0  4.003981  0  0  0.123254  0.076917  0  3.973974  0
C  C36  1  0.00647660  0.28847872  0.11384811  1  0  0.068861  0  3.7393  0  0  0.07571  0  3.986219  0  0  0.073724  0  4.004338  0  0  0.12302  0.076524  0  3.974329  0
C  C37  1  0.50645254  0.21151590  0.38615018  1  0  0.069218  0  3.739112  0  0  0.075985  0  3.986101  0  0  0.073986  0  4.004223  0  0  0.123115  0.0768  0  3.974209  0
C  C38  1  0.12556815  0.61928332  0.90291129  1  0  0.510301  0  3.839655  0  0  0.464543  0  4.123051  0  0  0.493711  0  4.121633  0  0  0.24085  0.445064  0  4.123419  0
C  C39  1  0.62557148  0.88071792  0.59709465  1  0  0.510437  0  3.840242  0  0  0.464505  0  4.123827  0  0  0.49365  0  4.122407  0  0  0.240786  0.445024  0  4.124196  0
C  C40  1  0.87443884  0.38071059  0.09708436  1  0  0.510572  0  3.839708  0  0  0.464619  0  4.123382  0  0  0.493725  0  4.122017  0  0  0.240877  0.445135  0  4.123755  0
C  C41  1  0.37442280  0.11928740  0.40290885  1  0  0.510228  0  3.83974  0  0  0.46431  0  4.123376  0  0  0.493457  0  4.121962  0  0  0.24069  0.444825  0  4.123748  0
C  C42  1  0.05399779  0.46065298  0.86520905  1  0  0.202328  0  3.794324  0  0  0.191408  0  4.045072  0  0  0.198007  0  4.067536  0  0  0.089667  0.187077  0  4.029771  0
C  C43  1  0.55396849  0.03934485  0.63479154  1  0  0.202586  0  3.794437  0  0  0.191812  0  4.044914  0  0  0.198399  0  4.067368  0  0  0.089744  0.187456  0  4.029643  0
C  C44  1  0.94601937  0.53934293  0.13478954  1  0  0.202395  0  3.794151  0  0  0.191488  0  4.044812  0  0  0.198065  0  4.067278  0  0  0.089723  0.187159  0  4.029502  0
C  C45  1  0.44603342  0.96065576  0.36521097  1  0  0.202304  0  3.794418  0  0  0.191533  0  4.044956  0  0  0.198112  0  4.067423  0  0  0.089722  0.187193  0  4.029659  0
C  C46  1  0.92910121  0.40650050  0.81397396  1  0  -0.006833  0  3.697069  0  0  0.006094  0  3.961981  0  0  0.006154  0  3.984322  0  0  -0.024496  0.00584  0  3.947012  0
C  C47  1  0.42905877  0.09350135  0.68602983  1  0  -0.006876  0  3.69721  0  0  0.006025  0  3.962036  0  0  0.006081  0  3.984386  0  0  -0.02446  0.005777  0  3.947068  0
C  C48  1  0.07090833  0.59349742  0.18602610  1  0  -0.006829  0  3.697119  0  0  0.006129  0  3.961985  0  0  0.006192  0  3.98432  0  0  -0.024533  0.005865  0  3.947024  0
C  C49  1  0.57092787  0.90650802  0.31397076  1  0  -0.006837  0  3.697339  0  0  0.006064  0  3.962182  0  0  0.00612  0  3.984533  0  0  -0.024493  0.005815  0  3.94721  0
C  C50  1  0.21763714  0.41759873  0.91761746  1  0  -0.125625  0  3.659722  0  0  -0.147335  0  3.912428  0  0  -0.151758  0  3.93231  0  0  -0.086981  -0.144378  0  3.898946  0
C  C51  1  0.71760415  0.08240507  0.58238410  1  0  -0.125878  0  3.660108  0  0  -0.147754  0  3.91286  0  0  -0.152177  0  3.932755  0  0  -0.087085  -0.144782  0  3.89937  0
C  C52  1  0.78236731  0.58240055  0.08238115  1  0  -0.125871  0  3.659807  0  0  -0.14763  0  3.912488  0  0  -0.152051  0  3.932364  0  0  -0.0871  -0.144664  0  3.899004  0
C  C53  1  0.28236468  0.91759555  0.41761597  1  0  -0.125757  0  3.659971  0  0  -0.147538  0  3.912696  0  0  -0.151958  0  3.932585  0  0  -0.087041  -0.144584  0  3.89922  0
C  C54  1  0.05331108  0.78293803  0.92942832  1  0  0.080688  0  3.644136  0  0  0.044118  0  3.895592  0  0  0.048368  0  3.912831  0  0  0.062734  0.041314  0  3.884068  0
C  C55  1  0.55334674  0.71706564  0.57057884  1  0  0.080701  0  3.644137  0  0  0.044173  0  3.895697  0  0  0.048408  0  3.912943  0  0  0.06273  0.041354  0  3.884173  0
C  C56  1  0.94668574  0.21705722  0.07056929  1  0  0.08072  0  3.644744  0  0  0.044135  0  3.896185  0  0  0.048384  0  3.913414  0  0  0.062707  0.041314  0  3.884676  0
C  C57  1  0.44665771  0.28294306  0.42942273  1  0  0.080629  0  3.644326  0  0  0.044134  0  3.895792  0  0  0.048377  0  3.913029  0  0  0.062749  0.041334  0  3.88425  0
C  C58  1  0.77852879  0.87911716  0.85938670  1  0  0.068048  0  3.693991  0  0  0.040203  0  3.948807  0  0  0.044144  0  3.966414  0  0  0.041078  0.037286  0  3.937371  0
C  C59  1  0.27854492  0.62087924  0.64061728  1  0  0.067991  0  3.693951  0  0  0.040093  0  3.948834  0  0  0.044046  0  3.96642  0  0  0.041099  0.037179  0  3.937393  0
C  C60  1  0.22144258  0.12087134  0.14061089  1  0  0.068242  0  3.693686  0  0  0.040389  0  3.948543  0  0  0.04432  0  3.966175  0  0  0.041121  0.037473  0  3.937104  0
C  C61  1  0.72144935  0.37912543  0.35938037  1  0  0.068225  0  3.693992  0  0  0.040368  0  3.948807  0  0  0.044298  0  3.966436  0  0  0.041131  0.037452  0  3.937373  0
C  C62  1  0.95979379  0.31329144  0.81497445  1  0  -0.113243  0  3.798572  0  0  -0.133502  0  4.047797  0  0  -0.134877  0  4.069798  0  0  -0.102675  -0.132382  0  4.032821  0
C  C63  1  0.45975601  0.18671121  0.68502778  1  0  -0.11311  0  3.798741  0  0  -0.133401  0  4.048009  0  0  -0.134778  0  4.070016  0  0  -0.102616  -0.132276  0  4.033026  0
C  C64  1  0.04021321  0.68670581  0.18502561  1  0  -0.113192  0  3.798768  0  0  -0.13352  0  4.04793  0  0  -0.134881  0  4.069943  0  0  -0.102623  -0.132394  0  4.032956  0
C  C65  1  0.54025607  0.81329683  0.31497036  1  0  -0.11309  0  3.798672  0  0  -0.133345  0  4.047925  0  0  -0.134722  0  4.069925  0  0  -0.10253  -0.132221  0  4.032943  0
C  C66  1  0.25061163  0.32424991  0.91830175  1  0  -0.03974  0  3.754522  0  0  -0.056091  0  4.009236  0  0  -0.056725  0  4.032381  0  0  -0.089395  -0.055405  0  3.993258  0
C  C67  1  0.75059600  0.17575197  0.58170359  1  0  -0.03965  0  3.754647  0  0  -0.055996  0  4.009373  0  0  -0.05663  0  4.032512  0  0  -0.089327  -0.055312  0  3.993397  0
C  C68  1  0.74938773  0.67574734  0.08169733  1  0  -0.039492  0  3.754242  0  0  -0.055867  0  4.008944  0  0  -0.056501  0  4.032091  0  0  -0.08926  -0.055186  0  3.992972  0
C  C69  1  0.24941354  0.82424529  0.41829598  1  0  -0.0398  0  3.754693  0  0  -0.056198  0  4.009463  0  0  -0.056837  0  4.032591  0  0  -0.089353  -0.055511  0  3.993492  0
C  C70  1  0.12188259  0.27173919  0.86753837  1  0  -0.06527  0  3.762346  0  0  -0.079653  0  4.014714  0  0  -0.084141  0  4.038701  0  0  -0.096849  -0.076515  0  3.998251  0
C  C71  1  0.62185767  0.22826223  0.63246592  1  0  -0.065116  0  3.762552  0  0  -0.079574  0  4.014926  0  0  -0.084063  0  4.038917  0  0  -0.096885  -0.076437  0  3.998461  0
C  C72  1  0.87811677  0.72825603  0.13246266  1  0  -0.065406  0  3.762335  0  0  -0.079833  0  4.014745  0  0  -0.084323  0  4.038728  0  0  -0.096956  -0.076697  0  3.998286  0
C  C73  1  0.37813915  0.77174045  0.36752733  1  0  -0.065216  0  3.762444  0  0  -0.079713  0  4.014798  0  0  -0.084196  0  4.038775  0  0  -0.096938  -0.076575  0  3.998335  0
C  C74  1  0.71958372  0.80775663  0.81633463  1  0  0.075589  0  3.689242  0  0  0.053869  0  3.950425  0  0  0.054145  0  3.967049  0  0  0.045168  0.053559  0  3.939334  0
C  C75  1  0.21957686  0.69223687  0.68366952  1  0  0.075895  0  3.689203  0  0  0.054185  0  3.950329  0  0  0.054427  0  3.966982  0  0  0.0453  0.053876  0  3.939234  0
C  C76  1  0.28040801  0.19223120  0.18366442  1  0  0.075894  0  3.689117  0  0  0.054219  0  3.950129  0  0  0.054418  0  3.966803  0  0  0.045469  0.053908  0  3.939036  0
C  C77  1  0.78042250  0.30776374  0.31633153  1  0  0.075785  0  3.689183  0  0  0.054107  0  3.950275  0  0  0.054354  0  3.966922  0  0  0.045356  0.053798  0  3.939184  0
Br  Br78  1  0.71531479  0.46116140  0.74012316  1  0  -0.062878  0  1.383909  0  0  -0.047602  0  1.665643  0  0  -0.054402  0  1.659422  0  0  0.059112  -0.042546  0  1.670123  0
Br  Br79  1  0.21528385  0.03884775  0.75988477  1  0  -0.062928  0  1.383915  0  0  -0.047669  0  1.665642  0  0  -0.054467  0  1.659424  0  0  0.059065  -0.042613  0  1.670126  0
Br  Br80  1  0.28470238  0.53883585  0.25987544  1  0  -0.062886  0  1.383991  0  0  -0.047642  0  1.665753  0  0  -0.05444  0  1.659527  0  0  0.059129  -0.042585  0  1.670239  0
Br  Br81  1  0.78475367  0.96117169  0.24012416  1  0  -0.062927  0  1.383873  0  0  -0.0477  0  1.665679  0  0  -0.054494  0  1.659456  0  0  0.059067  -0.042647  0  1.670164  0
N  N82  1  0.00709545  0.55384286  0.86219056  1  0  -0.419121  0  3.423053  0  0  -0.366257  0  3.66636  0  0  -0.388002  0  3.675122  0  0  -0.396228  -0.351435  0  3.660002  0
N  N83  1  0.50705026  0.94615795  0.63781625  1  0  -0.419509  0  3.423262  0  0  -0.366509  0  3.666401  0  0  -0.388209  0  3.675133  0  0  -0.396279  -0.351665  0  3.660039  0
N  N84  1  0.99293698  0.44615303  0.13781096  1  0  -0.419435  0  3.422663  0  0  -0.366511  0  3.66604  0  0  -0.38819  0  3.674772  0  0  -0.39628  -0.351681  0  3.65968  0
N  N85  1  0.49292112  0.05384465  0.36219164  1  0  -0.419099  0  3.422931  0  0  -0.366206  0  3.666222  0  0  -0.387905  0  3.674954  0  0  -0.3962  -0.351371  0  3.659856  0
N  N86  1  0.82452788  0.72395908  0.82988462  1  0  -0.284819  0  3.090085  0  0  -0.251574  0  3.351602  0  0  -0.257756  0  3.366328  0  0  -0.295745  -0.246988  0  3.341723  0
N  N87  1  0.32452118  0.77603814  0.67012360  1  0  -0.285086  0  3.090349  0  0  -0.251858  0  3.351889  0  0  -0.258041  0  3.366621  0  0  -0.295895  -0.24727  0  3.342008  0
N  N88  1  0.17548420  0.27603345  0.17011689  1  0  -0.284958  0  3.090423  0  0  -0.251751  0  3.351963  0  0  -0.257927  0  3.3667  0  0  -0.29593  -0.247165  0  3.342085  0
N  N89  1  0.67547055  0.22396448  0.32987940  1  0  -0.284975  0  3.090431  0  0  -0.251718  0  3.351957  0  0  -0.257906  0  3.366696  0  0  -0.295837  -0.24713  0  3.342078  0
N  N90  1  0.94414279  0.86604903  0.91569854  1  0  -0.251966  0  3.206685  0  0  -0.188696  0  3.468614  0  0  -0.204505  0  3.489186  0  0  -0.294045  -0.177536  0  3.454178  0
N  N91  1  0.44415918  0.63395269  0.58430443  1  0  -0.251993  0  3.206723  0  0  -0.188658  0  3.468607  0  0  -0.204463  0  3.489176  0  0  -0.294091  -0.177496  0  3.454171  0
N  N92  1  0.05584385  0.13394555  0.08429760  1  0  -0.252116  0  3.206729  0  0  -0.18885  0  3.468687  0  0  -0.20465  0  3.489244  0  0  -0.294117  -0.177687  0  3.454248  0
N  N93  1  0.55584781  0.36605533  0.41569616  1  0  -0.252159  0  3.206859  0  0  -0.188858  0  3.468734  0  0  -0.204658  0  3.489292  0  0  -0.294121  -0.177699  0  3.454301  0
Cl  Cl94  1  0.60243147  0.08671802  0.93470921  1  0  -0.431925  0  1.082051  0  0  -0.372122  0  1.380181  0  0  -0.390466  0  1.361771  0  0  -0.24143  -0.359631  0  1.392961  0
Cl  Cl95  1  0.10242755  0.41328202  0.56528831  1  0  -0.431911  0  1.082019  0  0  -0.372117  0  1.380173  0  0  -0.390461  0  1.36176  0  0  -0.241423  -0.359626  0  1.392959  0
Cl  Cl96  1  0.39756280  0.91327588  0.06528743  1  0  -0.43193  0  1.08202  0  0  -0.372132  0  1.380146  0  0  -0.390474  0  1.361732  0  0  -0.241427  -0.359646  0  1.39293  0
Cl  Cl97  1  0.89756164  0.58672467  0.43470983  1  0  -0.431922  0  1.082018  0  0  -0.372134  0  1.380186  0  0  -0.390476  0  1.361774  0  0  -0.241432  -0.359639  0  1.392968  0
O  O98  1  0.32462498  0.60899141  0.94911388  1  0  -0.506458  0  1.931281  0  0  -0.461454  0  2.145483  0  0  -0.481189  0  2.141964  0  0  -0.273004  -0.447809  0  2.14749  0
O  O99  1  0.82460978  0.89101386  0.55090022  1  0  -0.506323  0  1.931828  0  0  -0.461316  0  2.146135  0  0  -0.481038  0  2.142616  0  0  -0.272921  -0.447674  0  2.148147  0
O  O100  1  0.67542525  0.39100379  0.05089007  1  0  -0.506322  0  1.931829  0  0  -0.461306  0  2.146199  0  0  -0.481023  0  2.142706  0  0  -0.272987  -0.447659  0  2.148207  0
O  O101  1  0.17536414  0.10899477  0.44911305  1  0  -0.506424  0  1.931203  0  0  -0.461323  0  2.145403  0  0  -0.481052  0  2.141891  0  0  -0.272935  -0.447683  0  2.147423  0
