# generated using pymatgen
data_CuH13C10SIO
_symmetry_space_group_name_H-M   'P 1'
_cell_length_a   11.72105033
_cell_length_b   12.01110000
_cell_length_c   11.69098753
_cell_angle_alpha   108.19932089
_cell_angle_beta   107.76231699
_cell_angle_gamma   113.68455060
_symmetry_Int_Tables_number   1
_chemical_formula_structural   CuH13C10SIO
_chemical_formula_sum   'Cu4 H52 C40 S4 I4 O4'
_cell_volume   1244.22548182
_cell_formula_units_Z   4
loop_
 _symmetry_equiv_pos_site_id
 _symmetry_equiv_pos_as_xyz
  1  'x, y, z'
loop_
 _atom_site_type_symbol
 _atom_site_label
 _atom_site_symmetry_multiplicity
 _atom_site_fract_x
 _atom_site_fract_y
 _atom_site_fract_z
 _atom_site_occupancy
 _atom_site_hle17_bader_spin_density
 _atom_site_hle17_ddec_charge
 _atom_site_hle17_ddec_spin_density
 _atom_site_hle17_ddec_sum_bond_order
 _atom_site_hle17_magmom
 _atom_site_hse06_10hf_bader_spin_density
 _atom_site_hse06_10hf_ddec_charge
 _atom_site_hse06_10hf_ddec_spin_density
 _atom_site_hse06_10hf_ddec_sum_bond_order
 _atom_site_hse06_10hf_magmom
 _atom_site_hse06_bader_spin_density
 _atom_site_hse06_ddec_charge
 _atom_site_hse06_ddec_spin_density
 _atom_site_hse06_ddec_sum_bond_order
 _atom_site_hse06_magmom
 _atom_site_pbe_bader_charge
 _atom_site_pbe_bader_spin_density
 _atom_site_pbe_cm5_charge
 _atom_site_pbe_ddec_charge
 _atom_site_pbe_ddec_spin_density
 _atom_site_pbe_ddec_sum_bond_order
 _atom_site_pbe_magmom
Cu  Cu0  1  0.44247817  0.33564000  0.92433771  1  0  0.128832  0  2.327013  0  0  0.074508  0  2.782296  0  0  0.086081  0  2.729581  0  0.316765  0  0.182079  0.067913  0  2.817508  0
Cu  Cu1  1  0.41047554  0.52072921  0.07451326  1  0  0.126248  0  2.349807  0  0  0.073781  0  2.805086  0  0  0.085119  0  2.752278  0  0.312889  0  0.182514  0.067244  0  2.840478  0
Cu  Cu2  1  0.66432048  0.58836940  0.11173511  1  0  0.126651  0  2.333603  0  0  0.072952  0  2.787999  0  0  0.084669  0  2.73507  0  0.312707  0  0.182623  0.066278  0  2.82334  0
Cu  Cu3  1  0.47784685  0.55157046  0.88850569  1  0  0.130071  0  2.317582  0  0  0.075175  0  2.772825  0  0  0.086826  0  2.720205  0  0.317943  0  0.182271  0.068622  0  2.807836  0
H  H4  1  0.97249684  0.82958581  0.77672908  1  0  0.088427  0  1.00744  0  0  0.099516  0  1.069114  0  0  0.100944  0  1.07125  0  0.082918  0  0.093493  0.09837  0  1.067642  0
H  H5  1  0.05247620  0.19355768  0.21924471  1  0  0.090064  0  0.997735  0  0  0.100398  0  1.060653  0  0  0.101892  0  1.062699  0  0.101693  0  0.093834  0.099193  0  1.059284  0
H  H6  1  0.17073648  0.94445850  0.14347137  1  0  0.086383  0  1.007555  0  0  0.096968  0  1.070939  0  0  0.098235  0  1.073326  0  0.082534  0  0.092681  0.095942  0  1.069222  0
H  H7  1  0.80150061  0.02154988  0.86136047  1  0  0.088206  0  1.004231  0  0  0.098288  0  1.067908  0  0  0.099592  0  1.070284  0  0.089881  0  0.09366  0.097214  0  1.066203  0
H  H8  1  0.88083867  0.60504891  0.77957024  1  0  0.079532  0  0.965485  0  0  0.09046  0  1.026086  0  0  0.093212  0  1.024677  0  0.041267  0  0.088294  0.087686  0  1.028478  0
H  H9  1  0.81828847  0.09640562  0.21407408  1  0  0.079139  0  0.967294  0  0  0.090524  0  1.027473  0  0  0.093235  0  1.02617  0  0.063514  0  0.087586  0.087728  0  1.029865  0
H  H10  1  0.40026460  0.17825102  0.27908210  1  0  0.079576  0  0.967103  0  0  0.090736  0  1.027175  0  0  0.093464  0  1.025845  0  0.053128  0  0.088134  0.088012  0  1.029458  0
H  H11  1  0.89619508  0.11553870  0.72619042  1  0  0.078671  0  0.968921  0  0  0.090238  0  1.02893  0  0  0.092886  0  1.027705  0  0.044518  0  0.088018  0.087564  0  1.03112  0
H  H12  1  0.05083809  0.57016690  0.93116444  1  0  0.081129  0  0.96647  0  0  0.08736  0  1.036402  0  0  0.090454  0  1.034966  0  0.065284  0  0.090592  0.0847  0  1.038528  0
H  H13  1  0.62716371  0.11388299  0.06704603  1  0  0.078029  0  0.974593  0  0  0.083429  0  1.046498  0  0  0.086496  0  1.044992  0  0.06147  0  0.088988  0.080923  0  1.048456  0
H  H14  1  0.44090193  0.37004823  0.48443791  1  0  0.078125  0  0.971477  0  0  0.083811  0  1.043305  0  0  0.086864  0  1.041844  0  0.053353  0  0.088062  0.08122  0  1.045386  0
H  H15  1  0.88272804  0.95515915  0.51786403  1  0  0.080051  0  0.97002  0  0  0.086061  0  1.041078  0  0  0.089037  0  1.039747  0  0.067527  0  0.089199  0.083346  0  1.043389  0
H  H16  1  0.31016549  0.75704759  0.07149774  1  0  0.085704  0  0.992625  0  0  0.091956  0  1.062916  0  0  0.094709  0  1.061639  0  0.082049  0  0.083345  0.089867  0  1.063946  0
H  H17  1  0.67455849  0.23209479  0.93152170  1  0  0.082833  0  0.994508  0  0  0.087962  0  1.067413  0  0  0.090716  0  1.066093  0  0.080081  0  0.083502  0.085887  0  1.068399  0
H  H18  1  0.25471199  0.32334551  0.55462182  1  0  0.082278  0  0.999017  0  0  0.087856  0  1.071305  0  0  0.090625  0  1.069905  0  0.090617  0  0.081364  0.085731  0  1.072406  0
H  H19  1  0.76805048  0.70219698  0.44360396  1  0  0.082502  0  1.000461  0  0  0.088569  0  1.072676  0  0  0.091341  0  1.07127  0  0.077259  0  0.08167  0.086434  0  1.073792  0
H  H20  1  0.40155450  0.97946461  0.06547563  1  0  0.086096  0  0.948697  0  0  0.097734  0  1.010658  0  0  0.100737  0  1.009049  0  0.075875  0  0.094221  0.095401  0  1.012432  0
H  H21  1  0.90977239  0.33204134  0.93986026  1  0  0.087085  0  0.950404  0  0  0.097397  0  1.013419  0  0  0.100517  0  1.011808  0  0.052676  0  0.093646  0.094928  0  1.015276  0
H  H22  1  0.02792933  0.08884318  0.42158483  1  0  0.086861  0  0.951958  0  0  0.097255  0  1.015328  0  0  0.100344  0  1.013737  0  0.048291  0  0.092632  0.094737  0  1.017297  0
H  H23  1  0.66927469  0.60795058  0.57571558  1  0  0.087052  0  0.949785  0  0  0.098325  0  1.012035  0  0  0.101353  0  1.010443  0  0.091274  0  0.093825  0.095961  0  1.013809  0
H  H24  1  0.30046149  0.14508798  0.03441627  1  0  0.095067  0  0.977666  0  0  0.10917  0  1.04611  0  0  0.110142  0  1.046156  0  0.096557  0  0.085647  0.108433  0  1.04619  0
H  H25  1  0.11369636  0.26659202  0.96902492  1  0  0.095164  0  0.975828  0  0  0.10889  0  1.045065  0  0  0.109779  0  1.045174  0  0.080463  0  0.085652  0.108187  0  1.045117  0
H  H26  1  0.85325314  0.87779244  0.15249152  1  0  0.094207  0  0.980731  0  0  0.108552  0  1.048714  0  0  0.109563  0  1.048635  0  0.072653  0  0.084435  0.107708  0  1.049115  0
H  H27  1  0.73350014  0.70051228  0.84479292  1  0  0.094884  0  0.973736  0  0  0.109071  0  1.041885  0  0  0.110025  0  1.041968  0  0.085329  0  0.086544  0.108332  0  1.041964  0
H  H28  1  0.14935746  0.06171298  0.86887140  1  0  0.102943  0  0.938527  0  0  0.118196  0  1.000524  0  0  0.119449  0  1.000975  0  0.052604  0  0.097467  0.117424  0  0.999988  0
H  H29  1  0.20136465  0.29011124  0.13641684  1  0  0.101308  0  0.939735  0  0  0.116076  0  1.003114  0  0  0.117363  0  1.00346  0  0.059527  0  0.09593  0.115346  0  1.002551  0
H  H30  1  0.93488481  0.79796974  0.08606460  1  0  0.10154  0  0.942828  0  0  0.115739  0  1.006982  0  0  0.117011  0  1.00741  0  0.07707  0  0.096031  0.115041  0  1.006376  0
H  H31  1  0.71972582  0.84546521  0.91735704  1  0  0.101627  0  0.940125  0  0  0.116011  0  1.003704  0  0  0.117311  0  1.004079  0  0.084508  0  0.096754  0.115201  0  1.003265  0
H  H32  1  0.18654421  0.88982791  0.64972987  1  0  0.111633  0  0.938086  0  0  0.124505  0  1.000467  0  0  0.126542  0  0.999586  0  0.088819  0  0.102884  0.123049  0  1.00132  0
H  H33  1  0.23998058  0.54071324  0.35175459  1  0  0.110771  0  0.941283  0  0  0.123242  0  1.004069  0  0  0.125304  0  1.003121  0  0.109324  0  0.102301  0.121737  0  1.005003  0
H  H34  1  0.11549570  0.76136492  0.30080347  1  0  0.111028  0  0.946552  0  0  0.124152  0  1.008573  0  0  0.126172  0  1.007739  0  0.097149  0  0.10274  0.122677  0  1.009435  0
H  H35  1  0.46610746  0.81022507  0.70603447  1  0  0.110502  0  0.936595  0  0  0.12441  0  0.997059  0  0  0.126301  0  0.996352  0  0.079542  0  0.103206  0.123041  0  0.99779  0
H  H36  1  0.16415072  0.02945766  0.65251331  1  0  0.093905  0  0.947236  0  0  0.107887  0  1.015432  0  0  0.108172  0  1.016789  0  0.079101  0  0.093115  0.108066  0  1.01367  0
H  H37  1  0.38168395  0.51961268  0.34773666  1  0  0.094384  0  0.94704  0  0  0.109102  0  1.013472  0  0  0.109428  0  1.014738  0  0.079152  0  0.093308  0.109098  0  1.012055  0
H  H38  1  0.96600265  0.62448624  0.13258094  1  0  0.093611  0  0.949131  0  0  0.108515  0  1.016041  0  0  0.108808  0  1.017326  0  0.089824  0  0.092548  0.108597  0  1.014442  0
H  H39  1  0.49159629  0.82839559  0.87140724  1  0  0.093996  0  0.949819  0  0  0.108516  0  1.016279  0  0  0.108786  0  1.017716  0  0.099388  0  0.092979  0.108633  0  1.014565  0
H  H40  1  0.24449275  0.96088963  0.48772694  1  0  0.049006  0  0.947531  0  0  0.061923  0  1.015555  0  0  0.061955  0  1.016388  0  0.082067  0  0.094752  0.061538  0  1.015527  0
H  H41  1  0.47560534  0.76287751  0.51275487  1  0  0.051256  0  0.942186  0  0  0.064608  0  1.009021  0  0  0.064728  0  1.009733  0  0.05932  0  0.096283  0.064254  0  1.008868  0
H  H42  1  0.03618615  0.53017928  0.28153503  1  0  0.052467  0  0.939824  0  0  0.06575  0  1.006172  0  0  0.065913  0  1.006738  0  0.037352  0  0.096715  0.06528  0  1.006305  0
H  H43  1  0.24467810  0.75111471  0.71780754  1  0  0.054143  0  0.93413  0  0  0.067077  0  1.00067  0  0  0.067201  0  1.001273  0  0.055846  0  0.09708  0.066755  0  1.000542  0
H  H44  1  0.37789248  0.13689474  0.62517161  1  0  0.036575  0  0.956384  0  0  0.046697  0  1.033281  0  0  0.046503  0  1.033975  0  0.045806  0  0.082276  0.046263  0  1.03371  0
H  H45  1  0.51654081  0.75548590  0.37644169  1  0  0.036594  0  0.958767  0  0  0.046384  0  1.036333  0  0  0.046154  0  1.037202  0  0.048929  0  0.081801  0.046066  0  1.036506  0
H  H46  1  0.85761285  0.48744021  0.23215834  1  0  0.036523  0  0.957855  0  0  0.046031  0  1.035598  0  0  0.04587  0  1.036173  0  0.065016  0  0.082606  0.045654  0  1.035932  0
H  H47  1  0.24567356  0.62181836  0.76216939  1  0  0.036599  0  0.953055  0  0  0.046016  0  1.030445  0  0  0.045788  0  1.031135  0  0.051892  0  0.083228  0.045729  0  1.03066  0
H  H48  1  0.57413937  0.13439734  0.60935653  1  0  0.042849  0  0.925764  0  0  0.056741  0  0.991505  0  0  0.057613  0  0.989979  0  0.027247  0  0.088483  0.055815  0  0.993212  0
H  H49  1  0.52713383  0.96139991  0.38964442  1  0  0.043624  0  0.927805  0  0  0.056889  0  0.994118  0  0  0.057808  0  0.992568  0  0.030664  0  0.088062  0.055915  0  0.995887  0
H  H50  1  0.85770658  0.47264352  0.43048220  1  0  0.042355  0  0.928552  0  0  0.05566  0  0.995867  0  0  0.056505  0  0.994378  0  0.031687  0  0.086703  0.054712  0  0.99763  0
H  H51  1  0.02929671  0.42666452  0.55731677  1  0  0.043595  0  0.925178  0  0  0.057051  0  0.990987  0  0  0.057964  0  0.989408  0  0.031717  0  0.088723  0.056128  0  0.992699  0
H  H52  1  0.59895539  0.00226912  0.62645476  1  0  0.056399  0  0.957387  0  0  0.069694  0  1.025128  0  0  0.069164  0  1.02658  0  0.063561  0  0.097853  0.070381  0  1.023273  0
H  H53  1  0.37300455  0.96645406  0.37164883  1  0  0.056448  0  0.954762  0  0  0.070074  0  1.02209  0  0  0.069523  0  1.023605  0  0.050371  0  0.098049  0.070736  0  1.020281  0
H  H54  1  0.99710932  0.62203046  0.59586216  1  0  0.055679  0  0.958203  0  0  0.069348  0  1.025181  0  0  0.068738  0  1.026752  0  0.05413  0  0.097491  0.070079  0  1.023248  0
H  H55  1  0.01997321  0.40346087  0.39586432  1  0  0.056394  0  0.959139  0  0  0.070082  0  1.025695  0  0  0.069438  0  1.02738  0  0.070827  0  0.097992  0.070845  0  1.023717  0
C  C56  1  0.04641210  0.81301172  0.84058550  1  0  -0.131716  0  3.745816  0  0  -0.149806  0  3.985648  0  0  -0.152538  0  4.007175  0  -0.075586  0  -0.098897  -0.146874  0  3.969358  0
C  C57  1  0.96971805  0.20263088  0.15693332  1  0  -0.128962  0  3.736856  0  0  -0.14637  0  3.976298  0  0  -0.149074  0  3.997576  0  -0.095822  0  -0.098091  -0.143559  0  3.960387  0
C  C58  1  0.19002713  0.02752055  0.23434115  1  0  -0.129563  0  3.744802  0  0  -0.147217  0  3.984644  0  0  -0.149921  0  4.006489  0  -0.00167  0  -0.098899  -0.144154  0  3.967932  0
C  C59  1  0.79328974  0.95152424  0.76907317  1  0  -0.130486  0  3.742791  0  0  -0.148405  0  3.983468  0  0  -0.151077  0  4.005063  0  -0.025275  0  -0.098047  -0.145336  0  3.966924  0
C  C60  1  0.99509916  0.68707313  0.84279636  1  0  -0.077493  0  3.805858  0  0  -0.086912  0  4.052082  0  0  -0.088485  0  4.073224  0  -0.059122  0  -0.098856  -0.084963  0  4.036343  0
C  C61  1  0.83773720  0.14765789  0.15343513  1  0  -0.079678  0  3.806161  0  0  -0.08954  0  4.051971  0  0  -0.09107  0  4.073061  0  -0.082228  0  -0.100032  -0.087543  0  4.03632  0
C  C62  1  0.31868117  0.15918245  0.31041536  1  0  -0.079341  0  3.806143  0  0  -0.088951  0  4.052252  0  0  -0.090607  0  4.073591  0  -0.124775  0  -0.099707  -0.08698  0  4.036451  0
C  C63  1  0.84700811  0.00423252  0.69323298  1  0  -0.076308  0  3.806326  0  0  -0.086135  0  4.051923  0  0  -0.087687  0  4.073149  0  -0.069011  0  -0.099021  -0.084138  0  4.035914  0
C  C64  1  0.08967209  0.66705982  0.92678152  1  0  -0.08295  0  3.784822  0  0  -0.097208  0  4.03402  0  0  -0.099797  0  4.055881  0  -0.062882  0  -0.098566  -0.096255  0  4.019834  0
C  C65  1  0.73109937  0.15755288  0.07185444  1  0  -0.082146  0  3.787651  0  0  -0.096201  0  4.036935  0  0  -0.098896  0  4.058967  0  -0.070258  0  -0.098435  -0.095106  0  4.022458  0
C  C66  1  0.34187354  0.26622435  0.42528535  1  0  -0.082018  0  3.788983  0  0  -0.096633  0  4.039004  0  0  -0.099265  0  4.061114  0  -0.07269  0  -0.099396  -0.09568  0  4.024917  0
C  C67  1  0.83917258  0.91493788  0.57664548  1  0  -0.083419  0  3.78845  0  0  -0.098037  0  4.03876  0  0  -0.100658  0  4.060833  0  -0.013892  0  -0.098829  -0.097089  0  4.024615  0
C  C68  1  0.23602252  0.77250133  0.00611349  1  0  -0.065214  0  3.775406  0  0  -0.074477  0  4.018797  0  0  -0.076242  0  4.041038  0  -0.063808  0  -0.093791  -0.073177  0  4.004559  0
C  C69  1  0.75760594  0.22428710  0.99532075  1  0  -0.064277  0  3.778735  0  0  -0.073946  0  4.022918  0  0  -0.07564  0  4.045381  0  -0.046296  0  -0.094473  -0.07271  0  4.008452  0
C  C70  1  0.23700504  0.24011000  0.46504743  1  0  -0.065933  0  3.779876  0  0  -0.075416  0  4.023025  0  0  -0.077252  0  4.045523  0  0.00393  0  -0.096469  -0.074126  0  4.008678  0
C  C71  1  0.77444168  0.77225518  0.53450512  1  0  -0.065451  0  3.775965  0  0  -0.075938  0  4.020082  0  0  -0.077733  0  4.042395  0  -0.072614  0  -0.095576  -0.074664  0  4.005933  0
C  C72  1  0.28714712  0.89750370  0.00250752  1  0  -0.12404  0  3.735727  0  0  -0.142057  0  3.97924  0  0  -0.145394  0  4.000811  0  -0.053784  0  -0.093919  -0.140748  0  3.965563  0
C  C73  1  0.88972805  0.28011494  0.99993433  1  0  -0.125793  0  3.742882  0  0  -0.143426  0  3.985179  0  0  -0.146926  0  4.006921  0  -0.049098  0  -0.095446  -0.141978  0  3.971389  0
C  C74  1  0.10937132  0.10817709  0.38988542  1  0  -0.125097  0  3.741949  0  0  -0.142093  0  3.984031  0  0  -0.14557  0  4.005764  0  -0.092433  0  -0.095106  -0.140703  0  3.970214  0
C  C75  1  0.71913639  0.71952033  0.60917390  1  0  -0.123907  0  3.738088  0  0  -0.141434  0  3.980509  0  0  -0.144854  0  4.00217  0  -0.124012  0  -0.095239  -0.140191  0  3.96693  0
C  C76  1  0.19214161  0.92021718  0.92152195  1  0  0.091696  0  3.77633  0  0  0.114921  0  4.009409  0  0  0.114954  0  4.033798  0  -0.034869  0  -0.018819  0.11501  0  3.992749  0
C  C77  1  0.99651639  0.26800382  0.07939666  1  0  0.091465  0  3.779495  0  0  0.115647  0  4.0103  0  0  0.115698  0  4.034701  0  -0.022219  0  -0.018993  0.115759  0  3.99365  0
C  C78  1  0.08361321  0.00100444  0.27208504  1  0  0.091433  0  3.779748  0  0  0.114804  0  4.01145  0  0  0.114783  0  4.035918  0  -0.060116  0  -0.019888  0.114935  0  3.994761  0
C  C79  1  0.73079119  0.80940006  0.72922452  1  0  0.089918  0  3.779932  0  0  0.113537  0  4.011353  0  0  0.113541  0  4.035761  0  -0.070421  0  -0.019261  0.11364  0  3.994722  0
C  C80  1  0.24073453  0.05893040  0.92688311  1  0  -0.195089  0  3.660858  0  0  -0.235755  0  3.907546  0  0  -0.235692  0  3.918617  0  -0.131351  0  -0.150605  -0.235819  0  3.90022  0
C  C81  1  0.13431995  0.31594877  0.07594302  1  0  -0.196222  0  3.66398  0  0  -0.236305  0  3.909714  0  0  -0.236343  0  3.921067  0  -0.115348  0  -0.151418  -0.236325  0  3.902253  0
C  C82  1  0.94213650  0.86263657  0.18170158  1  0  -0.197455  0  3.665045  0  0  -0.236866  0  3.909176  0  0  -0.236837  0  3.920316  0  -0.117911  0  -0.152408  -0.237011  0  3.902105  0
C  C83  1  0.68624188  0.75815935  0.81958142  1  0  -0.194823  0  3.66091  0  0  -0.23428  0  3.905517  0  0  -0.23437  0  3.916821  0  -0.15714  0  -0.15061  -0.234265  0  3.898119  0
C  C84  1  0.24272755  0.00066289  0.67760402  1  0  -0.173235  0  3.621973  0  0  -0.213618  0  3.886303  0  0  -0.21393  0  3.89652  0  -0.136744  0  -0.151447  -0.21369  0  3.879661  0
C  C85  1  0.32418109  0.56948482  0.32315502  1  0  -0.173488  0  3.622281  0  0  -0.213188  0  3.885196  0  0  -0.213383  0  3.895172  0  -0.137057  0  -0.151471  -0.213356  0  3.879051  0
C  C86  1  0.00077644  0.67878247  0.24351349  1  0  -0.175271  0  3.623471  0  0  -0.216653  0  3.887923  0  0  -0.216907  0  3.897912  0  -0.139859  0  -0.152308  -0.216739  0  3.881643  0
C  C87  1  0.43579604  0.75325620  0.76009310  1  0  -0.172986  0  3.621816  0  0  -0.213309  0  3.885107  0  0  -0.213585  0  3.895207  0  -0.123747  0  -0.151087  -0.21338  0  3.878696  0
C  C88  1  0.32326887  0.02593363  0.59949425  1  0  0.102225  0  3.662018  0  0  0.046684  0  3.928849  0  0  0.053409  0  3.935827  0  0.422445  0  -0.077302  0.042518  0  3.924116  0
C  C89  1  0.42841964  0.72678957  0.40086303  1  0  0.101183  0  3.661601  0  0  0.04494  0  3.928808  0  0  0.051621  0  3.935806  0  0.43178  0  -0.077565  0.040766  0  3.92393  0
C  C90  1  0.97191189  0.57460356  0.29453687  1  0  0.102151  0  3.661349  0  0  0.046652  0  3.928046  0  0  0.053617  0  3.934612  0  0.441257  0  -0.077462  0.0424  0  3.923498  0
C  C91  1  0.27561157  0.67437178  0.70385036  1  0  0.100467  0  3.660616  0  0  0.045577  0  3.927298  0  0  0.052501  0  3.93407  0  0.420728  0  -0.076267  0.041219  0  3.922523  0
C  C92  1  0.51794981  0.02163729  0.57823896  1  0  0.043451  0  3.684066  0  0  -0.014712  0  3.954531  0  0  -0.008186  0  3.960424  0  0.444559  0  -0.080584  -0.019066  0  3.949826  0
C  C93  1  0.44317078  0.93659016  0.42019334  1  0  0.039391  0  3.685604  0  0  -0.018555  0  3.956275  0  0  -0.012141  0  3.962272  0  0.426239  0  -0.081766  -0.02283  0  3.951556  0
C  C94  1  0.97409210  0.55505282  0.49219652  1  0  0.042688  0  3.680035  0  0  -0.01561  0  3.950238  0  0  -0.00912  0  3.956263  0  0.433377  0  -0.080752  -0.019923  0  3.945507  0
C  C95  1  0.05510567  0.48219774  0.49983900  1  0  0.040624  0  3.686037  0  0  -0.017212  0  3.956371  0  0  -0.010687  0  3.962327  0  0.423776  0  -0.081394  -0.021572  0  3.95164  0
S  S96  1  0.36687960  0.10844775  0.86349105  1  0  0.076519  0  2.734739  0  0  0.105021  0  3.144586  0  0  0.100597  0  3.135904  0  0.015134  0  -0.022773  0.107652  0  3.151343  0
S  S97  1  0.24134932  0.50315136  0.13705885  1  0  0.077178  0  2.737512  0  0  0.104209  0  3.146025  0  0  0.099825  0  3.137457  0  0.005593  0  -0.025793  0.106786  0  3.152826  0
S  S98  1  0.89981459  0.75835405  0.26531094  1  0  0.079928  0  2.72946  0  0  0.108694  0  3.137928  0  0  0.104382  0  3.12922  0  0.009673  0  -0.022536  0.111351  0  3.144798  0
S  S99  1  0.49387627  0.63196071  0.73773586  1  0  0.078571  0  2.72399  0  0  0.106204  0  3.132991  0  0  0.10209  0  3.124057  0  0.015971  0  -0.022081  0.108615  0  3.139877  0
I  I100  1  0.65174145  0.45120005  0.87068593  1  0  -0.296927  0  1.534347  0  0  -0.251145  0  1.918289  0  0  -0.262061  0  1.882841  0  -0.396967  0  -0.149566  -0.242905  0  1.944274  0
I  I101  1  0.58146952  0.77901248  0.13077586  1  0  -0.297435  0  1.54921  0  0  -0.253033  0  1.935658  0  0  -0.263663  0  1.899957  0  -0.394958  0  -0.145946  -0.245021  0  1.962023  0
I  I102  1  0.54752268  0.42416718  0.20491002  1  0  -0.292658  0  1.560031  0  0  -0.24819  0  1.949759  0  0  -0.259017  0  1.914068  0  -0.386713  0  -0.14321  -0.240076  0  1.975479  0
I  I103  1  0.21332583  0.34143487  0.79308939  1  0  -0.295493  0  1.546201  0  0  -0.250233  0  1.931612  0  0  -0.261111  0  1.895894  0  -0.394708  0  -0.14962  -0.241909  0  1.957436  0
O  O104  1  0.42543969  0.98927879  0.63508593  1  0  -0.3009  0  2.238432  0  0  -0.231955  0  2.486691  0  0  -0.246851  0  2.487301  0  -1.052433  0  -0.235244  -0.22131  0  2.485549  0
O  O105  1  0.35281547  0.78891442  0.36293733  1  0  -0.299939  0  2.244103  0  0  -0.229624  0  2.49181  0  0  -0.24474  0  2.492758  0  -1.058517  0  -0.233264  -0.218867  0  2.490557  0
O  O106  1  0.01026671  0.64573659  0.43642156  1  0  -0.300398  0  2.242071  0  0  -0.230101  0  2.48976  0  0  -0.245275  0  2.490482  0  -1.062734  0  -0.234024  -0.21932  0  2.488583  0
O  O107  1  0.20637696  0.57330608  0.56110427  1  0  -0.299396  0  2.246146  0  0  -0.22966  0  2.493491  0  0  -0.244796  0  2.494167  0  -1.048351  0  -0.233616  -0.218915  0  2.492379  0
