# generated using pymatgen
data_Zn2H22C29(NO4)2
_symmetry_space_group_name_H-M   'P 1'
_cell_length_a   7.37819743
_cell_length_b   10.92068009
_cell_length_c   17.42196834
_cell_angle_alpha   85.71036299
_cell_angle_beta   77.20033714
_cell_angle_gamma   70.23695887
_symmetry_Int_Tables_number   1
_chemical_formula_structural   Zn2H22C29(NO4)2
_chemical_formula_sum   'Zn4 H44 C58 N4 O16'
_cell_volume   1288.26212949
_cell_formula_units_Z   2
loop_
 _symmetry_equiv_pos_site_id
 _symmetry_equiv_pos_as_xyz
  1  'x, y, z'
loop_
 _atom_site_type_symbol
 _atom_site_label
 _atom_site_symmetry_multiplicity
 _atom_site_fract_x
 _atom_site_fract_y
 _atom_site_fract_z
 _atom_site_occupancy
 _atom_site_hle17_bader_spin_density
 _atom_site_hle17_ddec_charge
 _atom_site_hle17_ddec_spin_density
 _atom_site_hle17_ddec_sum_bond_order
 _atom_site_hle17_magmom
 _atom_site_hse06_10hf_bader_spin_density
 _atom_site_hse06_10hf_ddec_charge
 _atom_site_hse06_10hf_ddec_spin_density
 _atom_site_hse06_10hf_ddec_sum_bond_order
 _atom_site_hse06_10hf_magmom
 _atom_site_hse06_bader_spin_density
 _atom_site_hse06_ddec_charge
 _atom_site_hse06_ddec_spin_density
 _atom_site_hse06_ddec_sum_bond_order
 _atom_site_hse06_magmom
 _atom_site_pbe_bader_spin_density
 _atom_site_pbe_cm5_charge
 _atom_site_pbe_ddec_charge
 _atom_site_pbe_ddec_spin_density
 _atom_site_pbe_ddec_sum_bond_order
 _atom_site_pbe_magmom
Zn  Zn0  1  0.59274938  0.52897273  0.90892716  1  0  1.10611  0  1.737983  0  0  0.934345  0  2.187087  0  0  0.985371  0  2.128057  0  0  0.687551  0.898455  0  2.227541  0
Zn  Zn1  1  0.12206861  0.47085256  0.40874931  1  0  1.106186  0  1.737077  0  0  0.934772  0  2.18584  0  0  0.985715  0  2.126911  0  0  0.687973  0.898969  0  2.226278  0
Zn  Zn2  1  0.09596046  0.43512820  0.85449785  1  0  1.064354  0  1.823645  0  0  0.879219  0  2.301856  0  0  0.928908  0  2.241514  0  0  0.699201  0.844351  0  2.343506  0
Zn  Zn3  1  0.53088851  0.56504235  0.35441604  1  0  1.063753  0  1.825234  0  0  0.878128  0  2.303602  0  0  0.927765  0  2.243271  0  0  0.699129  0.843347  0  2.345153  0
H  H4  1  0.12101489  0.05000925  0.88014837  1  0  0.098359  0  0.941274  0  0  0.110132  0  0.999112  0  0  0.113616  0  0.997215  0  0  0.103846  0.107515  0  1.000835  0
H  H5  1  0.17082447  0.94984066  0.38020296  1  0  0.098898  0  0.941617  0  0  0.110301  0  0.99976  0  0  0.11378  0  0.997875  0  0  0.10411  0.107751  0  1.001308  0
H  H6  1  0.03422458  0.85746719  0.93704938  1  0  0.103904  0  1.001387  0  0  0.109311  0  1.067117  0  0  0.113548  0  1.064161  0  0  0.098469  0.106208  0  1.069297  0
H  H7  1  0.89134231  0.14244257  0.43715872  1  0  0.102315  0  1.002599  0  0  0.108433  0  1.067655  0  0  0.112537  0  1.064865  0  0  0.098311  0.10538  0  1.069736  0
H  H8  1  0.68521312  0.86008667  0.95532246  1  0  0.095217  0  0.981036  0  0  0.102422  0  1.047359  0  0  0.105585  0  1.045928  0  0  0.09811  0.100178  0  1.048469  0
H  H9  1  0.54491881  0.13983105  0.45552594  1  0  0.096036  0  0.982486  0  0  0.103296  0  1.048484  0  0  0.106471  0  1.047051  0  0  0.098294  0.100869  0  1.049823  0
H  H10  1  0.43008343  0.05996023  0.91936628  1  0  0.094848  0  0.956169  0  0  0.105319  0  1.017635  0  0  0.108889  0  1.014863  0  0  0.103935  0.102639  0  1.019816  0
H  H11  1  0.48966497  0.94004647  0.41950280  1  0  0.094963  0  0.95533  0  0  0.105235  0  1.017087  0  0  0.108984  0  1.014105  0  0  0.104032  0.10246  0  1.019411  0
H  H12  1  0.58228016  0.73306547  0.10052180  1  0  0.100688  0  0.945316  0  0  0.111892  0  1.004734  0  0  0.115425  0  1.002076  0  0  0.105637  0.109305  0  1.006766  0
H  H13  1  0.31583451  0.26687499  0.60043539  1  0  0.100247  0  0.946396  0  0  0.111822  0  1.00536  0  0  0.115223  0  1.002857  0  0  0.105843  0.109281  0  1.007338  0
H  H14  1  0.58888650  0.85223436  0.21631675  1  0  0.09447  0  0.957235  0  0  0.105405  0  1.016789  0  0  0.108867  0  1.014781  0  0  0.099504  0.103006  0  1.018238  0
H  H15  1  0.44189435  0.14779098  0.71618292  1  0  0.094537  0  0.956321  0  0  0.105187  0  1.016246  0  0  0.108703  0  1.014167  0  0  0.099429  0.102711  0  1.017747  0
H  H16  1  0.90958492  0.87084332  0.23074163  1  0  0.083599  0  0.973995  0  0  0.093902  0  1.036014  0  0  0.096289  0  1.035648  0  0  0.097721  0.092239  0  1.036292  0
H  H17  1  0.78101652  0.12947832  0.73062765  1  0  0.083321  0  0.9757  0  0  0.093387  0  1.037877  0  0  0.095606  0  1.037706  0  0  0.09722  0.091699  0  1.038144  0
H  H18  1  0.21618367  0.75982140  0.13755791  1  0  0.102337  0  0.953437  0  0  0.112469  0  1.015957  0  0  0.115928  0  1.013711  0  0  0.102795  0.109971  0  1.017681  0
H  H19  1  0.97626043  0.24066262  0.63748338  1  0  0.101435  0  0.954327  0  0  0.111601  0  1.016758  0  0  0.115049  0  1.014532  0  0  0.102736  0.109054  0  1.018561  0
H  H20  1  0.65145319  0.46291382  0.73597860  1  0  0.083493  0  0.956011  0  0  0.091335  0  1.020969  0  0  0.092525  0  1.020974  0  0  0.114864  0.090449  0  1.020953  0
H  H21  1  0.11517031  0.53685272  0.23580471  1  0  0.084204  0  0.955318  0  0  0.09215  0  1.020266  0  0  0.093402  0  1.020194  0  0  0.115014  0.091128  0  1.020401  0
H  H22  1  0.60677220  0.58560581  0.61128908  1  0  0.122441  0  0.954221  0  0  0.128664  0  1.019178  0  0  0.131929  0  1.018406  0  0  0.108132  0.126324  0  1.019764  0
H  H23  1  0.19329601  0.41427842  0.11107244  1  0  0.121957  0  0.954198  0  0  0.128816  0  1.018411  0  0  0.132129  0  1.017537  0  0  0.108072  0.126403  0  1.019198  0
H  H24  1  0.51432836  0.93489252  0.73699639  1  0  0.103505  0  0.958894  0  0  0.114942  0  1.018648  0  0  0.117281  0  1.018815  0  0  0.105712  0.113322  0  1.018515  0
H  H25  1  0.44889721  0.06482335  0.23684354  1  0  0.102281  0  0.9597  0  0  0.114088  0  1.019218  0  0  0.116457  0  1.019338  0  0  0.105351  0.11245  0  1.019111  0
H  H26  1  0.56700310  0.79739310  0.85609567  1  0  0.08057  0  0.949103  0  0  0.089959  0  1.013005  0  0  0.091735  0  1.011317  0  0  0.116806  0.088554  0  1.014344  0
H  H27  1  0.36444304  0.20218897  0.35595135  1  0  0.08074  0  0.948359  0  0  0.090273  0  1.012297  0  0  0.091969  0  1.010695  0  0  0.116905  0.088961  0  1.01356  0
H  H28  1  0.58087329  0.92294739  0.58311750  1  0  0.082909  0  0.935975  0  0  0.100058  0  0.996198  0  0  0.100236  0  0.997701  0  0  0.095415  0.09988  0  0.995199  0
H  H29  1  0.50428834  0.07681015  0.08290054  1  0  0.082785  0  0.935367  0  0  0.100034  0  0.995446  0  0  0.100216  0  0.996955  0  0  0.095448  0.099867  0  0.994455  0
H  H30  1  0.55616831  0.78889499  0.54073183  1  0  0.091022  0  0.929519  0  0  0.109895  0  0.984313  0  0  0.110789  0  0.984616  0  0  0.098492  0.109134  0  0.984252  0
H  H31  1  0.34536709  0.21089451  0.04056726  1  0  0.091472  0  0.928883  0  0  0.109755  0  0.984178  0  0  0.110662  0  0.984484  0  0  0.098688  0.109023  0  0.984101  0
H  H32  1  0.27006604  0.00333193  0.55014944  1  0  0.071561  0  0.925752  0  0  0.093065  0  0.981636  0  0  0.093205  0  0.982904  0  0  0.095334  0.092837  0  0.980882  0
H  H33  1  0.27355043  0.99656590  0.04999943  1  0  0.071367  0  0.926518  0  0  0.092939  0  0.982401  0  0  0.093058  0  0.983707  0  0  0.095323  0.092681  0  0.981733  0
H  H34  1  0.21872144  0.98624176  0.65261506  1  0  0.06367  0  0.937714  0  0  0.084322  0  0.997042  0  0  0.085007  0  0.997397  0  0  0.090713  0.083705  0  0.997016  0
H  H35  1  0.20528810  0.01372970  0.15247260  1  0  0.062925  0  0.938121  0  0  0.083966  0  0.997351  0  0  0.084755  0  0.997548  0  0  0.090438  0.083328  0  0.997323  0
H  H36  1  0.00556130  0.91704602  0.58193222  1  0  0.090421  0  0.919085  0  0  0.110595  0  0.974847  0  0  0.110706  0  0.97645  0  0  0.101199  0.110574  0  0.973693  0
H  H37  1  0.92270271  0.08323106  0.08186480  1  0  0.090821  0  0.919085  0  0  0.111114  0  0.974382  0  0  0.111148  0  0.975981  0  0  0.101239  0.110888  0  0.973613  0
H  H38  1  0.21350958  0.79661676  0.53071554  1  0  0.093757  0  0.920009  0  0  0.110936  0  0.978719  0  0  0.112127  0  0.978738  0  0  0.09979  0.110061  0  0.978762  0
H  H39  1  0.01047706  0.20344809  0.03060465  1  0  0.093524  0  0.919769  0  0  0.110684  0  0.978473  0  0  0.111783  0  0.978514  0  0  0.099565  0.109832  0  0.978493  0
H  H40  1  0.11912829  0.86912821  0.74902261  1  0  0.10372  0  0.961074  0  0  0.114703  0  1.020527  0  0  0.116668  0  1.021812  0  0  0.106763  0.113163  0  1.02001  0
H  H41  1  0.98862274  0.13120964  0.24891444  1  0  0.103074  0  0.962875  0  0  0.114191  0  1.021948  0  0  0.116207  0  1.023214  0  0  0.10689  0.112724  0  1.02124  0
H  H42  1  0.11143474  0.69506951  0.84743897  1  0  0.091201  0  0.966392  0  0  0.097979  0  1.032579  0  0  0.100083  0  1.031205  0  0  0.118521  0.096273  0  1.03382  0
H  H43  1  0.80646389  0.30529402  0.34730492  1  0  0.090926  0  0.966915  0  0  0.097797  0  1.033263  0  0  0.09992  0  1.031805  0  0  0.11862  0.096129  0  1.034404  0
H  H44  1  0.08365597  0.45019154  0.68256597  1  0  0.084432  0  0.945777  0  0  0.09183  0  1.013359  0  0  0.094097  0  1.010903  0  0  0.11999  0.090122  0  1.015143  0
H  H45  1  0.53383198  0.55012154  0.18236835  1  0  0.085313  0  0.944506  0  0  0.092585  0  1.012414  0  0  0.094858  0  1.00996  0  0  0.11979  0.090837  0  1.014258  0
H  H46  1  0.11254401  0.60943910  0.57455999  1  0  0.128221  0  0.932992  0  0  0.139241  0  0.989218  0  0  0.142523  0  0.988194  0  0  0.114137  0.136829  0  0.99017  0
H  H47  1  0.72215608  0.39074605  0.07438696  1  0  0.128279  0  0.934355  0  0  0.139678  0  0.989988  0  0  0.142969  0  0.988941  0  0  0.114357  0.137204  0  0.991068  0
C  C48  1  0.82436466  0.16551606  0.87300354  1  0  -0.0503  0  3.729977  0  0  -0.035278  0  3.960932  0  0  -0.03772  0  3.980345  0  0  -0.005799  -0.033626  0  3.948047  0
C  C49  1  0.98957543  0.83447972  0.37302442  1  0  -0.049947  0  3.730233  0  0  -0.035129  0  3.961103  0  0  -0.037676  0  3.980666  0  0  -0.005293  -0.033425  0  3.948242  0
C  C50  1  0.96869936  0.05180427  0.89070323  1  0  -0.092878  0  3.733494  0  0  -0.1136  0  3.981955  0  0  -0.116316  0  4.000995  0  0  -0.087349  -0.111965  0  3.96935  0
C  C51  1  0.02024431  0.94812398  0.39076584  1  0  -0.095586  0  3.734846  0  0  -0.116284  0  3.984036  0  0  -0.118963  0  4.002984  0  0  -0.08836  -0.11451  0  3.971282  0
C  C52  1  0.91911406  0.94341551  0.92206204  1  0  -0.054906  0  3.740028  0  0  -0.070633  0  3.993111  0  0  -0.070054  0  4.011229  0  0  -0.088374  -0.070645  0  3.980659  0
C  C53  1  0.86222479  0.05649584  0.42219151  1  0  -0.050436  0  3.735987  0  0  -0.066445  0  3.988555  0  0  -0.065751  0  4.006671  0  0  -0.087175  -0.06665  0  3.976115  0
C  C54  1  0.72471326  0.94534795  0.93227300  1  0  -0.084672  0  3.767435  0  0  -0.099651  0  4.02363  0  0  -0.1028  0  4.044247  0  0  -0.095394  -0.097584  0  4.009499  0
C  C55  1  0.66970579  0.05459270  0.43239119  1  0  -0.087067  0  3.766158  0  0  -0.102106  0  4.022367  0  0  -0.105306  0  4.043015  0  0  -0.095947  -0.100009  0  4.008476  0
C  C56  1  0.58210704  0.05647062  0.91260484  1  0  -0.065861  0  3.752529  0  0  -0.090508  0  4.004337  0  0  -0.089248  0  4.023141  0  0  -0.083358  -0.091147  0  3.991545  0
C  C57  1  0.63823240  0.94353622  0.41265302  1  0  -0.066535  0  3.751827  0  0  -0.091101  0  4.003469  0  0  -0.08997  0  4.022236  0  0  -0.083637  -0.091708  0  3.99093  0
C  C58  1  0.62797499  0.16886930  0.88510329  1  0  -0.099638  0  3.757503  0  0  -0.083805  0  3.98877  0  0  -0.091898  0  4.011048  0  0  -0.018934  -0.078551  0  3.973841  0
C  C59  1  0.79654817  0.83114063  0.38510657  1  0  -0.096858  0  3.753298  0  0  -0.080722  0  3.984247  0  0  -0.088783  0  4.006626  0  0  -0.019  -0.075663  0  3.969392  0
C  C60  1  0.46633290  0.28686130  0.86830598  1  0  0.661913  0  3.888956  0  0  0.609762  0  4.17949  0  0  0.645077  0  4.171785  0  0  0.21339  0.585784  0  4.183955  0
C  C61  1  0.75302725  0.71315270  0.36826174  1  0  0.659579  0  3.888281  0  0  0.607139  0  4.179301  0  0  0.642396  0  4.171735  0  0  0.213079  0.583334  0  4.183535  0
C  C62  1  0.89771409  0.27466151  0.83984964  1  0  0.670755  0  3.863689  0  0  0.615816  0  4.162201  0  0  0.650115  0  4.152696  0  0  0.215705  0.592222  0  4.168229  0
C  C63  1  0.17202601  0.72523706  0.33990710  1  0  0.669699  0  3.868025  0  0  0.61519  0  4.165765  0  0  0.649518  0  4.156193  0  0  0.214779  0.591416  0  4.172034  0
C  C64  1  0.89357386  0.67761427  0.05568739  1  0  -0.09909  0  3.749622  0  0  -0.082815  0  3.981707  0  0  -0.091305  0  4.00504  0  0  -0.018804  -0.077055  0  3.965876  0
C  C65  1  0.57149729  0.32239986  0.55552056  1  0  -0.097456  0  3.748173  0  0  -0.081841  0  3.981193  0  0  -0.090295  0  4.00437  0  0  -0.018527  -0.076392  0  3.965675  0
C  C66  1  0.71993179  0.74017932  0.10956716  1  0  -0.06895  0  3.754392  0  0  -0.092359  0  4.004257  0  0  -0.091861  0  4.024389  0  0  -0.084042  -0.092416  0  3.990558  0
C  C67  1  0.46061584  0.25981800  0.60943187  1  0  -0.0688  0  3.752887  0  0  -0.092247  0  4.003169  0  0  -0.091678  0  4.023309  0  0  -0.083997  -0.092435  0  3.989542  0
C  C68  1  0.72406074  0.80861860  0.17309752  1  0  -0.081763  0  3.771061  0  0  -0.09659  0  4.025612  0  0  -0.099296  0  4.045751  0  0  -0.095551  -0.095058  0  4.011983  0
C  C69  1  0.53331914  0.19146350  0.67296342  1  0  -0.081258  0  3.768006  0  0  -0.095873  0  4.022409  0  0  -0.098622  0  4.042455  0  0  -0.095517  -0.094101  0  4.008505  0
C  C70  1  0.90339011  0.81676151  0.18186868  1  0  -0.049588  0  3.756702  0  0  -0.066563  0  4.010695  0  0  -0.066199  0  4.030404  0  0  -0.08933  -0.066582  0  3.997374  0
C  C71  1  0.72067344  0.18352166  0.68175421  1  0  -0.05004  0  3.758923  0  0  -0.066773  0  4.012988  0  0  -0.066306  0  4.032755  0  0  -0.089013  -0.066757  0  3.99917  0
C  C72  1  0.07766007  0.75401626  0.12875831  1  0  -0.093528  0  3.728695  0  0  -0.115671  0  3.978663  0  0  -0.118289  0  3.998228  0  0  -0.088194  -0.113825  0  3.965647  0
C  C73  1  0.83202396  0.24631948  0.62864105  1  0  -0.093481  0  3.72911  0  0  -0.115461  0  3.979252  0  0  -0.118103  0  3.998738  0  0  -0.088122  -0.113681  0  3.966025  0
C  C74  1  0.07555568  0.68341291  0.06536674  1  0  -0.037763  0  3.690079  0  0  -0.022407  0  3.921047  0  0  -0.024409  0  3.940191  0  0  -0.000669  -0.02122  0  3.908189  0
C  C75  1  0.75923856  0.31673567  0.56520304  1  0  -0.036907  0  3.689557  0  0  -0.021871  0  3.921087  0  0  -0.023778  0  3.940053  0  0  -0.001255  -0.020681  0  3.908342  0
C  C76  1  0.88435350  0.60480709  0.98820830  1  0  0.661934  0  3.890981  0  0  0.607301  0  4.186633  0  0  0.642733  0  4.178389  0  0  0.215218  0.583154  0  4.19157  0
C  C77  1  0.48951596  0.39504803  0.48798452  1  0  0.661627  0  3.892661  0  0  0.607047  0  4.188248  0  0  0.642446  0  4.179988  0  0  0.215143  0.582963  0  4.193203  0
C  C78  1  0.26392138  0.62990296  0.00482220  1  0  0.657091  0  3.90822  0  0  0.602152  0  4.211891  0  0  0.637099  0  4.203192  0  0  0.20069  0.578307  0  4.217084  0
C  C79  1  0.89416559  0.37004704  0.50460761  1  0  0.65497  0  3.914579  0  0  0.600799  0  4.217358  0  0  0.635727  0  4.208653  0  0  0.200236  0.576946  0  4.222492  0
C  C80  1  0.62128497  0.56766564  0.73345437  1  0  0.146238  0  3.687043  0  0  0.113746  0  3.940946  0  0  0.122083  0  3.959306  0  0  0.047564  0.10834  0  3.928363  0
C  C81  1  0.18958352  0.43207189  0.23328164  1  0  0.144107  0  3.687916  0  0  0.111407  0  3.942207  0  0  0.119681  0  3.960544  0  0  0.04698  0.106143  0  3.929612  0
C  C82  1  0.59311470  0.63716543  0.66451392  1  0  -0.168764  0  3.689087  0  0  -0.187122  0  3.937696  0  0  -0.195647  0  3.958684  0  0  -0.083859  -0.181806  0  3.92379  0
C  C83  1  0.23086954  0.36262369  0.16431745  1  0  -0.166326  0  3.689737  0  0  -0.18491  0  3.938245  0  0  -0.193403  0  3.959239  0  0  -0.082933  -0.179515  0  3.924305  0
C  C84  1  0.54723947  0.77239384  0.66420103  1  0  0.162882  0  3.712532  0  0  0.179753  0  3.945552  0  0  0.185839  0  3.966519  0  0  0.015072  0.175838  0  3.931246  0
C  C85  1  0.31997484  0.22738114  0.16399817  1  0  0.161759  0  3.716407  0  0  0.177763  0  3.950689  0  0  0.183841  0  3.971744  0  0  0.014826  0.173894  0  3.936303  0
C  C86  1  0.54343476  0.83037709  0.73402187  1  0  -0.187978  0  3.720945  0  0  -0.203245  0  3.966154  0  0  -0.212501  0  3.988911  0  0  -0.089033  -0.197235  0  3.950681  0
C  C87  1  0.37380353  0.16937254  0.23385731  1  0  -0.186283  0  3.722809  0  0  -0.201839  0  3.968502  0  0  -0.211096  0  3.991231  0  0  -0.088801  -0.195759  0  3.952956  0
C  C88  1  0.57344625  0.75473382  0.80062229  1  0  0.142021  0  3.713361  0  0  0.109843  0  3.965112  0  0  0.11794  0  3.98424  0  0  0.045461  0.104618  0  3.952106  0
C  C89  1  0.32829008  0.24494685  0.30048106  1  0  0.141159  0  3.714532  0  0  0.108934  0  3.966564  0  0  0.117093  0  3.985646  0  0  0.044974  0.103695  0  3.953444  0
C  C90  1  0.50079814  0.85258945  0.59267628  1  0  -0.168803  0  3.677573  0  0  -0.209969  0  3.926177  0  0  -0.211567  0  3.93824  0  0  -0.158603  -0.20865  0  3.917709  0
C  C91  1  0.35379031  0.14717692  0.09248876  1  0  -0.169077  0  3.678772  0  0  -0.209519  0  3.927287  0  0  -0.211191  0  3.939463  0  0  -0.158771  -0.208205  0  3.918751  0
C  C92  1  0.28016461  0.93008773  0.59740312  1  0  -0.08717  0  3.6518  0  0  -0.129636  0  3.916604  0  0  -0.130451  0  3.930823  0  0  -0.15556  -0.128852  0  3.90658  0
C  C93  1  0.21055936  0.06983512  0.09725415  1  0  -0.085422  0  3.652618  0  0  -0.128663  0  3.917406  0  0  -0.129506  0  3.931557  0  0  -0.155065  -0.1279  0  3.907587  0
C  C94  1  0.15234248  0.84929446  0.58711807  1  0  -0.165741  0  3.679641  0  0  -0.208148  0  3.930643  0  0  -0.209935  0  3.942938  0  0  -0.154922  -0.206793  0  3.921993  0
C  C95  1  0.00191667  0.15083988  0.08702638  1  0  -0.166906  0  3.680041  0  0  -0.209188  0  3.930688  0  0  -0.210701  0  3.942774  0  0  -0.155264  -0.207892  0  3.922309  0
C  C96  1  0.12477952  0.75321966  0.65154980  1  0  0.166947  0  3.69293  0  0  0.184312  0  3.925793  0  0  0.191038  0  3.946496  0  0  0.021068  0.180025  0  3.911554  0
C  C97  1  0.87829283  0.24705818  0.15142229  1  0  0.166741  0  3.69598  0  0  0.184801  0  3.927883  0  0  0.191359  0  3.94874  0  0  0.020829  0.180566  0  3.91357  0
C  C98  1  0.11348014  0.77768911  0.73060538  1  0  -0.172325  0  3.717525  0  0  -0.188272  0  3.959072  0  0  -0.197825  0  3.982984  0  0  -0.085555  -0.182117  0  3.943074  0
C  C99  1  0.89140718  0.22262247  0.23047929  1  0  -0.171076  0  3.71992  0  0  -0.187277  0  3.961562  0  0  -0.1969  0  3.985544  0  0  -0.084866  -0.181177  0  3.945524  0
C  C100  1  0.10557005  0.68190057  0.78673569  1  0  0.137368  0  3.686383  0  0  0.103116  0  3.940894  0  0  0.111057  0  3.959789  0  0  0.045874  0.097986  0  3.928118  0
C  C101  1  0.78749832  0.31844972  0.28659442  1  0  0.137804  0  3.685924  0  0  0.103146  0  3.940944  0  0  0.111147  0  3.959835  0  0  0.045332  0.098047  0  3.928065  0
C  C102  1  0.09650344  0.54339736  0.69375252  1  0  0.144973  0  3.702966  0  0  0.109861  0  3.960024  0  0  0.118188  0  3.979041  0  0  0.051008  0.10446  0  3.947107  0
C  C103  1  0.63994204  0.45692884  0.19357498  1  0  0.143907  0  3.701312  0  0  0.108771  0  3.958391  0  0  0.117069  0  3.977462  0  0  0.051238  0.103348  0  3.945677  0
C  C104  1  0.11126149  0.63365084  0.63429154  1  0  -0.162494  0  3.665166  0  0  -0.180962  0  3.91123  0  0  -0.189934  0  3.932713  0  0  -0.078457  -0.175196  0  3.896879  0
C  C105  1  0.74508836  0.36662961  0.13412821  1  0  -0.163848  0  3.667871  0  0  -0.182908  0  3.91382  0  0  -0.19187  0  3.93539  0  0  -0.079266  -0.177248  0  3.899765  0
N  N106  1  0.60846529  0.62526661  0.80113014  1  0  -0.354515  0  3.310101  0  0  -0.275132  0  3.584817  0  0  -0.296746  0  3.601704  0  0  -0.33137  -0.260665  0  3.573212  0
N  N107  1  0.23413228  0.37445259  0.30098230  1  0  -0.353419  0  3.311386  0  0  -0.274175  0  3.58622  0  0  -0.295718  0  3.60307  0  0  -0.331212  -0.259604  0  3.574464  0
N  N108  1  0.09881050  0.56559706  0.76861435  1  0  -0.359388  0  3.350905  0  0  -0.273874  0  3.643014  0  0  -0.295629  0  3.656365  0  0  -0.340743  -0.2592  0  3.633847  0
N  N109  1  0.66438960  0.43475564  0.26844869  1  0  -0.357995  0  3.349091  0  0  -0.27209  0  3.640666  0  0  -0.29386  0  3.654046  0  0  -0.340364  -0.257589  0  3.631478  0
O  O110  1  0.30381935  0.26905420  0.86623612  1  0  -0.625909  0  2.050094  0  0  -0.554403  0  2.319509  0  0  -0.58362  0  2.305397  0  0  -0.31972  -0.53404  0  2.328619  0
O  O111  1  0.57265127  0.73095856  0.36625763  1  0  -0.625263  0  2.051156  0  0  -0.55372  0  2.32072  0  0  -0.582924  0  2.306692  0  0  -0.319778  -0.533278  0  2.329567  0
O  O112  1  0.48869463  0.39713749  0.85620280  1  0  -0.648391  0  2.077298  0  0  -0.584619  0  2.344835  0  0  -0.61119  0  2.331363  0  0  -0.309633  -0.566018  0  2.353424  0
O  O113  1  0.88581175  0.60290318  0.35605426  1  0  -0.647711  0  2.075632  0  0  -0.583894  0  2.343082  0  0  -0.610393  0  2.329571  0  0  -0.309367  -0.565277  0  2.351528  0
O  O114  1  0.85986405  0.37190177  0.88792097  1  0  -0.703629  0  2.156446  0  0  -0.618203  0  2.454113  0  0  -0.648801  0  2.43209  0  0  -0.335485  -0.596191  0  2.468085  0
O  O115  1  0.23159725  0.62807679  0.38802079  1  0  -0.703238  0  2.156815  0  0  -0.617513  0  2.45342  0  0  -0.64813  0  2.431492  0  0  -0.335392  -0.595839  0  2.467782  0
O  O116  1  0.00857146  0.26434503  0.77397134  1  0  -0.574993  0  1.896964  0  0  -0.529071  0  2.122528  0  0  -0.552096  0  2.113523  0  0  -0.292949  -0.512631  0  2.128162  0
O  O117  1  0.27254445  0.73541318  0.27400510  1  0  -0.574621  0  1.900384  0  0  -0.528614  0  2.12573  0  0  -0.551784  0  2.116894  0  0  -0.292342  -0.512223  0  2.131149  0
O  O118  1  0.72163090  0.63265677  0.96646800  1  0  -0.644222  0  2.056053  0  0  -0.58135  0  2.32418  0  0  -0.607778  0  2.309504  0  0  -0.313558  -0.562897  0  2.333641  0
O  O119  1  0.35487614  0.36705695  0.46617344  1  0  -0.6449  0  2.056591  0  0  -0.582258  0  2.324611  0  0  -0.60866  0  2.309892  0  0  -0.314311  -0.563833  0  2.334208  0
O  O120  1  0.04701599  0.51956462  0.95693811  1  0  -0.62482  0  2.11007  0  0  -0.547258  0  2.377488  0  0  -0.575517  0  2.362769  0  0  -0.312706  -0.52764  0  2.3871  0
O  O121  1  0.56688675  0.48028878  0.45675141  1  0  -0.624814  0  2.111521  0  0  -0.54623  0  2.377791  0  0  -0.574454  0  2.363085  0  0  -0.311827  -0.526772  0  2.387494  0
O  O122  1  0.40058357  0.52678056  0.01861854  1  0  -0.626442  0  1.946837  0  0  -0.563246  0  2.192237  0  0  -0.592503  0  2.181499  0  0  -0.320139  -0.542563  0  2.198888  0
O  O123  1  0.92797843  0.47303815  0.51841628  1  0  -0.626232  0  1.949931  0  0  -0.563905  0  2.195666  0  0  -0.593085  0  2.184794  0  0  -0.320771  -0.543161  0  2.202245  0
O  O124  1  0.28492130  0.69566278  0.94239440  1  0  -0.632542  0  1.966933  0  0  -0.5734  0  2.199539  0  0  -0.601505  0  2.191361  0  0  -0.315149  -0.553331  0  2.204253  0
O  O125  1  0.98073343  0.30425168  0.44216921  1  0  -0.631076  0  1.969059  0  0  -0.572488  0  2.20149  0  0  -0.600603  0  2.193456  0  0  -0.314469  -0.552372  0  2.206229  0
