# generated using pymatgen
data_UH6C5O7
_symmetry_space_group_name_H-M   'P 1'
_cell_length_a   8.35142266
_cell_length_b   9.67515330
_cell_length_c   10.61435743
_cell_angle_alpha   90.00005058
_cell_angle_beta   105.02960691
_cell_angle_gamma   89.99995329
_symmetry_Int_Tables_number   1
_chemical_formula_structural   UH6C5O7
_chemical_formula_sum   'U4 H24 C20 O28'
_cell_volume   828.31516122
_cell_formula_units_Z   4
loop_
 _symmetry_equiv_pos_site_id
 _symmetry_equiv_pos_as_xyz
  1  'x, y, z'
loop_
 _atom_site_type_symbol
 _atom_site_label
 _atom_site_symmetry_multiplicity
 _atom_site_fract_x
 _atom_site_fract_y
 _atom_site_fract_z
 _atom_site_occupancy
 _atom_site_hle17_bader_spin_density
 _atom_site_hle17_ddec_charge
 _atom_site_hle17_ddec_spin_density
 _atom_site_hle17_ddec_sum_bond_order
 _atom_site_hle17_magmom
 _atom_site_hse06_10hf_bader_spin_density
 _atom_site_hse06_10hf_ddec_charge
 _atom_site_hse06_10hf_ddec_spin_density
 _atom_site_hse06_10hf_ddec_sum_bond_order
 _atom_site_hse06_10hf_magmom
 _atom_site_hse06_bader_spin_density
 _atom_site_hse06_ddec_charge
 _atom_site_hse06_ddec_spin_density
 _atom_site_hse06_ddec_sum_bond_order
 _atom_site_hse06_magmom
 _atom_site_pbe_bader_spin_density
 _atom_site_pbe_cm5_charge
 _atom_site_pbe_ddec_charge
 _atom_site_pbe_ddec_spin_density
 _atom_site_pbe_ddec_sum_bond_order
 _atom_site_pbe_magmom
U  U0  1  0.23719266  0.50671156  0.58712992  1  0  2.484965  0  4.133086  0  0  2.533948  0  4.799252  0  0  2.642981  0  4.75965  0  0  2.201526  2.455814  0  4.82956  0
U  U1  1  0.76280243  0.00670990  0.41286343  1  0  2.484862  0  4.133153  0  0  2.533821  0  4.799305  0  0  2.642854  0  4.759704  0  0  2.201593  2.455715  0  4.829596  0
U  U2  1  0.21761263  0.75388364  0.12067382  1  0  2.496295  0  4.152144  0  0  2.54907  0  4.813985  0  0  2.658463  0  4.774109  0  0  2.209851  2.470042  0  4.844527  0
U  U3  1  0.78238581  0.25388037  0.87933927  1  0  2.496095  0  4.152055  0  0  2.548849  0  4.813958  0  0  2.658282  0  4.774032  0  0  2.209709  2.469788  0  4.844527  0
H  H4  1  0.93474991  0.68563244  0.47960569  1  0  0.401666  0  0.905874  0  0  0.376955  0  0.974034  0  0  0.389603  0  0.956084  0  0  0.314324  0.367929  0  0.984981  0
H  H5  1  0.06525123  0.18563141  0.52039096  1  0  0.401622  0  0.905942  0  0  0.37693  0  0.974073  0  0  0.389579  0  0.956122  0  0  0.314301  0.367903  0  0.985034  0
H  H6  1  0.91893632  0.57645925  0.99130269  1  0  0.406464  0  0.890671  0  0  0.381993  0  0.96039  0  0  0.394659  0  0.945345  0  0  0.316829  0.37295  0  0.970333  0
H  H7  1  0.08106609  0.07645974  0.00869979  1  0  0.406439  0  0.890725  0  0  0.381965  0  0.960444  0  0  0.394632  0  0.945391  0  0  0.316809  0.372923  0  0.970388  0
H  H8  1  0.56209902  0.45862732  0.33768370  1  0  0.146359  0  0.910055  0  0  0.158489  0  0.964202  0  0  0.161159  0  0.962869  0  0  0.120103  0.156183  0  0.965965  0
H  H9  1  0.43790069  0.95862271  0.66231380  1  0  0.146362  0  0.910064  0  0  0.15848  0  0.964202  0  0  0.161144  0  0.962883  0  0  0.1201  0.156173  0  0.965968  0
H  H10  1  0.62898628  0.52923711  0.49772400  1  0  0.148896  0  0.93052  0  0  0.160383  0  0.986207  0  0  0.163585  0  0.984599  0  0  0.120728  0.158275  0  0.98731  0
H  H11  1  0.37101744  0.02923480  0.50227496  1  0  0.148902  0  0.930567  0  0  0.160351  0  0.986275  0  0  0.163556  0  0.984661  0  0  0.12073  0.158243  0  0.987387  0
H  H12  1  0.83231230  0.63599077  0.23453824  1  0  0.13517  0  0.941238  0  0  0.155968  0  1.000149  0  0  0.157629  0  0.999927  0  0  0.108059  0.154814  0  1.000245  0
H  H13  1  0.16769632  0.13598680  0.76545994  1  0  0.135161  0  0.941297  0  0  0.155966  0  1.000192  0  0  0.157628  0  0.999966  0  0  0.108062  0.154808  0  1.000288  0
H  H14  1  0.77108127  0.46192841  0.19082071  1  0  0.139655  0  0.930681  0  0  0.162426  0  0.984763  0  0  0.164451  0  0.984004  0  0  0.106881  0.160915  0  0.985458  0
H  H15  1  0.22892345  0.96192203  0.80917313  1  0  0.139705  0  0.930683  0  0  0.162497  0  0.984735  0  0  0.164522  0  0.983971  0  0  0.1069  0.160982  0  0.985439  0
H  H16  1  0.98311661  0.50315252  0.26638902  1  0  0.12908  0  0.961677  0  0  0.144693  0  1.029972  0  0  0.146618  0  1.029384  0  0  0.106028  0.143425  0  1.030334  0
H  H17  1  0.01688711  0.00314967  0.73361085  1  0  0.12909  0  0.961654  0  0  0.144703  0  1.029953  0  0  0.146613  0  1.029379  0  0  0.106032  0.143435  0  1.030311  0
H  H18  1  0.86041084  0.67662190  0.75890389  1  0  0.152669  0  0.887146  0  0  0.168221  0  0.935505  0  0  0.170855  0  0.934294  0  0  0.130154  0.166283  0  0.936658  0
H  H19  1  0.13958287  0.17662570  0.24109120  1  0  0.152621  0  0.887166  0  0  0.168185  0  0.93554  0  0  0.170817  0  0.934328  0  0  0.130147  0.166249  0  0.936692  0
H  H20  1  0.68424228  0.78639075  0.72230445  1  0  0.15179  0  0.911664  0  0  0.164466  0  0.966815  0  0  0.167814  0  0.964847  0  0  0.12221  0.161941  0  0.968728  0
H  H21  1  0.31575130  0.28639549  0.27769541  1  0  0.151738  0  0.911646  0  0  0.164463  0  0.966784  0  0  0.167807  0  0.964819  0  0  0.122191  0.161937  0  0.968702  0
H  H22  1  0.59680496  0.66665742  0.99740830  1  0  0.136284  0  0.938484  0  0  0.158682  0  0.991449  0  0  0.16085  0  0.990936  0  0  0.105972  0.157089  0  0.991938  0
H  H23  1  0.40319243  0.16665458  0.00259226  1  0  0.136272  0  0.938489  0  0  0.15868  0  0.991438  0  0  0.160845  0  0.990927  0  0  0.105946  0.15709  0  0.991927  0
H  H24  1  0.54786912  0.83065274  0.92199126  1  0  0.135198  0  0.928853  0  0  0.157797  0  0.982452  0  0  0.159528  0  0.981954  0  0  0.106362  0.156538  0  0.982921  0
H  H25  1  0.45214310  0.33064786  0.07800688  1  0  0.135181  0  0.928896  0  0  0.15779  0  0.982476  0  0  0.159518  0  0.981983  0  0  0.106371  0.156534  0  0.982947  0
H  H26  1  0.67977349  0.82069066  0.08244242  1  0  0.137249  0  0.952167  0  0  0.156707  0  1.01307  0  0  0.159042  0  1.011476  0  0  0.105648  0.155087  0  1.014269  0
H  H27  1  0.32023498  0.32068674  0.91755775  1  0  0.137304  0  0.952204  0  0  0.156723  0  1.013131  0  0  0.159065  0  1.011523  0  0  0.105639  0.155093  0  1.014335  0
C  C28  1  0.82367717  0.50467614  0.39847463  1  0  0.296209  0  3.576402  0  0  0.298279  0  3.824334  0  0  0.302601  0  3.835543  0  0  0.085625  0.295163  0  3.817055  0
C  C29  1  0.17632037  0.00467200  0.60152206  1  0  0.29591  0  3.576629  0  0  0.298156  0  3.824335  0  0  0.302461  0  3.835594  0  0  0.085599  0.295071  0  3.817038  0
C  C30  1  0.87112275  0.35462374  0.43741159  1  0  0.677489  0  3.721216  0  0  0.650793  0  3.992982  0  0  0.687513  0  3.982616  0  0  0.265682  0.625486  0  3.999857  0
C  C31  1  0.12887211  0.85462236  0.56258104  1  0  0.67777  0  3.720797  0  0  0.650816  0  3.992852  0  0  0.687538  0  3.982479  0  0  0.265654  0.625424  0  3.999881  0
C  C32  1  0.64276392  0.53594393  0.39790640  1  0  -0.358072  0  3.580234  0  0  -0.399257  0  3.803751  0  0  -0.406611  0  3.807894  0  0  -0.149821  -0.394055  0  3.80149  0
C  C33  1  0.35723359  0.03593862  0.60209126  1  0  -0.35805  0  3.580443  0  0  -0.399179  0  3.803883  0  0  -0.406524  0  3.808019  0  0  -0.149828  -0.393978  0  3.801594  0
C  C34  1  0.58760087  0.67881814  0.34511818  1  0  0.798743  0  3.719338  0  0  0.774301  0  4.004521  0  0  0.815018  0  3.990084  0  0  0.271184  0.74583  0  4.013762  0
C  C35  1  0.41239649  0.17881182  0.65488427  1  0  0.798803  0  3.719515  0  0  0.77433  0  4.00473  0  0  0.815041  0  3.990311  0  0  0.271194  0.745878  0  4.013927  0
C  C36  1  0.85414800  0.52749534  0.26372871  1  0  -0.3891  0  3.609584  0  0  -0.474364  0  3.848256  0  0  -0.477145  0  3.855248  0  0  -0.236243  -0.472204  0  3.843231  0
C  C37  1  0.14585696  0.02749032  0.73627050  1  0  -0.389056  0  3.60959  0  0  -0.474375  0  3.848227  0  0  -0.477137  0  3.855225  0  0  -0.236238  -0.472217  0  3.843195  0
C  C38  1  0.79581176  0.75956230  0.92988468  1  0  0.303627  0  3.560989  0  0  0.307216  0  3.806284  0  0  0.311874  0  3.817168  0  0  0.088191  0.303952  0  3.798929  0
C  C39  1  0.20419304  0.25956484  0.07011374  1  0  0.303569  0  3.561113  0  0  0.307159  0  3.806391  0  0  0.311817  0  3.817275  0  0  0.088198  0.303894  0  3.799033  0
C  C40  1  0.87105544  0.90512586  0.93498127  1  0  0.667109  0  3.735855  0  0  0.636981  0  4.014542  0  0  0.67311  0  4.005081  0  0  0.262308  0.612113  0  4.020229  0
C  C41  1  0.12893814  0.40512432  0.06501113  1  0  0.666997  0  3.735891  0  0  0.636971  0  4.014417  0  0  0.673098  0  4.004964  0  0  0.262351  0.612105  0  4.020094  0
C  C42  1  0.74726113  0.70467216  0.78841807  1  0  -0.362002  0  3.559083  0  0  -0.405401  0  3.788984  0  0  -0.412638  0  3.793236  0  0  -0.145258  -0.400617  0  3.786723  0
C  C43  1  0.25273625  0.20467584  0.21158157  1  0  -0.361798  0  3.558981  0  0  -0.405272  0  3.788948  0  0  -0.412506  0  3.793201  0  0  -0.14525  -0.40049  0  3.786677  0
C  C44  1  0.63700248  0.57693365  0.76907448  1  0  0.794296  0  3.726315  0  0  0.767387  0  4.016049  0  0  0.807383  0  4.002652  0  0  0.270272  0.739447  0  4.024455  0
C  C45  1  0.36300107  0.07693830  0.23093672  1  0  0.794139  0  3.72645  0  0  0.767146  0  4.016331  0  0  0.807139  0  4.002941  0  0  0.270307  0.739233  0  4.024703  0
C  C46  1  0.64590518  0.76973484  0.98700948  1  0  -0.383541  0  3.62176  0  0  -0.466741  0  3.854423  0  0  -0.469623  0  3.861199  0  0  -0.23828  -0.464563  0  3.849628  0
C  C47  1  0.35410085  0.26973410  0.01299015  1  0  -0.383506  0  3.621899  0  0  -0.466698  0  3.854553  0  0  -0.46957  0  3.861317  0  0  -0.238227  -0.464519  0  3.849751  0
O  O48  1  0.26620422  0.52092106  0.42534886  1  0  -0.682866  0  1.590502  0  0  -0.69517  0  1.894193  0  0  -0.717142  0  1.881637  0  0  -0.747181  -0.681715  0  1.903904  0
O  O49  1  0.73379938  0.02092165  0.57466231  1  0  -0.682952  0  1.590207  0  0  -0.695246  0  1.893798  0  0  -0.71724  0  1.881284  0  0  -0.747061  -0.681782  0  1.903507  0
O  O50  1  0.20980787  0.48739103  0.74899343  1  0  -0.677218  0  1.528048  0  0  -0.691682  0  1.807222  0  0  -0.712047  0  1.792468  0  0  -0.750383  -0.679395  0  1.818431  0
O  O51  1  0.79018420  0.98739194  0.25101945  1  0  -0.677045  0  1.528499  0  0  -0.691497  0  1.807722  0  0  -0.711851  0  1.792961  0  0  -0.750494  -0.679217  0  1.818943  0
O  O52  1  0.15934704  0.77947507  0.27089846  1  0  -0.677851  0  1.539794  0  0  -0.691485  0  1.823386  0  0  -0.713096  0  1.810913  0  0  -0.751236  -0.678335  0  1.833147  0
O  O53  1  0.84065652  0.27947883  0.72909876  1  0  -0.677855  0  1.539351  0  0  -0.691492  0  1.822886  0  0  -0.713115  0  1.810417  0  0  -0.751067  -0.678331  0  1.832639  0
O  O54  1  0.27110157  0.73718974  0.96746352  1  0  -0.682444  0  1.53961  0  0  -0.695337  0  1.819794  0  0  -0.717122  0  1.806131  0  0  -0.753641  -0.681964  0  1.830172  0
O  O55  1  0.72889950  0.23718359  0.03253692  1  0  -0.682305  0  1.540139  0  0  -0.695128  0  1.820311  0  0  -0.716913  0  1.806638  0  0  -0.753643  -0.68176  0  1.830698  0
O  O56  1  0.93866753  0.58237207  0.49761672  1  0  -0.657363  0  2.147711  0  0  -0.630115  0  2.396616  0  0  -0.654588  0  2.385108  0  0  -0.41728  -0.612347  0  2.403323  0
O  O57  1  0.06133369  0.08237102  0.50237987  1  0  -0.65731  0  2.147902  0  0  -0.630063  0  2.396643  0  0  -0.654534  0  2.385147  0  0  -0.417223  -0.612283  0  2.403326  0
O  O58  1  0.01910892  0.33874010  0.50904146  1  0  -0.645025  0  2.16921  0  0  -0.613345  0  2.415668  0  0  -0.647045  0  2.40892  0  0  -0.339658  -0.589258  0  2.419446  0
O  O59  1  0.98088342  0.83874112  0.49095534  1  0  -0.645173  0  2.169138  0  0  -0.613344  0  2.415618  0  0  -0.647042  0  2.408867  0  0  -0.339752  -0.589242  0  2.419448  0
O  O60  1  0.77415793  0.25606717  0.39451282  1  0  -0.615387  0  2.021062  0  0  -0.600187  0  2.268975  0  0  -0.632522  0  2.261729  0  0  -0.332744  -0.576489  0  2.273259  0
O  O61  1  0.22583577  0.75606163  0.60547855  1  0  -0.615434  0  2.020934  0  0  -0.60019  0  2.268992  0  0  -0.632525  0  2.261745  0  0  -0.332692  -0.576463  0  2.273324  0
O  O62  1  0.65257068  0.78361856  0.41143609  1  0  -0.662826  0  2.027088  0  0  -0.654142  0  2.297977  0  0  -0.689378  0  2.288862  0  0  -0.364605  -0.627827  0  2.303115  0
O  O63  1  0.34741788  0.28361531  0.58856930  1  0  -0.662897  0  2.027248  0  0  -0.654172  0  2.298133  0  0  -0.689408  0  2.289026  0  0  -0.364554  -0.627866  0  2.303253  0
O  O64  1  0.48026124  0.68939780  0.23607877  1  0  -0.668562  0  2.067191  0  0  -0.664678  0  2.350369  0  0  -0.702272  0  2.342205  0  0  -0.369478  -0.636875  0  2.354656  0
O  O65  1  0.51974236  0.18939564  0.76392029  1  0  -0.668529  0  2.067174  0  0  -0.664714  0  2.350451  0  0  -0.702313  0  2.34229  0  0  -0.369521  -0.636919  0  2.354714  0
O  O66  1  0.92545417  0.67818633  0.01274133  1  0  -0.663189  0  2.176049  0  0  -0.635765  0  2.433077  0  0  -0.660374  0  2.4243  0  0  -0.418914  -0.617623  0  2.438499  0
O  O67  1  0.07455321  0.17818370  0.98725379  1  0  -0.663171  0  2.175993  0  0  -0.635757  0  2.43303  0  0  -0.660367  0  2.424238  0  0  -0.418963  -0.617619  0  2.438463  0
O  O68  1  0.01709591  0.92056216  0.00966463  1  0  -0.652846  0  2.167907  0  0  -0.623761  0  2.421095  0  0  -0.657318  0  2.415295  0  0  -0.344558  -0.599305  0  2.423957  0
O  O69  1  0.98290251  0.42055885  0.99034011  1  0  -0.652719  0  2.16798  0  0  -0.62367  0  2.421142  0  0  -0.657233  0  2.415343  0  0  -0.3446  -0.599218  0  2.424003  0
O  O70  1  0.78837522  0.00265230  0.87140599  1  0  -0.621131  0  2.053946  0  0  -0.604074  0  2.313202  0  0  -0.636138  0  2.306797  0  0  -0.334422  -0.580034  0  2.316372  0
O  O71  1  0.21162606  0.50265869  0.12858960  1  0  -0.621145  0  2.053741  0  0  -0.604172  0  2.313031  0  0  -0.636221  0  2.306596  0  0  -0.334456  -0.580132  0  2.316195  0
O  O72  1  0.51420515  0.57297195  0.66878515  1  0  -0.665801  0  2.046893  0  0  -0.656905  0  2.321285  0  0  -0.692238  0  2.311886  0  0  -0.362123  -0.630731  0  2.32668  0
O  O73  1  0.48578977  0.07298281  0.33122047  1  0  -0.665649  0  2.047158  0  0  -0.656765  0  2.321621  0  0  -0.692094  0  2.312227  0  0  -0.362112  -0.630599  0  2.327007  0
O  O74  1  0.67218676  0.47861275  0.85103625  1  0  -0.673946  0  2.057588  0  0  -0.662324  0  2.329342  0  0  -0.697434  0  2.320737  0  0  -0.362131  -0.635914  0  2.333715  0
O  O75  1  0.32781158  0.97861391  0.14897229  1  0  -0.673992  0  2.057472  0  0  -0.662269  0  2.329252  0  0  -0.697371  0  2.320647  0  0  -0.362133  -0.635868  0  2.333626  0
