# generated using pymatgen
data_Cu3H24C24(N2O7)2
_symmetry_space_group_name_H-M   'P 1'
_cell_length_a   6.39216882
_cell_length_b   10.70343510
_cell_length_c   11.88215964
_cell_angle_alpha   69.44857473
_cell_angle_beta   74.22736626
_cell_angle_gamma   81.08320081
_symmetry_Int_Tables_number   1
_chemical_formula_structural   Cu3H24C24(N2O7)2
_chemical_formula_sum   'Cu3 H24 C24 N4 O14'
_cell_volume   730.95270698
_cell_formula_units_Z   1
loop_
 _symmetry_equiv_pos_site_id
 _symmetry_equiv_pos_as_xyz
  1  'x, y, z'
loop_
 _atom_site_type_symbol
 _atom_site_label
 _atom_site_symmetry_multiplicity
 _atom_site_fract_x
 _atom_site_fract_y
 _atom_site_fract_z
 _atom_site_occupancy
 _atom_site_hle17_ddec_charge
 _atom_site_hle17_ddec_spin_density
 _atom_site_hle17_ddec_sum_bond_order
 _atom_site_hle17_magmom
 _atom_site_hse06_10hf_ddec_charge
 _atom_site_hse06_10hf_ddec_spin_density
 _atom_site_hse06_10hf_ddec_sum_bond_order
 _atom_site_hse06_10hf_magmom
 _atom_site_hse06_ddec_charge
 _atom_site_hse06_ddec_spin_density
 _atom_site_hse06_ddec_sum_bond_order
 _atom_site_hse06_magmom
 _atom_site_pbe_cm5_charge
 _atom_site_pbe_ddec_charge
 _atom_site_pbe_ddec_spin_density
 _atom_site_pbe_ddec_sum_bond_order
 _atom_site_pbe_magmom
Cu  Cu0  1  0.00099455  0.00158526  0.49944747  1  1.061816  -0.713508  1.71297  -0.538  1.077198  -0.82281  2.096416  -0.68  1.154103  -0.886735  2.042014  -0.763  0.688363  1.027609  -0.76039  2.141937  -0.61
Cu  Cu1  1  0.92087950  0.30298312  0.41970834  1  0.902127  -0.663228  1.817799  -0.499  0.89974  -0.779352  2.207767  -0.639  0.986896  -0.858314  2.143557  -0.732  0.723657  0.845804  -0.696611  2.254162  -0.555
Cu  Cu2  1  0.07863954  0.69653867  0.58016926  1  0.910714  0.67881  1.818693  0.494  0.908356  0.797819  2.207567  0.639  0.993226  0.886281  2.14513  0.734  0.727231  0.854185  0.69831  2.25399  0.549
H  H3  1  0.40653098  0.15834291  0.40749502  1  0.434972  -8.1e-05  0.807487  0.0  0.428199  -2e-05  0.848272  0.0  0.437613  -1.3e-05  0.837791  0.0  0.31717  0.421573  -4.7e-05  0.855598  0.0
H  H4  1  0.59297560  0.84081890  0.59320001  1  0.432281  -3.1e-05  0.809651  0.0  0.425649  -8.1e-05  0.850477  0.0  0.434944  -5.5e-05  0.84007  0.0  0.315922  0.418971  -0.000109  0.857976  0.0
H  H5  1  0.32259583  0.13638785  0.54836978  1  0.420187  -0.000124  0.885331  0.0  0.395171  -6.8e-05  0.939952  0.0  0.407213  -5.1e-05  0.922293  0.0  0.284551  0.386902  -8.8e-05  0.952089  0.0
H  H6  1  0.67809027  0.86287295  0.45249072  1  0.421543  4.8e-05  0.883519  0.0  0.396219  1.2e-05  0.938774  0.0  0.408143  1.6e-05  0.921248  0.0  0.284755  0.387908  1e-06  0.95103  0.0
H  H7  1  0.60258972  0.50944275  0.37691807  1  0.400916  1.2e-05  0.919351  0.0  0.368574  -1.6e-05  0.988732  0.0  0.378921  4e-06  0.973897  0.0  0.272662  0.361738  -5.7e-05  0.998393  0.0
H  H8  1  0.39719003  0.49084438  0.62291520  1  0.399831  -3.6e-05  0.920691  0.0  0.368011  -3.6e-05  0.989228  0.0  0.3783  -2.8e-05  0.974466  0.0  0.27257  0.361217  -3.8e-05  0.998826  0.0
H  H9  1  0.49361418  0.37572694  0.46632674  1  0.408807  3.4e-05  0.897443  0.0  0.378671  -6.8e-05  0.964047  0.0  0.390309  -4.9e-05  0.947074  0.0  0.276401  0.370475  -9.6e-05  0.975937  0.0
H  H10  1  0.50686211  0.62427526  0.53336742  1  0.409614  -0.000128  0.896681  0.0  0.379147  -0.000147  0.963518  0.0  0.39073  -0.000132  0.946633  0.0  0.276733  0.37097  -0.000156  0.97537  0.0
H  H11  1  0.66149787  0.12864392  0.56208665  1  0.392369  0.000145  0.914986  0.003  0.369272  -0.00183  0.979617  -0.002  0.380575  -0.001277  0.964333  -0.001  0.276414  0.361264  -0.002168  0.990593  -0.002
H  H12  1  0.33956211  0.87078674  0.43802552  1  0.392079  0.000307  0.917729  0.0  0.370174  0.000734  0.978618  0.001  0.381603  0.000595  0.963051  0.001  0.275887  0.361927  0.000721  0.989948  0.001
H  H13  1  0.15213953  0.39596173  0.03624353  1  0.093477  -0.000152  0.9639  0.0  0.103454  -0.000118  1.025895  0.0  0.106731  -6.6e-05  1.023814  0.0  0.09944  0.100945  -0.000163  1.027867  0.0
H  H14  1  0.84816353  0.60423422  0.96363817  1  0.093586  0.000201  0.964059  0.0  0.10375  0.000138  1.025942  0.0  0.107021  8.1e-05  1.023906  0.0  0.099482  0.101162  0.000177  1.027986  0.0
H  H15  1  0.27106231  0.42165904  0.81273808  1  0.109659  -7.8e-05  0.961325  0.0  0.120107  -5.4e-05  1.021983  0.0  0.122579  -2.9e-05  1.020937  0.0  0.105896  0.118215  -9e-05  1.022772  0.0
H  H16  1  0.72927489  0.57849060  0.18705069  1  0.10949  -7.6e-05  0.962069  0.0  0.119968  -3.3e-05  1.022791  0.0  0.122436  -1.7e-05  1.021762  0.0  0.105759  0.118028  -8.1e-05  1.023654  0.0
H  H17  1  0.28228089  0.99582164  0.90038080  1  0.105652  -0.000103  0.942311  0.0  0.11308  -8.5e-05  1.003943  0.0  0.116934  -4.8e-05  1.001716  0.0  0.104545  0.110233  -0.000125  1.005724  0.0
H  H18  1  0.71745071  0.00429001  0.09968030  1  0.104919  0.0001  0.942792  0.0  0.112445  8.1e-05  1.004454  0.0  0.116339  5.2e-05  1.002171  0.0  0.104108  0.109522  0.000101  1.006335  0.0
H  H19  1  0.16091907  0.97113256  0.12649991  1  0.089344  -0.000174  0.978535  0.0  0.098276  -0.000145  1.045328  0.0  0.100636  -8.7e-05  1.044447  0.0  0.10044  0.096718  -0.00021  1.046037  0.0
H  H20  1  0.83845806  0.02914957  0.87362527  1  0.088296  -0.000222  0.979  0.0  0.097715  -0.00016  1.045511  0.0  0.100107  -0.000103  1.044597  0.0  0.100088  0.096106  -0.000217  1.046297  0.0
H  H21  1  0.23789657  0.83106560  0.28327057  1  0.103248  0.000473  0.942496  0.001  0.109125  0.000643  1.007814  0.001  0.113135  0.000498  1.002664  0.001  0.133756  0.105453  0.000658  1.012556  0.001
H  H22  1  0.76216294  0.16837180  0.71765230  1  0.102013  -0.000405  0.943913  -0.001  0.107892  -0.000609  1.009467  -0.001  0.111867  -0.000432  1.004373  -0.001  0.1332  0.104302  -0.000725  1.014087  -0.001
H  H23  1  0.29026227  0.73557388  0.10780743  1  0.127708  8.7e-05  0.923033  0.0  0.143013  7e-05  0.968627  0.0  0.146563  3.7e-05  0.968942  0.0  0.12491  0.139961  8.9e-05  0.969332  0.0
H  H24  1  0.70946703  0.26466750  0.89247615  1  0.127819  -4.8e-05  0.923636  0.0  0.14342  -3.8e-05  0.968872  0.0  0.146985  -1.8e-05  0.969168  0.0  0.125152  0.140344  -6e-05  0.96961  0.0
H  H25  1  0.17838795  0.49792607  0.16614685  1  0.096771  -0.000419  0.921042  -0.001  0.107653  -0.000591  0.977104  -0.001  0.110599  -0.000438  0.973218  -0.001  0.134142  0.104816  -0.000693  0.981135  -0.001
H  H26  1  0.82126521  0.50245163  0.83348592  1  0.096565  0.00051  0.921132  0.001  0.107344  0.000639  0.977348  0.001  0.11027  0.000469  0.973469  0.001  0.133991  0.104491  0.000757  0.981397  0.001
C  C27  1  0.08427808  0.16725052  0.23148917  1  0.658708  0.005339  3.844509  0.011  0.623373  -0.000629  4.131608  0.003  0.663279  5.6e-05  4.124443  0.003  0.219911  0.596157  -0.001463  4.134726  0.003
C  C28  1  0.91615234  0.83349536  0.76823848  1  0.660633  7.7e-05  3.8437  0.0  0.625273  0.000182  4.13117  0.0  0.665031  0.000209  4.123988  0.0  0.22018  0.598128  0.000126  4.134369  0.0
C  C29  1  0.15205793  0.18143095  0.09588501  1  -0.048544  -0.015858  3.731793  -0.018  -0.023681  -0.009212  3.953111  -0.011  -0.029928  -0.006502  3.974017  -0.008  -0.011636  -0.01977  -0.011076  3.939186  -0.013
C  C30  1  0.84784784  0.81895611  0.90391739  1  -0.050445  -0.001045  3.734055  -0.001  -0.024859  0.000314  3.955037  0.0  -0.030844  0.000432  3.975912  0.0  -0.012015  -0.021353  -0.000618  3.941172  -0.001
C  C31  1  0.18177496  0.30838773  0.00614813  1  -0.089349  0.001621  3.76262  0.002  -0.111978  9.2e-05  4.010482  0.0  -0.113873  0.000334  4.032206  0.0  -0.093147  -0.110321  -0.000131  3.995281  0.0
C  C32  1  0.81848476  0.69191096  0.99360707  1  -0.089791  -0.000688  3.762777  -0.001  -0.112371  -0.000494  4.010424  -0.001  -0.114261  -0.000366  4.032154  -0.001  -0.093313  -0.110684  -0.000562  3.995295  -0.001
C  C33  1  0.24651023  0.32242964  0.88091141  1  -0.097571  -0.00164  3.775755  -0.002  -0.121536  -0.00051  4.031267  -0.001  -0.124045  -0.000512  4.055496  -0.001  -0.094551  -0.118856  -0.000549  4.013697  -0.001
C  C34  1  0.75364402  0.67775918  0.11889922  1  -0.097888  -0.000494  3.776172  -0.001  -0.121756  -0.00029  4.031634  0.0  -0.124212  -0.000165  4.055771  0.0  -0.09483  -0.119169  -0.000427  4.014232  0.0
C  C35  1  0.28221953  0.20926397  0.84249831  1  -0.079814  0.002147  3.780888  0.002  -0.062316  0.000741  4.026415  0.001  -0.070151  0.000753  4.052402  0.001  -0.0275  -0.05692  0.000686  4.007938  0.001
C  C36  1  0.71774747  0.79080440  0.15751017  1  -0.080794  -6.3e-05  3.78198  0.0  -0.063143  -9.4e-05  4.02734  0.0  -0.070951  -7e-05  4.053282  0.0  -0.027727  -0.05781  -0.00012  4.008955  0.0
C  C37  1  0.25325943  0.08252890  0.93184019  1  -0.073977  -0.001744  3.741357  -0.002  -0.096256  -0.000583  3.995063  -0.001  -0.097661  -0.000558  4.016523  -0.001  -0.083904  -0.094833  -0.000586  3.98018  -0.001
C  C38  1  0.74662374  0.91756365  0.06821241  1  -0.073545  0.000473  3.742531  0.001  -0.095685  0.000365  3.995919  0.0  -0.097033  0.00025  4.017295  0.0  -0.083878  -0.094348  0.00042  3.981225  0.0
C  C39  1  0.18799063  0.06898357  0.05705750  1  -0.071598  0.001663  3.743961  0.002  -0.095124  -1.5e-05  3.992843  0.0  -0.096057  0.00025  4.014103  0.0  -0.086524  -0.094606  -0.000226  3.978555  0.0
C  C40  1  0.81170222  0.93121809  0.94297137  1  -0.070789  0.001131  3.745021  0.001  -0.094381  0.000611  3.993455  0.001  -0.095417  0.000397  4.014805  0.001  -0.086456  -0.093803  0.000799  3.97917  0.001
C  C41  1  0.35161878  0.22092780  0.70763488  1  0.624752  0.000153  3.942165  0.0  0.567995  -2.6e-05  4.248176  0.0  0.59971  -2.9e-05  4.243697  0.0  0.199602  0.547055  -4.1e-05  4.249685  0.0
C  C42  1  0.64849681  0.77899550  0.29241234  1  0.625174  1.6e-05  3.941685  0.0  0.568449  -1.3e-05  4.247528  0.0  0.600195  -1.3e-05  4.243022  0.0  0.199722  0.547528  -6e-06  4.249077  0.0
C  C43  1  0.05067010  0.53707290  0.43657747  1  0.323206  7.8e-05  3.76392  0.0  0.29622  0.0003  4.028777  0.0  0.313356  0.000267  4.039437  0.0  0.261082  0.283551  -0.00012  4.023996  0.0
C  C44  1  0.94927996  0.46219994  0.56345855  1  0.326668  2.1e-05  3.761048  0.0  0.299358  -0.000121  4.025889  0.0  0.316507  -0.000148  4.036508  0.0  0.261035  0.286539  -0.000735  4.021254  -0.001
C  C45  1  0.19639529  0.73031430  0.29871210  1  0.203133  -2e-05  3.593718  -0.001  0.169248  0.000873  3.851029  0.0  0.185667  0.000485  3.859005  0.0  0.083787  0.157059  0.001101  3.848677  0.0
C  C46  1  0.80359747  0.26923204  0.70179115  1  0.203033  -0.000298  3.595153  0.0  0.169562  -0.001016  3.852152  0.0  0.186002  -0.000531  3.860232  0.0  0.083755  0.157308  -0.001483  3.849918  -0.001
C  C47  1  0.22269390  0.67760686  0.20339422  1  -0.14124  -7.6e-05  3.644418  0.0  -0.152448  -0.000258  3.891965  0.0  -0.163654  -0.000231  3.908284  0.0  -0.055741  -0.146689  -0.000572  3.884229  -0.001
C  C48  1  0.77700346  0.32241316  0.79681635  1  -0.141744  0.00055  3.645964  0.001  -0.15337  0.000407  3.893709  0.001  -0.164573  0.000336  3.909966  0.0  -0.056387  -0.147626  0.000219  3.886099  0.0
C  C49  1  0.16070647  0.54832328  0.23380995  1  0.216309  -0.000515  3.600421  0.0  0.181738  -0.0011  3.856187  0.0  0.198669  -0.000487  3.864028  0.0  0.090233  0.169256  -0.001632  3.853812  -0.001
C  C50  1  0.83893536  0.45176085  0.76605507  1  0.217512  0.000311  3.601867  0.0  0.182703  0.000929  3.858035  0.0  0.199707  0.000405  3.865676  0.0  0.090565  0.170141  0.00151  3.855742  0.001
N  N51  1  0.11488194  0.65762161  0.41646136  1  -0.331644  0.043685  3.228338  0.055  -0.289082  0.037298  3.513658  0.05  -0.316331  0.031421  3.525036  0.044  -0.314128  -0.272681  0.038295  3.509484  0.05
N  N52  1  0.88549073  0.34143571  0.58387431  1  -0.333116  -0.040279  3.226733  -0.053  -0.289856  -0.035259  3.511554  -0.049  -0.317264  -0.029694  3.522985  -0.043  -0.314069  -0.273764  -0.036298  3.507761  -0.048
N  N53  1  0.06978618  0.47903396  0.35097992  1  -0.330596  -0.034987  3.250689  -0.045  -0.286036  -0.033095  3.537917  -0.045  -0.313845  -0.028974  3.548995  -0.041  -0.318465  -0.269494  -0.033684  3.533645  -0.044
N  N54  1  0.92969649  0.52075575  0.64878829  1  -0.333058  0.037444  3.252506  0.046  -0.288311  0.034272  3.53972  0.045  -0.315775  0.029948  3.550396  0.041  -0.318239  -0.271699  0.034235  3.535587  0.044
O  O55  1  0.08305705  0.04980556  0.30868311  1  -0.582858  -0.06303  2.032141  -0.088  -0.556473  -0.041645  2.294207  -0.063  -0.592812  -0.030326  2.28396  -0.049  -0.305135  -0.529622  -0.050022  2.299971  -0.072
O  O56  1  0.91737950  0.95100552  0.69109863  1  -0.586992  -0.05989  2.028404  -0.083  -0.560214  -0.040467  2.290475  -0.06  -0.596154  -0.030356  2.280015  -0.048  -0.307013  -0.533797  -0.048284  2.296456  -0.069
O  O57  1  0.03729701  0.27749850  0.25499979  1  -0.591129  -0.069402  2.071728  -0.096  -0.564231  -0.048116  2.340476  -0.073  -0.607951  -0.036072  2.332598  -0.058  -0.320743  -0.534804  -0.052684  2.346062  -0.076
O  O58  1  0.96401454  0.72324688  0.74469595  1  -0.590655  0.073975  2.066237  0.098  -0.565067  0.050293  2.335185  0.073  -0.608556  0.038379  2.327478  0.059  -0.320737  -0.535433  0.054188  2.340583  0.076
O  O59  1  0.35523964  0.33761317  0.62726661  1  -0.658715  0.000317  2.057272  0.0  -0.591302  0.000149  2.281591  0.0  -0.620034  0.000124  2.276431  0.0  -0.320336  -0.570759  -1e-05  2.284073  0.0
O  O60  1  0.64480652  0.66224391  0.37270916  1  -0.659279  -0.000254  2.057205  0.0  -0.591596  -0.000236  2.282038  0.0  -0.620243  -0.000166  2.276624  0.0  -0.320487  -0.571007  -0.000324  2.284312  0.0
O  O61  1  0.40501066  0.11313824  0.68146108  1  -0.614075  -0.001612  1.955013  -0.002  -0.550926  -0.000871  2.163252  -0.001  -0.572706  -0.000366  2.152437  -0.001  -0.315599  -0.536049  -0.001611  2.170551  -0.002
O  O62  1  0.59528337  0.88666529  0.31873449  1  -0.614412  -0.000572  1.955081  -0.001  -0.551313  -3.1e-05  2.163034  0.0  -0.573006  3.7e-05  2.152104  0.0  -0.315832  -0.536657  -0.000438  2.170547  -0.001
O  O63  1  0.27222005  0.15686420  0.47093323  1  -0.855816  0.005518  1.861087  0.004  -0.83801  0.002708  2.054182  0.002  -0.856438  0.001992  2.017568  0.001  -0.590767  -0.823647  0.003618  2.079711  0.003
O  O64  1  0.72770383  0.84182418  0.53016365  1  -0.855435  -0.005466  1.855865  -0.007  -0.837018  -0.004097  2.046773  -0.005  -0.854767  -0.002743  2.010381  -0.004  -0.591279  -0.823274  -0.005089  2.072585  -0.007
O  O65  1  0.58853840  0.41575830  0.38317565  1  -0.841034  -0.00543  1.842121  -0.008  -0.805125  -0.00335  2.027005  -0.005  -0.826933  -0.001563  1.993212  -0.003  -0.615508  -0.788522  -0.005542  2.050043  -0.008
O  O66  1  0.41179683  0.58445625  0.61656330  1  -0.841355  0.000925  1.841949  0.003  -0.806133  0.000354  2.027178  0.002  -0.827686  -0.000183  1.993508  0.001  -0.615635  -0.789383  0.000534  2.050084  0.002
O  O67  1  0.77475526  0.14056504  0.48421741  1  -0.825778  -0.227169  1.909066  -0.302  -0.863804  -0.128729  2.224454  -0.183  -0.931291  -0.095302  2.201627  -0.143  -0.595791  -0.819246  -0.146838  2.240955  -0.201
O  O68  1  0.22212743  0.85958516  0.51412383  1  -0.841897  0.053175  1.921233  0.067  -0.872141  0.026493  2.231926  0.037  -0.938446  0.019141  2.208737  0.028  -0.599725  -0.826934  0.026752  2.248434  0.037
