# generated using pymatgen
data_Zn4Si3H68(C6O)14
_symmetry_space_group_name_H-M   'P 1'
_cell_length_a   11.98726796
_cell_length_b   14.75453183
_cell_length_c   28.06798214
_cell_angle_alpha   96.93612194
_cell_angle_beta   89.98523653
_cell_angle_gamma   113.97166198
_symmetry_Int_Tables_number   1
_chemical_formula_structural   Zn4Si3H68(C6O)14
_chemical_formula_sum   'Zn8 Si6 H136 C168 O28'
_cell_volume   4496.37844792
_cell_formula_units_Z   2
loop_
 _symmetry_equiv_pos_site_id
 _symmetry_equiv_pos_as_xyz
  1  'x, y, z'
loop_
 _atom_site_type_symbol
 _atom_site_label
 _atom_site_symmetry_multiplicity
 _atom_site_fract_x
 _atom_site_fract_y
 _atom_site_fract_z
 _atom_site_occupancy
 _atom_site_pbe_bader_charge
 _atom_site_pbe_bader_spin_density
 _atom_site_pbe_cm5_charge
 _atom_site_pbe_ddec_charge
 _atom_site_pbe_ddec_spin_density
 _atom_site_pbe_ddec_sum_bond_order
 _atom_site_pbe_magmom
Zn  Zn0  1  0.50483444  0.07543313  0.74203140  1  1.324262  0  0.682044  0.955385  0  2.38649  0
Zn  Zn1  1  0.65815882  0.94490782  0.76430340  1  1.325307  0  0.681937  0.962121  0  2.35972  0
Zn  Zn2  1  0.92928318  0.92449744  0.75793121  1  1.319248  0  0.682213  0.955923  0  2.388073  0
Zn  Zn3  1  0.21329855  0.05492275  0.73560983  1  1.325757  0  0.681864  0.96127  0  2.36059  0
Zn  Zn4  1  0.49516567  0.92457044  0.25796905  1  1.324224  0  0.682016  0.955328  0  2.386655  0
Zn  Zn5  1  0.34184138  0.05509425  0.23569802  1  1.325611  0  0.681969  0.962156  0  2.359647  0
Zn  Zn6  1  0.07071460  0.07550314  0.24206869  1  1.319173  0  0.682209  0.955921  0  2.388098  0
Zn  Zn7  1  0.78669886  0.94507708  0.26439002  1  1.325639  0  0.681856  0.961264  0  2.360466  0
Si  Si8  1  0.65252952  0.26480935  0.04929948  1  2.686152  0  0.135571  0.672211  0  3.851621  0
Si  Si9  1  0.88738748  0.73529577  0.45070816  1  2.680181  0  0.135285  0.673027  0  3.851622  0
Si  Si10  1  0.34747244  0.73519123  0.95070042  1  2.686149  0  0.135559  0.672234  0  3.851465  0
Si  Si11  1  0.11261485  0.26470555  0.54929214  1  2.680079  0  0.135277  0.672936  0  3.851716  0
Si  Si12  1  0.89591899  0.49985179  0.74994458  1  2.696888  0  0.132196  0.679339  0  3.874556  0
Si  Si13  1  0.10408092  0.50014804  0.25005634  1  2.696885  0  0.132151  0.679249  0  3.874613  0
H  H14  1  0.62210568  0.33641257  0.95731809  1  0.042684  0  0.104401  0.096252  0  0.999559  0
H  H15  1  0.60683395  0.26464007  0.87175309  1  0.082711  0  0.105542  0.110388  0  0.997071  0
H  H16  1  0.70322130  0.03267977  0.91266448  1  0.11407  0  0.102583  0.103791  0  1.038866  0
H  H17  1  0.71329236  0.10082205  0.99870441  1  0.07523  0  0.099066  0.092986  0  1.021266  0
H  H18  1  0.42799301  0.16723290  0.98354819  1  0.058617  0  0.09513  0.087882  0  1.033153  0
H  H19  1  0.20833398  0.08440418  0.99600796  1  0.056972  0  0.097292  0.096152  0  1.004279  0
H  H20  1  0.28250935  0.15809819  0.14921139  1  0.103105  0  0.09589  0.108223  0  1.036893  0
H  H21  1  0.50250282  0.24038151  0.13718711  1  0.053934  0  0.0951  0.083893  0  1.023815  0
H  H22  1  0.07863221  0.02168079  0.11177350  1  0.046765  0  0.094862  0.139094  0  0.988532  0
H  H23  1  0.05404530  0.11944978  0.08969036  1  0.061656  0  0.092928  0.135812  0  1.006093  0
H  H24  1  0.04450367  0.01387097  0.04917809  1  0.01489  0  0.087284  0.115943  0  1.017011  0
H  H25  1  0.55404336  0.07224279  0.09084489  1  0.045653  0  0.097144  0.09  0  1.03472  0
H  H26  1  0.64415608  0.99695705  0.14609023  1  0.091147  0  0.101203  0.108859  0  1.013298  0
H  H27  1  0.99101144  0.24967837  0.14913215  1  0.101758  0  0.105567  0.111187  0  1.009805  0
H  H28  1  0.90166633  0.32705096  0.09516041  1  0.074801  0  0.096754  0.089455  0  1.031591  0
H  H29  1  0.67346736  0.42113387  0.13352902  1  0.043124  0  0.09747  0.086323  0  1.010351  0
H  H30  1  0.81410920  0.59840314  0.15433163  1  0.055175  0  0.097989  0.10151  0  1.001421  0
H  H31  1  0.97283225  0.59408082  0.01699066  1  0.03037  0  0.096486  0.094994  0  1.021549  0
H  H32  1  0.83503143  0.41614026  0.99639641  1  0.051519  0  0.092818  0.075012  0  1.062864  0
H  H33  1  0.02307950  0.73578757  0.13655267  1  0.045873  0  0.087255  0.126595  0  1.03764  0
H  H34  1  0.06443108  0.74058954  0.07575709  1  0.048531  0  0.087729  0.126265  0  1.021023  0
H  H35  1  0.93782446  0.76625779  0.09480193  1  0.029968  0  0.094196  0.132443  0  0.983564  0
H  H36  1  0.98053890  0.69241414  0.70648218  1  0.064787  0  0.098997  0.091593  0  1.01835  0
H  H37  1  0.18388150  0.83579719  0.70741622  1  0.10591  0  0.099722  0.099344  0  1.057257  0
H  H38  1  0.34271651  0.69312410  0.79355901  1  0.074582  0  0.100657  0.099509  0  1.018046  0
H  H39  1  0.14014823  0.55087744  0.79474927  1  0.055674  0  0.098125  0.086935  0  1.030756  0
H  H40  1  0.92691010  0.46512619  0.85030858  1  0.035172  0  0.096884  0.086162  0  1.028607  0
H  H41  1  0.85943998  0.51525119  0.92771483  1  0.045448  0  0.095395  0.095116  0  1.027908  0
H  H42  1  0.64773186  0.63869157  0.85560925  1  0.050107  0  0.09391  0.095257  0  1.032187  0
H  H43  1  0.71397902  0.58800212  0.77726248  1  0.038303  0  0.094176  0.081973  0  1.016317  0
H  H44  1  0.77546024  0.62839652  0.97388796  1  0.035291  0  0.088341  0.125913  0  1.010629  0
H  H45  1  0.68079977  0.67296021  0.94366434  1  0.057526  0  0.087498  0.127375  0  1.043943  0
H  H46  1  0.62314174  0.54694015  0.95501743  1  0.045257  0  0.092323  0.12926  0  0.987706  0
H  H47  1  0.41419704  0.20195765  0.74485294  1  0.581971  0  0.30886  0.393011  0  0.900238  0
H  H48  1  0.78534155  0.66365230  0.54271013  1  0.039298  0  0.104058  0.095463  0  1.00011  0
H  H49  1  0.84201700  0.73536766  0.62826778  1  0.089769  0  0.105886  0.110875  0  0.997373  0
H  H50  1  0.17037954  0.96720992  0.58726416  1  0.125249  0  0.10279  0.10374  0  1.0388  0
H  H51  1  0.11227286  0.89904164  0.50122701  1  0.077189  0  0.099125  0.092745  0  1.021145  0
H  H52  1  0.76055949  0.83321406  0.51649797  1  0.062831  0  0.094561  0.087485  0  1.034239  0
H  H53  1  0.62377323  0.91607693  0.50395570  1  0.06436  0  0.097207  0.096576  0  1.004433  0
H  H54  1  0.62447080  0.84202132  0.35077586  1  0.105436  0  0.095801  0.107622  0  1.037372  0
H  H55  1  0.76214725  0.75976896  0.36289137  1  0.049501  0  0.095277  0.084054  0  1.02441  0
H  H56  1  0.55673732  0.97841546  0.38814891  1  0.044006  0  0.094777  0.139151  0  0.988842  0
H  H57  1  0.43444341  0.88059984  0.41025144  1  0.066755  0  0.092823  0.13577  0  1.005806  0
H  H58  1  0.53036487  0.98623505  0.45074614  1  0.030706  0  0.087142  0.116188  0  1.016793  0
H  H59  1  0.98180600  0.92809426  0.40916636  1  0.06227  0  0.096953  0.090118  0  1.034434  0
H  H60  1  0.14744299  0.00320522  0.35394033  1  0.08947  0  0.101266  0.108701  0  1.013814  0
H  H61  1  0.24093481  0.75018359  0.35095397  1  0.089073  0  0.105181  0.110898  0  1.009796  0
H  H62  1  0.07394318  0.67298994  0.40487931  1  0.062684  0  0.096914  0.089086  0  1.03229  0
H  H63  1  0.75233260  0.57891089  0.36641374  1  0.039316  0  0.097241  0.085945  0  1.010264  0
H  H64  1  0.71572763  0.40165628  0.34562127  1  0.054969  0  0.098076  0.10193  0  1.001054  0
H  H65  1  0.87855418  0.40602720  0.48298320  1  0.061878  0  0.096437  0.094974  0  1.020753  0
H  H66  1  0.91874135  0.58399083  0.50356274  1  0.061957  0  0.092666  0.07461  0  1.062375  0
H  H67  1  0.78735265  0.26430914  0.36341673  1  0.042837  0  0.087529  0.1269  0  1.037299  0
H  H68  1  0.82386817  0.25953949  0.42422396  1  0.040285  0  0.087793  0.126201  0  1.020583  0
H  H69  1  0.67161215  0.23381899  0.40517334  1  0.035921  0  0.094319  0.132319  0  0.983201  0
H  H70  1  0.78824575  0.30752861  0.79342636  1  0.072955  0  0.098892  0.091112  0  1.018928  0
H  H71  1  0.84828843  0.16423940  0.79259675  1  0.11024  0  0.099564  0.099103  0  1.057309  0
H  H72  1  0.14980549  0.30674323  0.70635970  1  0.076104  0  0.100515  0.099482  0  1.018394  0
H  H73  1  0.08933474  0.44888148  0.70505451  1  0.060028  0  0.098414  0.087082  0  1.031245  0
H  H74  1  0.96164217  0.53438897  0.64972069  1  0.033363  0  0.096672  0.085819  0  1.028435  0
H  H75  1  0.84439302  0.48457769  0.57227163  1  0.045807  0  0.095506  0.095384  0  1.027993  0
H  H76  1  0.50888916  0.36137138  0.64424995  1  0.02613  0  0.093891  0.095538  0  1.032115  0
H  H77  1  0.62554334  0.41179347  0.72264259  1  0.057154  0  0.094331  0.081732  0  1.015977  0
H  H78  1  0.64732614  0.37178246  0.52600596  1  0.051118  0  0.088875  0.12634  0  1.010462  0
H  H79  1  0.50801172  0.32709037  0.55620689  1  0.055266  0  0.087353  0.127448  0  1.04318  0
H  H80  1  0.57645336  0.45318821  0.54496969  1  0.039301  0  0.091982  0.128908  0  0.987909  0
H  H81  1  0.71208004  0.79791169  0.75513418  1  0.578641  0  0.308677  0.392608  0  0.90095  0
H  H82  1  0.37789340  0.66358726  0.04268069  1  0.042626  0  0.104416  0.096252  0  0.999547  0
H  H83  1  0.39317013  0.73535976  0.12824605  1  0.082606  0  0.105526  0.110331  0  0.997119  0
H  H84  1  0.29677982  0.96732080  0.08733684  1  0.114064  0  0.102608  0.103828  0  1.03887  0
H  H85  1  0.28670868  0.89918002  0.00129630  1  0.076819  0  0.099066  0.09298  0  1.021256  0
H  H86  1  0.57200486  0.83276618  0.01645375  1  0.058575  0  0.095174  0.087924  0  1.033082  0
H  H87  1  0.79166693  0.91559265  0.00399419  1  0.056967  0  0.097291  0.096207  0  1.004186  0
H  H88  1  0.71749261  0.84190238  0.85078958  1  0.103147  0  0.095888  0.108199  0  1.036849  0
H  H89  1  0.49749729  0.75962206  0.86281476  1  0.053889  0  0.095099  0.083836  0  1.023853  0
H  H90  1  0.92136629  0.97831454  0.88822820  1  0.046859  0  0.094901  0.139153  0  0.988344  0
H  H91  1  0.94595282  0.88054481  0.91031094  1  0.06164  0  0.092902  0.135755  0  1.006136  0
H  H92  1  0.95549612  0.98612362  0.95082285  1  0.014913  0  0.087251  0.115861  0  1.017017  0
H  H93  1  0.44595451  0.92775629  0.90915135  1  0.045417  0  0.097078  0.089914  0  1.034823  0
H  H94  1  0.35584067  0.00303979  0.85390551  1  0.09106  0  0.101208  0.108748  0  1.013364  0
H  H95  1  0.00898697  0.75031846  0.85086751  1  0.101727  0  0.105544  0.111168  0  1.009793  0
H  H96  1  0.09833562  0.67294961  0.90484020  1  0.074764  0  0.096742  0.089439  0  1.031606  0
H  H97  1  0.32653385  0.57886520  0.86647078  1  0.043105  0  0.097464  0.086295  0  1.010384  0
H  H98  1  0.18589201  0.40159594  0.84566781  1  0.055331  0  0.097949  0.101454  0  1.00146  0
H  H99  1  0.02717175  0.40592050  0.98300857  1  0.030436  0  0.096445  0.094932  0  1.021475  0
H  H100  1  0.16497136  0.58386032  0.00360349  1  0.051539  0  0.092814  0.075008  0  1.062893  0
H  H101  1  0.97691966  0.26421075  0.86344815  1  0.045927  0  0.08727  0.126615  0  1.037633  0
H  H102  1  0.93557079  0.25941253  0.92424433  1  0.048504  0  0.087736  0.126251  0  1.021036  0
H  H103  1  0.06217545  0.23374204  0.90519899  1  0.030079  0  0.094171  0.13237  0  0.983628  0
H  H104  1  0.01945868  0.30758269  0.29351855  1  0.064778  0  0.099017  0.091583  0  1.01834  0
H  H105  1  0.81611433  0.16420114  0.29258354  1  0.10592  0  0.099738  0.099369  0  1.057236  0
H  H106  1  0.65728740  0.30687872  0.20644103  1  0.07454  0  0.100619  0.099436  0  1.018139  0
H  H107  1  0.85985568  0.44912537  0.20525184  1  0.05569  0  0.098119  0.086922  0  1.030752  0
H  H108  1  0.07309456  0.53487812  0.14969120  1  0.035192  0  0.096891  0.086201  0  1.028597  0
H  H109  1  0.14056514  0.48475237  0.07228526  1  0.045455  0  0.095413  0.095144  0  1.027846  0
H  H110  1  0.35226311  0.36130003  0.14439008  1  0.050072  0  0.093873  0.095262  0  1.0322  0
H  H111  1  0.28601744  0.41199247  0.22273703  1  0.039289  0  0.094157  0.081994  0  1.016371  0
H  H112  1  0.22453538  0.37159807  0.02611156  1  0.035384  0  0.088367  0.125946  0  1.010582  0
H  H113  1  0.31919781  0.32703662  0.05633496  1  0.057571  0  0.087477  0.127354  0  1.044044  0
H  H114  1  0.37685547  0.45305593  0.04498147  1  0.045318  0  0.092312  0.129215  0  0.98777  0
H  H115  1  0.58580157  0.79804293  0.25514839  1  0.58199  0  0.308885  0.393057  0  0.900177  0
H  H116  1  0.21466087  0.33634753  0.45728972  1  0.039262  0  0.104077  0.09549  0  1.000122  0
H  H117  1  0.15798562  0.26463590  0.37173195  1  0.089719  0  0.105935  0.110918  0  0.99728  0
H  H118  1  0.82962179  0.03279440  0.41273456  1  0.125285  0  0.102769  0.103713  0  1.038871  0
H  H119  1  0.88773094  0.10095595  0.49877163  1  0.077321  0  0.099158  0.092818  0  1.021102  0
H  H120  1  0.23944293  0.16678577  0.48350259  1  0.062875  0  0.094592  0.087523  0  1.034213  0
H  H121  1  0.37622443  0.08391840  0.49604600  1  0.064595  0  0.097225  0.096569  0  1.00444  0
H  H122  1  0.37553078  0.15797851  0.64922541  1  0.105375  0  0.095805  0.107623  0  1.037439  0
H  H123  1  0.23785750  0.24023386  0.63711010  1  0.04945  0  0.095301  0.084091  0  1.024368  0
H  H124  1  0.44326268  0.02158287  0.61185192  1  0.043942  0  0.094802  0.139146  0  0.988789  0
H  H125  1  0.56555537  0.11939774  0.58974969  1  0.06652  0  0.09282  0.135779  0  1.005758  0
H  H126  1  0.46963345  0.01376327  0.54925504  1  0.030748  0  0.087159  0.116226  0  1.01674  0
H  H127  1  0.01819362  0.07190332  0.59083406  1  0.06229  0  0.096941  0.090126  0  1.034414  0
H  H128  1  0.85255396  0.99679536  0.64605922  1  0.089491  0  0.101268  0.108708  0  1.013848  0
H  H129  1  0.75906380  0.24981698  0.64904522  1  0.088958  0  0.105179  0.110895  0  1.009793  0
H  H130  1  0.92605923  0.32700988  0.59512054  1  0.062721  0  0.096923  0.089115  0  1.032256  0
H  H131  1  0.24766835  0.42109268  0.63358564  1  0.039395  0  0.097207  0.085854  0  1.010363  0
H  H132  1  0.28427127  0.59834654  0.65437734  1  0.054907  0  0.098077  0.10191  0  1.001083  0
H  H133  1  0.12144472  0.59397562  0.51701506  1  0.061977  0  0.096376  0.094936  0  1.020731  0
H  H134  1  0.08125931  0.41601049  0.49643578  1  0.061906  0  0.092676  0.074635  0  1.062337  0
H  H135  1  0.21264634  0.73569218  0.63658321  1  0.04284  0  0.087492  0.126881  0  1.037277  0
H  H136  1  0.17613149  0.74046482  0.57577653  1  0.040244  0  0.087779  0.126192  0  1.020673  0
H  H137  1  0.32838767  0.76618233  0.59482661  1  0.036777  0  0.094352  0.132399  0  0.983293  0
H  H138  1  0.21175483  0.69247421  0.20657403  1  0.072822  0  0.098901  0.091105  0  1.018907  0
H  H139  1  0.15170814  0.83576043  0.20740488  1  0.110011  0  0.099566  0.099137  0  1.057229  0
H  H140  1  0.85019180  0.69325136  0.29364125  1  0.07609  0  0.10053  0.099476  0  1.018331  0
H  H141  1  0.91066543  0.55111386  0.29494577  1  0.059986  0  0.098394  0.087054  0  1.031208  0
H  H142  1  0.03835921  0.46560711  0.35027963  1  0.033398  0  0.096676  0.085807  0  1.02839  0
H  H143  1  0.15560881  0.51541764  0.42772865  1  0.045756  0  0.095489  0.095367  0  1.027952  0
H  H144  1  0.49111178  0.63863219  0.35575014  1  0.025986  0  0.093928  0.095601  0  1.032131  0
H  H145  1  0.37445816  0.58820785  0.27735736  1  0.057107  0  0.094307  0.081672  0  1.015945  0
H  H146  1  0.35267656  0.62821961  0.47399581  1  0.051114  0  0.088884  0.126358  0  1.010418  0
H  H147  1  0.49199394  0.67291095  0.44379270  1  0.055195  0  0.087389  0.12751  0  1.043117  0
H  H148  1  0.42354834  0.54681685  0.45502907  1  0.039353  0  0.091973  0.12898  0  0.987972  0
H  H149  1  0.28791699  0.20208738  0.24486705  1  0.578655  0  0.308682  0.39262  0  0.900943  0
C  C150  1  0.66762571  0.22326179  0.98451327  1  -0.690148  0  -0.05177  -0.198081  0  3.957635  0
C  C151  1  0.63992141  0.26964538  0.94797618  1  -0.067028  0  -0.081804  -0.073465  0  4.022008  0
C  C152  1  0.63147446  0.23020369  0.89988023  1  0.016156  0  -0.081815  -0.090014  0  3.961735  0
C  C153  1  0.65330702  0.14415916  0.88726512  1  -0.069224  0  -0.017899  -0.039905  0  3.976293  0
C  C154  1  0.68594362  0.09929899  0.92292895  1  -0.018152  0  -0.079469  -0.084693  0  3.944957  0
C  C155  1  0.69169072  0.13824963  0.97110418  1  -0.0323  0  -0.080462  -0.067236  0  3.993972  0
C  C156  1  0.63586979  0.09809939  0.83619310  1  1.529851  0  0.228821  0.603815  0  4.171259  0
C  C157  1  0.48372584  0.21372618  0.05912972  1  -0.692256  0  -0.067437  -0.233895  0  3.999637  0
C  C158  1  0.39744268  0.16782973  0.02014867  1  -0.036364  0  -0.088812  -0.063838  0  4.0406  0
C  C159  1  0.27261804  0.12028474  0.02716057  1  -0.113682  0  -0.096256  -0.156174  0  3.979349  0
C  C160  1  0.22873704  0.11644823  0.07348457  1  -0.044771  0  -0.004889  0.177447  0  3.966536  0
C  C161  1  0.31423020  0.16197615  0.11270046  1  -0.01025  0  -0.094834  -0.151205  0  3.948061  0
C  C162  1  0.43890149  0.20929450  0.10561462  1  -0.087942  0  -0.086089  -0.065798  0  4.038779  0
C  C163  1  0.09449998  0.06482653  0.08127342  1  -0.058095  0  -0.237775  -0.413581  0  3.96019  0
C  C164  1  0.72136202  0.20511542  0.08896829  1  -0.68885  0  -0.054451  -0.202363  0  3.970211  0
C  C165  1  0.65006302  0.11124553  0.10319756  1  -0.02192  0  -0.084431  -0.066601  0  4.007447  0
C  C166  1  0.69969650  0.06845046  0.13392338  1  0.003695  0  -0.085765  -0.088427  0  3.948122  0
C  C167  1  0.82261188  0.11867438  0.15045960  1  -0.164059  0  -0.019742  -0.043291  0  3.981432  0
C  C168  1  0.89596245  0.21095945  0.13558546  1  0.023929  0  -0.078965  -0.081455  0  3.946615  0
C  C169  1  0.84494011  0.25372167  0.10532614  1  -0.014121  0  -0.083388  -0.067759  0  4.004328  0
C  C170  1  0.87296718  0.07661337  0.18604016  1  1.545575  0  0.224554  0.60439  0  4.179987  0
C  C171  1  0.74195391  0.40406594  0.06291376  1  -0.66797  0  -0.06734  -0.229737  0  3.998279  0
C  C172  1  0.73837722  0.45819972  0.10737166  1  -0.037747  0  -0.085467  -0.056031  0  4.032183  0
C  C173  1  0.81768758  0.55860575  0.11928951  1  -0.054706  0  -0.096162  -0.154779  0  3.961901  0
C  C174  1  0.90322548  0.60971726  0.08699630  1  -0.080315  0  -0.005749  0.180176  0  3.96991  0
C  C175  1  0.90691288  0.55626876  0.04268543  1  -0.012824  0  -0.098682  -0.157428  0  3.976183  0
C  C176  1  0.82832171  0.45553611  0.03102175  1  -0.073896  0  -0.08991  -0.071626  0  4.05474  0
C  C177  1  0.98688519  0.71852106  0.09909283  1  -0.048066  0  -0.240395  -0.413016  0  3.957684  0
C  C178  1  0.04627017  0.61017309  0.74965313  1  -0.674342  0  -0.050658  -0.197319  0  3.954969  0
C  C179  1  0.05923320  0.69180540  0.72575396  1  -0.057633  0  -0.08211  -0.06109  0  4.000269  0
C  C180  1  0.17220987  0.77212090  0.72591950  1  -0.033009  0  -0.087946  -0.096028  0  3.974285  0
C  C181  1  0.27448825  0.77141751  0.74963950  1  -0.060866  0  -0.020859  -0.043938  0  3.992921  0
C  C182  1  0.26257506  0.69160672  0.77458680  1  -0.052917  0  -0.083639  -0.089334  0  3.969878  0
C  C183  1  0.14901533  0.61245944  0.77491512  1  0.032554  0  -0.08089  -0.065087  0  4.012364  0
C  C184  1  0.39501071  0.85629738  0.74867273  1  1.530654  0  0.224001  0.606431  0  4.177374  0
C  C185  1  0.82382228  0.52066603  0.80715742  1  -0.672269  0  -0.068411  -0.238145  0  4.007858  0
C  C186  1  0.86382311  0.50168196  0.85059223  1  -0.026392  0  -0.08634  -0.058804  0  4.029263  0
C  C187  1  0.82602823  0.53040192  0.89466831  1  -0.052971  0  -0.097345  -0.155266  0  3.966685  0
C  C188  1  0.74688518  0.57935653  0.89735428  1  -0.041722  0  -0.005446  0.182055  0  3.960782  0
C  C189  1  0.70730903  0.59887975  0.85421106  1  -0.027545  0  -0.098677  -0.15246  0  3.965247  0
C  C190  1  0.74508693  0.57018086  0.81006294  1  -0.08645  0  -0.090851  -0.065013  0  4.054859  0
C  C191  1  0.70492423  0.60905789  0.94489812  1  -0.06958  0  -0.23996  -0.413879  0  3.959807  0
C  C192  1  0.94407956  0.77674563  0.51547150  1  -0.620005  0  -0.051453  -0.197402  0  3.95774  0
C  C193  1  0.86996325  0.73039526  0.55202595  1  -0.116384  0  -0.081492  -0.072255  0  4.021543  0
C  C194  1  0.90102323  0.76982002  0.60011352  1  0.040097  0  -0.081926  -0.090374  0  3.963567  0
C  C195  1  0.00896020  0.85581184  0.61270211  1  -0.046069  0  -0.018247  -0.041175  0  3.979304  0
C  C196  1  0.08645200  0.90062840  0.57702408  1  -0.058477  0  -0.079516  -0.083798  0  3.944773  0
C  C197  1  0.05322132  0.86167894  0.52885293  1  -0.073914  0  -0.080673  -0.067669  0  3.993744  0
C  C198  1  0.03781357  0.90184631  0.66376441  1  1.540377  0  0.228109  0.603001  0  4.170012  0
C  C199  1  0.76974934  0.78648329  0.44094566  1  -0.62801  0  -0.067464  -0.235161  0  4.001479  0
C  C200  1  0.72939752  0.83253696  0.47989492  1  -0.063832  0  -0.087323  -0.061937  0  4.041067  0
C  C201  1  0.65215492  0.88008791  0.47283436  1  -0.105866  0  -0.097106  -0.158082  0  3.978957  0
C  C202  1  0.61218706  0.88378280  0.42647746  1  -0.036556  0  -0.004355  0.178029  0  3.964829  0
C  C203  1  0.65227388  0.83822335  0.38730036  1  -0.045565  0  -0.094621  -0.150175  0  3.947002  0
C  C204  1  0.72951962  0.79084890  0.39443951  1  -0.116455  0  -0.086751  -0.066013  0  4.038234  0
C  C205  1  0.52947872  0.93529728  0.41865030  1  -0.072877  0  -0.237427  -0.413746  0  3.958523  0
C  C206  1  0.01589653  0.79506946  0.41102681  1  -0.644842  0  -0.054663  -0.203824  0  3.971015  0
C  C207  1  0.03874732  0.88899413  0.39682331  1  -0.030436  0  -0.084171  -0.06614  0  4.007573  0
C  C208  1  0.13128097  0.93169505  0.36610572  1  -0.035472  0  -0.085646  -0.088144  0  3.949451  0
C  C209  1  0.20382097  0.88131697  0.34958235  1  -0.07931  0  -0.019596  -0.042186  0  3.982404  0
C  C210  1  0.18468942  0.78901155  0.36447678  1  -0.01406  0  -0.079317  -0.083406  0  3.948836  0
C  C211  1  0.09077505  0.74635021  0.39471207  1  -0.044295  0  -0.083105  -0.065674  0  4.004574  0
C  C212  1  0.29631625  0.92333098  0.31401049  1  1.531019  0  0.225327  0.604212  0  4.180493  0
C  C213  1  0.83781066  0.59603971  0.43703719  1  -0.688233  0  -0.066999  -0.230425  0  3.999752  0
C  C214  1  0.78016038  0.54186856  0.39257745  1  -0.023151  0  -0.085334  -0.05556  0  4.032469  0
C  C215  1  0.75907548  0.44146992  0.38067217  1  -0.094349  0  -0.095896  -0.154657  0  3.961167  0
C  C216  1  0.79353322  0.39038675  0.41296554  1  -0.070545  0  -0.006317  0.178677  0  3.970683  0
C  C217  1  0.85057867  0.44385541  0.45727007  1  -0.025458  0  -0.098809  -0.157408  0  3.975574  0
C  C218  1  0.87267528  0.54458217  0.46893649  1  -0.065109  0  -0.089991  -0.070886  0  4.053821  0
C  C219  1  0.76841659  0.28160156  0.40087836  1  -0.036812  0  -0.240393  -0.412238  0  3.956994  0
C  C220  1  0.93613265  0.38965290  0.75017031  1  -0.629799  0  -0.050696  -0.197794  0  3.955186  0
C  C221  1  0.86753471  0.30809394  0.77413637  1  -0.121291  0  -0.082017  -0.060544  0  4.001521  0
C  C222  1  0.90027623  0.22784737  0.77404982  1  0.012697  0  -0.08781  -0.096007  0  3.974564  0
C  C223  1  0.00326836  0.22851985  0.75032975  1  -0.072903  0  -0.021057  -0.043369  0  3.992197  0
C  C224  1  0.07117548  0.30828794  0.72533923  1  -0.030323  0  -0.083063  -0.089152  0  3.969572  0
C  C225  1  0.03664029  0.38735953  0.72492911  1  -0.025549  0  -0.081598  -0.065391  0  4.012912  0
C  C226  1  0.03870601  0.14354081  0.75126375  1  1.547572  0  0.224644  0.606874  0  4.17764  0
C  C227  1  0.80282259  0.47896519  0.69280110  1  -0.687493  0  -0.068956  -0.239095  0  4.010954  0
C  C228  1  0.86197984  0.49790995  0.64939180  1  -0.034923  0  -0.08569  -0.057816  0  4.028276  0
C  C229  1  0.79567099  0.46938864  0.60529210  1  -0.10877  0  -0.097547  -0.156217  0  3.966087  0
C  C230  1  0.66756857  0.42053794  0.60256578  1  -0.010047  0  -0.005568  0.182644  0  3.961696  0
C  C231  1  0.60830160  0.40103157  0.64568454  1  -0.008845  0  -0.098629  -0.153386  0  3.96563  0
C  C232  1  0.67459808  0.42959993  0.68985921  1  -0.049475  0  -0.090869  -0.063805  0  4.054805  0
C  C233  1  0.59606569  0.39099318  0.55501611  1  -0.076787  0  -0.239932  -0.413995  0  3.960123  0
C  C234  1  0.33237774  0.77674178  0.01548682  1  -0.690091  0  -0.051781  -0.198237  0  3.95768  0
C  C235  1  0.36007888  0.73035519  0.05202443  1  -0.067115  0  -0.081802  -0.073364  0  4.021998  0
C  C236  1  0.36852824  0.76979838  0.10011941  1  0.016441  0  -0.081848  -0.090055  0  3.961822  0
C  C237  1  0.34669448  0.85584217  0.11273482  1  -0.069346  0  -0.017878  -0.039809  0  3.976136  0
C  C238  1  0.31405546  0.90070083  0.07707126  1  -0.018166  0  -0.079514  -0.084849  0  3.945  0
C  C239  1  0.30831123  0.86175095  0.02889607  1  -0.033906  0  -0.080457  -0.067116  0  3.993985  0
C  C240  1  0.36413216  0.90190118  0.16380679  1  1.5297  0  0.228761  0.603699  0  4.171305  0
C  C241  1  0.51627240  0.78627365  0.94087156  1  -0.692225  0  -0.067433  -0.233967  0  3.999791  0
C  C242  1  0.60255472  0.83217009  0.97985261  1  -0.036158  0  -0.088772  -0.06371  0  4.040495  0
C  C243  1  0.72737954  0.87971209  0.97284051  1  -0.113974  0  -0.096232  -0.156257  0  3.979099  0
C  C244  1  0.77126212  0.88355009  0.92651732  1  -0.044681  0  -0.004993  0.177303  0  3.966497  0
C  C245  1  0.68577037  0.83802666  0.88730101  1  -0.010237  0  -0.094846  -0.151143  0  3.947938  0
C  C246  1  0.56109741  0.79070832  0.89438685  1  -0.087949  0  -0.086079  -0.065776  0  4.038732  0
C  C247  1  0.90549731  0.93516806  0.91872894  1  -0.058233  0  -0.237739  -0.413462  0  3.960026  0
C  C248  1  0.27863893  0.79488814  0.91103144  1  -0.688812  0  -0.054466  -0.202378  0  3.970129  0
C  C249  1  0.34993736  0.88875355  0.89679939  1  -0.021901  0  -0.08426  -0.066365  0  4.007385  0
C  C250  1  0.30029838  0.93154264  0.86607106  1  0.004108  0  -0.085809  -0.088422  0  3.948222  0
C  C251  1  0.17738421  0.88131946  0.84953631  1  -0.164339  0  -0.019844  -0.0432  0  3.981424  0
C  C252  1  0.10403522  0.78903588  0.86441446  1  0.024015  0  -0.078829  -0.081368  0  3.946549  0
C  C253  1  0.15506239  0.74627666  0.89467362  1  -0.014062  0  -0.083412  -0.067813  0  4.004439  0
C  C254  1  0.12702603  0.92337972  0.81395677  1  1.545432  0  0.224555  0.604409  0  4.17977  0
C  C255  1  0.25804897  0.59593314  0.93708497  1  -0.668014  0  -0.067376  -0.229697  0  3.998335  0
C  C256  1  0.26162557  0.54180085  0.89262895  1  -0.037776  0  -0.0854  -0.055954  0  4.032193  0
C  C257  1  0.18231241  0.44139258  0.88071131  1  -0.055102  0  -0.096165  -0.154818  0  3.961978  0
C  C258  1  0.09677731  0.39028332  0.91300395  1  -0.080037  0  -0.005721  0.180263  0  3.969934  0
C  C259  1  0.09309279  0.44373256  0.95731523  1  -0.012699  0  -0.09862  -0.157377  0  3.975997  0
C  C260  1  0.17168229  0.54446522  0.96897749  1  -0.074033  0  -0.08992  -0.071664  0  4.054777  0
C  C261  1  0.01311593  0.28147951  0.90090778  1  -0.048183  0  -0.240395  -0.412954  0  3.957688  0
C  C262  1  0.95373178  0.38982748  0.25034855  1  -0.674168  0  -0.050712  -0.197367  0  3.955117  0
C  C263  1  0.94076838  0.30819442  0.27424660  1  -0.057885  0  -0.082122  -0.061018  0  4.000292  0
C  C264  1  0.82778846  0.22787743  0.27407989  1  -0.033004  0  -0.087942  -0.096061  0  3.974315  0
C  C265  1  0.72551362  0.22858456  0.25035978  1  -0.060957  0  -0.020788  -0.043965  0  3.992943  0
C  C266  1  0.73742560  0.30839460  0.22541208  1  -0.052709  0  -0.083617  -0.089115  0  3.969832  0
C  C267  1  0.85098745  0.38754113  0.22508584  1  0.032501  0  -0.08084  -0.065132  0  4.012428  0
C  C268  1  0.60499032  0.14370470  0.25132548  1  1.5307  0  0.223955  0.606351  0  4.17752  0
C  C269  1  0.17617688  0.47933230  0.19284233  1  -0.672289  0  -0.068403  -0.237978  0  4.007754  0
C  C270  1  0.13617960  0.49832011  0.14940776  1  -0.026274  0  -0.086394  -0.058941  0  4.029196  0
C  C271  1  0.17397381  0.46959716  0.10533078  1  -0.052807  0  -0.097327  -0.155288  0  3.966639  0
C  C272  1  0.25311278  0.42064105  0.10264578  1  -0.042441  0  -0.005457  0.182101  0  3.960725  0
C  C273  1  0.29269030  0.40111558  0.14578850  1  -0.026664  0  -0.098571  -0.152402  0  3.965176  0
C  C274  1  0.25490749  0.42981298  0.18993618  1  -0.087805  0  -0.090879  -0.065182  0  4.055048  0
C  C275  1  0.29507260  0.39093744  0.05510108  1  -0.069816  0  -0.239962  -0.413863  0  3.959878  0
C  C276  1  0.05592036  0.22325419  0.48452800  1  -0.620015  0  -0.051467  -0.197321  0  3.957627  0
C  C277  1  0.13003954  0.26960531  0.44797502  1  -0.116576  0  -0.081464  -0.072261  0  4.021577  0
C  C278  1  0.09897764  0.23018505  0.39988631  1  0.040041  0  -0.082002  -0.090497  0  3.963565  0
C  C279  1  0.99103753  0.14419696  0.38729688  1  -0.045826  0  -0.018304  -0.041157  0  3.979381  0
C  C280  1  0.91354766  0.09937592  0.42297463  1  -0.058553  0  -0.07944  -0.08369  0  3.944757  0
C  C281  1  0.94678034  0.13831939  0.47114611  1  -0.07397  0  -0.080694  -0.067812  0  3.993729  0
C  C282  1  0.96218704  0.09816324  0.33623392  1  1.540459  0  0.228203  0.603143  0  4.169882  0
C  C283  1  0.23025410  0.21352028  0.55905550  1  -0.628053  0  -0.067504  -0.235238  0  4.001471  0
C  C284  1  0.27060202  0.16746212  0.52010631  1  -0.063802  0  -0.08738  -0.062012  0  4.041167  0
C  C285  1  0.34784499  0.11991191  0.52716621  1  -0.10607  0  -0.097051  -0.157947  0  3.978965  0
C  C286  1  0.38781368  0.11621703  0.57352310  1  -0.036371  0  -0.004346  0.178054  0  3.964713  0
C  C287  1  0.34772557  0.16177722  0.61270096  1  -0.045532  0  -0.094692  -0.150336  0  3.947114  0
C  C288  1  0.27048550  0.20915466  0.60556271  1  -0.116435  0  -0.086735  -0.065922  0  4.038175  0
C  C289  1  0.47051998  0.06470180  0.58135129  1  -0.072802  0  -0.237461  -0.41379  0  3.958394  0
C  C290  1  0.98410430  0.20492887  0.58897294  1  -0.644527  0  -0.054616  -0.203769  0  3.971083  0
C  C291  1  0.96125389  0.11100494  0.60317721  1  -0.030456  0  -0.084175  -0.066165  0  4.0075  0
C  C292  1  0.86871681  0.06830552  0.63389489  1  -0.03554  0  -0.085623  -0.088144  0  3.949405  0
C  C293  1  0.79617607  0.11868211  0.65041710  1  -0.07933  0  -0.019613  -0.042126  0  3.982446  0
C  C294  1  0.81531078  0.21099052  0.63552251  1  -0.014281  0  -0.07927  -0.083369  0  3.948696  0
C  C295  1  0.90922820  0.25364962  0.60528743  1  -0.044168  0  -0.083185  -0.065783  0  4.004566  0
C  C296  1  0.70368228  0.07667109  0.68598986  1  1.530986  0  0.225219  0.60406  0  4.180818  0
C  C297  1  0.16218871  0.40396236  0.56296173  1  -0.688183  0  -0.067017  -0.230352  0  3.999889  0
C  C298  1  0.21983815  0.45813352  0.60742147  1  -0.023122  0  -0.085368  -0.055683  0  4.032539  0
C  C299  1  0.24092184  0.55853140  0.61932778  1  -0.094287  0  -0.095883  -0.154501  0  3.960993  0
C  C300  1  0.20646614  0.60961532  0.58703445  1  -0.070402  0  -0.006311  0.178683  0  3.970555  0
C  C301  1  0.14942032  0.55614591  0.54272952  1  -0.025818  0  -0.098698  -0.157346  0  3.975476  0
C  C302  1  0.12732371  0.45541915  0.53106203  1  -0.065121  0  -0.089968  -0.07089  0  4.053816  0
C  C303  1  0.23158473  0.71840275  0.59912106  1  -0.037635  0  -0.240392  -0.412322  0  3.957027  0
C  C304  1  0.06386689  0.61034618  0.24983021  1  -0.629729  0  -0.05065  -0.197697  0  3.955074  0
C  C305  1  0.13246557  0.69190663  0.22586460  1  -0.121129  0  -0.082019  -0.060547  0  4.001473  0
C  C306  1  0.09972443  0.77215395  0.22595226  1  0.012444  0  -0.087804  -0.095993  0  3.974371  0
C  C307  1  0.99672663  0.77147848  0.24967143  1  -0.072539  0  -0.021014  -0.043367  0  3.992149  0
C  C308  1  0.92882415  0.69170964  0.27466084  1  -0.030107  0  -0.083092  -0.089145  0  3.969565  0
C  C309  1  0.96335775  0.61263655  0.27507228  1  -0.025637  0  -0.081635  -0.065441  0  4.012833  0
C  C310  1  0.96128824  0.85645603  0.24873662  1  1.547638  0  0.22454  0.606786  0  4.177255  0
C  C311  1  0.19717945  0.52103389  0.30719977  1  -0.68755  0  -0.069082  -0.23922  0  4.010909  0
C  C312  1  0.13802358  0.50208688  0.35060858  1  -0.034912  0  -0.085638  -0.057745  0  4.028271  0
C  C313  1  0.20433318  0.53060969  0.39470837  1  -0.108713  0  -0.097516  -0.156171  0  3.966078  0
C  C314  1  0.33243422  0.57946263  0.39743376  1  -0.010031  0  -0.005639  0.182582  0  3.961586  0
C  C315  1  0.39170156  0.59896975  0.35431541  1  -0.009307  0  -0.098631  -0.15343  0  3.965736  0
C  C316  1  0.32540287  0.57040364  0.31014160  1  -0.048816  0  -0.090809  -0.063687  0  4.054799  0
C  C317  1  0.40393952  0.60900889  0.44498460  1  -0.076801  0  -0.239912  -0.414119  0  3.959982  0
O  O318  1  0.57250228  0.12375061  0.80847479  1  -1.173304  0  -0.316835  -0.574183  0  2.396791  0
O  O319  1  0.68443667  0.03664284  0.82419472  1  -1.167925  0  -0.307329  -0.544315  0  2.368652  0
O  O320  1  0.98771796  0.12035723  0.19671573  1  -1.157934  0  -0.311277  -0.550841  0  2.381076  0
O  O321  1  0.79776096  0.00044165  0.20364820  1  -1.190559  0  -0.322174  -0.583659  0  2.40903  0
O  O322  1  0.39641120  0.93291155  0.73139021  1  -1.184016  0  -0.317284  -0.564016  0  2.392735  0
O  O323  1  0.48823273  0.84623351  0.76493616  1  -1.170317  0  -0.318466  -0.56213  0  2.355292  0
O  O324  1  0.38823823  0.13291234  0.73045153  1  -1.203402  0  -0.57631  -0.822263  0  2.135741  0
O  O325  1  0.94892208  0.87613149  0.69154795  1  -1.178718  0  -0.317222  -0.57428  0  2.396768  0
O  O326  1  0.14787204  0.96333026  0.67568060  1  -1.175537  0  -0.306421  -0.543223  0  2.367334  0
O  O327  1  0.36742586  0.87965357  0.30338090  1  -1.159012  0  -0.31147  -0.550114  0  2.380119  0
O  O328  1  0.29723287  0.99943605  0.29635386  1  -1.180681  0  -0.322481  -0.584177  0  2.40911  0
O  O329  1  0.96336942  0.06694934  0.76854143  1  -1.188768  0  -0.317726  -0.564443  0  2.393548  0
O  O330  1  0.14190584  0.15347307  0.73495008  1  -1.173126  0  -0.318632  -0.562219  0  2.356133  0
O  O331  1  0.75517012  0.86699319  0.76948351  1  -1.196456  0  -0.576139  -0.821907  0  2.136193  0
O  O332  1  0.42749930  0.87624921  0.19152435  1  -1.173067  0  -0.316835  -0.574136  0  2.396822  0
O  O333  1  0.31556249  0.96335549  0.17580717  1  -1.168261  0  -0.307278  -0.544263  0  2.368601  0
O  O334  1  0.01227542  0.87963287  0.80328136  1  -1.157921  0  -0.311276  -0.550894  0  2.38109  0
O  O335  1  0.20222903  0.99955668  0.79635013  1  -1.190429  0  -0.322147  -0.583685  0  2.40887  0
O  O336  1  0.60358175  0.06708603  0.26860630  1  -1.18395  0  -0.31728  -0.563991  0  2.393007  0
O  O337  1  0.51177035  0.15376932  0.23505996  1  -1.170408  0  -0.318477  -0.562116  0  2.355236  0
O  O338  1  0.61176084  0.86708748  0.26955010  1  -1.203286  0  -0.576309  -0.822285  0  2.135633  0
O  O339  1  0.05107878  0.12387358  0.30845081  1  -1.178769  0  -0.317285  -0.574379  0  2.396743  0
O  O340  1  0.85212653  0.03667855  0.32431698  1  -1.175487  0  -0.306441  -0.543263  0  2.367254  0
O  O341  1  0.63257380  0.12035075  0.69661782  1  -1.159005  0  -0.311387  -0.550022  0  2.380154  0
O  O342  1  0.70276844  0.00056826  0.70364842  1  -1.180605  0  -0.322433  -0.584125  0  2.40919  0
O  O343  1  0.03662594  0.93304973  0.23145909  1  -1.189014  0  -0.317677  -0.564421  0  2.393438  0
O  O344  1  0.85808944  0.84652750  0.26505053  1  -1.172951  0  -0.318585  -0.562156  0  2.355813  0
O  O345  1  0.24482654  0.13300514  0.23051767  1  -1.19634  0  -0.576159  -0.821959  0  2.136264  0
