# generated using pymatgen
data_CoH16C16(NO)4
_symmetry_space_group_name_H-M   'P 1'
_cell_length_a   7.58118428
_cell_length_b   8.65007443
_cell_length_c   13.29618744
_cell_angle_alpha   81.48127519
_cell_angle_beta   77.38427399
_cell_angle_gamma   72.83286469
_symmetry_Int_Tables_number   1
_chemical_formula_structural   CoH16C16(NO)4
_chemical_formula_sum   'Co2 H32 C32 N8 O8'
_cell_volume   809.69511794
_cell_formula_units_Z   2
loop_
 _symmetry_equiv_pos_site_id
 _symmetry_equiv_pos_as_xyz
  1  'x, y, z'
loop_
 _atom_site_type_symbol
 _atom_site_label
 _atom_site_symmetry_multiplicity
 _atom_site_fract_x
 _atom_site_fract_y
 _atom_site_fract_z
 _atom_site_occupancy
 _atom_site_hle17_ddec_charge
 _atom_site_hle17_ddec_spin_density
 _atom_site_hle17_ddec_sum_bond_order
 _atom_site_hle17_magmom
 _atom_site_hse06_10hf_ddec_charge
 _atom_site_hse06_10hf_ddec_spin_density
 _atom_site_hse06_10hf_ddec_sum_bond_order
 _atom_site_hse06_10hf_magmom
 _atom_site_hse06_ddec_charge
 _atom_site_hse06_ddec_spin_density
 _atom_site_hse06_ddec_sum_bond_order
 _atom_site_hse06_magmom
 _atom_site_pbe_cm5_charge
 _atom_site_pbe_ddec_charge
 _atom_site_pbe_ddec_spin_density
 _atom_site_pbe_ddec_sum_bond_order
 _atom_site_pbe_magmom
Co  Co0  1  0.20264434  0.79383962  0.78158710  1  0.938256  -2.858958  2.019227  -2.535  0.881369  -2.834774  2.466006  -2.593  0.97413  -2.882414  2.378545  -2.682  0.669906  0.809144  -2.789887  2.531363  -2.511
Co  Co1  1  0.79735849  0.20616561  0.21841172  1  0.938382  2.858957  2.019081  2.535  0.881557  2.834773  2.465883  2.593  0.97423  2.882414  2.378449  2.682  0.669899  0.809293  2.789898  2.531201  2.511
H  H2  1  0.53938506  0.10443979  0.81458113  1  0.098852  3.1e-05  0.971132  0.0  0.106094  3.8e-05  1.036839  0.0  0.109153  4.8e-05  1.036128  0.0  0.102873  0.103935  2.5e-05  1.037311  0.0
H  H3  1  0.46059782  0.89556149  0.18540684  1  0.098925  -3.1e-05  0.971221  0.0  0.106201  -3.8e-05  1.036877  0.0  0.109262  -4.8e-05  1.036167  0.0  0.102893  0.104041  -2.5e-05  1.03735  0.0
H  H4  1  0.78292226  0.86309358  0.07838964  1  0.107489  -0.000165  0.940099  0.0  0.117864  -0.000117  0.999172  0.0  0.12168  -7.8e-05  0.996837  0.0  0.106657  0.115055  -0.000156  1.000994  0.0
H  H5  1  0.21706245  0.13692604  0.92160317  1  0.107566  0.000165  0.940018  0.0  0.117895  0.000117  0.999145  0.0  0.121711  7.8e-05  0.996811  0.0  0.106599  0.115087  0.000156  1.000968  0.0
H  H6  1  0.83610423  0.56865645  0.67718580  1  0.090122  -0.000156  0.981839  0.0  0.097964  -0.000101  1.048215  0.0  0.101084  -3.2e-05  1.046686  0.0  0.098042  0.095718  -0.000177  1.049386  0.0
H  H7  1  0.16391711  0.43133319  0.32281985  1  0.090154  0.000156  0.981832  0.0  0.097919  0.000101  1.048317  0.0  0.101039  3.2e-05  1.046797  0.0  0.098008  0.095667  0.000177  1.049496  0.0
H  H8  1  0.32133014  0.53496143  0.43527143  1  0.108544  -2.8e-05  0.96362  0.0  0.114492  -2.5e-05  1.032013  0.0  0.118531  -2e-05  1.029191  0.0  0.103314  0.111507  -3.1e-05  1.034224  0.0
H  H9  1  0.67868654  0.46503424  0.56473194  1  0.10865  2.8e-05  0.963559  0.0  0.114587  2.5e-05  1.031956  0.0  0.118631  2e-05  1.029132  0.0  0.103353  0.111604  3.1e-05  1.034166  0.0
H  H10  1  0.51022895  0.74901163  0.92874592  1  0.090616  -0.000139  0.977417  -0.001  0.096758  -0.000274  1.049631  0.0  0.0976  -0.000206  1.050082  0.0  0.129562  0.095897  -0.000338  1.049772  0.0
H  H11  1  0.48976387  0.25099833  0.07126565  1  0.090574  0.000139  0.977451  0.001  0.096759  0.000274  1.049636  0.0  0.097598  0.000206  1.050088  0.0  0.129596  0.095947  0.000338  1.049731  0.0
H  H12  1  0.76258607  0.28238298  0.81998012  1  0.128765  -0.000323  0.984248  0.0  0.137266  -0.000327  1.043206  0.0  0.140978  -0.000217  1.040951  0.0  0.120864  0.134463  -0.000447  1.045007  0.0
H  H13  1  0.23739179  0.71761944  0.18003013  1  0.128953  0.000323  0.984006  0.0  0.137262  0.000328  1.043205  0.0  0.140973  0.000217  1.040952  0.0  0.120879  0.134448  0.000447  1.045  0.0
H  H14  1  0.42824320  0.42203638  0.74849981  1  0.102671  -0.000109  0.966292  -0.001  0.110734  -0.000192  1.028491  -0.001  0.112753  -0.000119  1.028275  0.0  0.116734  0.109197  -0.000266  1.028906  -0.001
H  H15  1  0.57172918  0.57796962  0.25151902  1  0.102549  0.000109  0.966536  0.001  0.110641  0.000192  1.028691  0.001  0.112652  0.000118  1.028478  0.0  0.116683  0.109103  0.000266  1.029106  0.001
H  H16  1  0.89558374  0.36770446  0.96705249  1  0.122416  -0.000195  0.948831  0.0  0.140449  -0.000187  1.012853  0.0  0.142709  -0.000193  1.011164  0.0  0.111292  0.138573  -0.00017  1.01426  0.0
H  H17  1  0.10440337  0.63230665  0.03295663  1  0.122467  0.000195  0.948721  0.0  0.140491  0.000187  1.012762  0.0  0.142702  0.000193  1.011129  0.0  0.111299  0.138615  0.00017  1.014173  0.0
H  H18  1  0.95100837  0.53509443  0.87982907  1  0.115948  0.000109  0.941027  0.0  0.133501  2.8e-05  1.006081  0.0  0.135197  7.6e-05  1.005104  0.0  0.106903  0.132  -3.2e-05  1.006998  0.0
H  H19  1  0.04897517  0.46491540  0.12017833  1  0.116003  -0.000109  0.94095  0.0  0.133502  -2.8e-05  1.006053  0.0  0.135191  -7.6e-05  1.005072  0.0  0.106902  0.132005  3.2e-05  1.006964  0.0
H  H20  1  0.79700063  0.57073950  0.00178124  1  0.109001  2e-06  0.938746  0.0  0.12934  -1.7e-05  1.001825  0.0  0.129693  -1.5e-05  1.003168  0.0  0.11019  0.128982  -2.1e-05  1.000978  0.0
H  H21  1  0.20298464  0.42926913  0.99822682  1  0.108996  -2e-06  0.938793  0.0  0.129349  1.7e-05  1.001836  0.0  0.129705  1.5e-05  1.003162  0.0  0.110244  0.128984  2.1e-05  1.001012  0.0
H  H22  1  0.61039536  0.78582800  0.67466780  1  0.097385  0.000104  0.955996  0.0  0.106546  -8.2e-05  1.020747  0.0  0.108578  -4.9e-05  1.018291  0.0  0.136931  0.104957  -0.000107  1.022748  0.0
H  H23  1  0.38961338  0.21417122  0.32533616  1  0.097381  -0.000104  0.955758  0.0  0.10656  8.2e-05  1.020509  0.0  0.108596  4.9e-05  1.018049  0.0  0.136936  0.104971  0.000107  1.022513  0.0
H  H24  1  0.43616267  0.28380710  0.57253376  1  0.132527  -0.000276  0.960609  0.0  0.139588  -0.000302  1.025311  0.0  0.142639  -0.000219  1.023682  0.0  0.126101  0.137327  -0.000389  1.026655  0.0
H  H25  1  0.56385313  0.71618490  0.42744825  1  0.132647  0.000276  0.96066  0.0  0.139719  0.000302  1.025304  0.0  0.14277  0.000219  1.023674  0.0  0.126169  0.13746  0.000389  1.026646  0.0
H  H26  1  0.12571193  0.18361975  0.68979534  1  0.113519  -6.1e-05  0.957401  0.0  0.121801  -0.000132  1.017063  -0.001  0.124212  -7.4e-05  1.01621  0.0  0.118678  0.120018  -0.000192  1.017893  -0.001
H  H27  1  0.87430667  0.81637473  0.31020190  1  0.113486  6.1e-05  0.95748  0.0  0.121795  0.000132  1.017098  0.001  0.124204  7.4e-05  1.016253  0.0  0.1187  0.120025  0.000192  1.017911  0.001
H  H28  1  0.76986232  0.14436763  0.51707108  1  0.11862  -0.000155  0.968021  0.0  0.138152  -0.000147  1.028705  0.0  0.139088  -0.000119  1.02899  0.0  0.110695  0.137348  -0.000178  1.028655  0.0
H  H29  1  0.23015337  0.85561216  0.48291659  1  0.118637  0.000154  0.968034  0.0  0.138197  0.000146  1.028659  0.0  0.139123  0.000119  1.028953  0.0  0.110681  0.137389  0.000177  1.028613  0.0
H  H30  1  0.85624846  0.00843982  0.62264033  1  0.125954  0.00013  0.951891  0.0  0.142535  9.9e-05  1.016565  0.0  0.143993  0.000114  1.015737  0.0  0.108057  0.141261  7.8e-05  1.017339  0.0
H  H31  1  0.14376870  0.99154365  0.37734682  1  0.125965  -0.000131  0.951953  0.0  0.142502  -9.9e-05  1.016669  0.0  0.143956  -0.000114  1.015849  0.0  0.108058  0.141226  -7.8e-05  1.017443  0.0
H  H32  1  0.82599766  0.93030837  0.51117529  1  0.103003  -9e-06  0.945097  0.0  0.121726  -4.7e-05  1.010118  0.0  0.121593  -3.6e-05  1.01213  0.0  0.105082  0.121703  -5.7e-05  1.008833  0.0
H  H33  1  0.17401078  0.06967254  0.48881763  1  0.103098  8e-06  0.945107  0.0  0.121764  4.7e-05  1.010141  0.0  0.121628  3.6e-05  1.012141  0.0  0.105143  0.121744  5.7e-05  1.008862  0.0
C  C34  1  0.87091082  0.95714648  0.87261431  1  0.631362  0.002666  3.904983  0.006  0.58963  -0.001681  4.195743  0.0  0.625515  -0.001055  4.191045  0.0  0.204168  0.564017  -0.002303  4.197831  0.0
C  C35  1  0.12907699  0.04287685  0.12736726  1  0.63098  -0.002667  3.90502  -0.006  0.589135  0.00168  4.195973  0.0  0.625018  0.001055  4.191287  0.0  0.20384  0.563521  0.002302  4.198052  0.0
C  C36  1  0.68052523  0.98179846  0.93983202  1  -0.061981  -0.002609  3.760794  -0.004  -0.0382  -0.000583  3.988606  -0.001  -0.043466  -0.00022  4.008447  0.0  -0.016708  -0.035202  -0.001006  3.976009  -0.001
C  C37  1  0.31946176  0.01820654  0.06015737  1  -0.061554  0.002607  3.760517  0.004  -0.037774  0.000583  3.98834  0.001  -0.04304  0.00022  4.008183  0.0  -0.0166  -0.034775  0.001005  3.975745  0.001
C  C38  1  0.52069019  0.05989821  0.89604267  1  -0.092043  0.000399  3.768202  0.0  -0.116906  -0.000556  4.024592  -0.001  -0.119066  -0.000381  4.046676  -0.001  -0.087675  -0.115216  -0.000706  4.009563  -0.001
C  C39  1  0.47929530  0.94010311  0.10394799  1  -0.092354  -0.000398  3.768272  0.0  -0.117257  0.000556  4.024704  0.001  -0.119416  0.00038  4.046781  0.001  -0.08768  -0.11557  0.000707  4.009683  0.001
C  C40  1  0.65846181  0.92203670  0.04447576  1  -0.083058  0.000736  3.740649  0.001  -0.106799  -0.00025  3.994602  0.0  -0.107361  -0.000212  4.01314  0.0  -0.086498  -0.106383  -0.000249  3.982362  0.0
C  C41  1  0.34152650  0.07796466  0.95551006  1  -0.083397  -0.000736  3.74055  -0.001  -0.10708  0.00025  3.994473  0.0  -0.107643  0.000213  4.01301  0.0  -0.086414  -0.106666  0.000249  3.982237  0.0
C  C42  1  0.17826666  0.62970349  0.62742052  1  0.604158  0.002916  3.949379  0.006  0.564114  -0.001285  4.243721  0.0  0.600199  -0.001039  4.238077  0.0  0.193271  0.538228  -0.001388  4.24677  0.001
C  C43  1  0.82175259  0.37028001  0.37258895  1  0.604202  -0.002917  3.949513  -0.006  0.564151  0.001285  4.243866  0.0  0.600238  0.001039  4.238221  0.0  0.193265  0.538262  0.001388  4.246916  -0.001
C  C44  1  0.08623281  0.56095467  0.56253711  1  -0.060345  -0.004262  3.767529  -0.006  -0.036041  -0.00147  3.991673  -0.002  -0.041954  -0.00081  4.01267  -0.001  -0.019061  -0.03256  -0.002259  3.978391  -0.003
C  C45  1  0.91379896  0.43901558  0.43747215  1  -0.060429  0.004263  3.767909  0.006  -0.036119  0.00147  3.992039  0.002  -0.042033  0.000811  4.013046  0.001  -0.019155  -0.032639  0.002259  3.978754  0.003
C  C46  1  0.90647205  0.53896723  0.59913588  1  -0.084696  0.001554  3.753596  0.002  -0.10583  -0.0  4.001361  0.0  -0.106638  -4.1e-05  4.0214  0.0  -0.091483  -0.105351  0.000127  3.988182  0.0
C  C47  1  0.09354711  0.46102481  0.40087055  1  -0.084646  -0.001556  3.753661  -0.002  -0.10573  0.0  4.001375  0.0  -0.106551  4.1e-05  4.021432  0.0  -0.091374  -0.105248  -0.000127  3.988189  0.0
C  C48  1  0.17989424  0.52111885  0.46257581  1  -0.078794  0.0011  3.733543  0.001  -0.100344  -0.000233  3.980111  0.0  -0.101819  -0.000204  4.000417  0.0  -0.085271  -0.099293  -0.000201  3.966589  0.0
C  C49  1  0.82012474  0.47886953  0.53743249  1  -0.079044  -0.001098  3.733733  -0.001  -0.100585  0.000233  3.980321  0.0  -0.102067  0.000203  4.00063  0.0  -0.085369  -0.099543  0.000201  3.966818  0.0
C  C50  1  0.53046434  0.64267533  0.88898306  1  0.149422  0.004205  3.641514  0.006  0.091696  -0.001477  3.910957  -0.001  0.106968  -0.00117  3.924772  -0.001  0.136316  0.081113  -0.001681  3.901793  -0.002
C  C51  1  0.46952392  0.35733213  0.11102853  1  0.149469  -0.004211  3.641482  -0.006  0.091729  0.001476  3.910928  0.001  0.107008  0.00117  3.92473  0.001  0.136385  0.081097  0.00168  3.901736  0.002
C  C52  1  0.65975255  0.39901010  0.83228075  1  -0.075119  -0.003104  3.663466  -0.004  -0.111496  -0.001238  3.913337  -0.002  -0.110471  -0.000756  3.930647  -0.001  -9.5e-05  -0.112223  -0.001738  3.902345  -0.002
C  C53  1  0.34023123  0.60099851  0.16773275  1  -0.075342  0.003106  3.663242  0.004  -0.111556  0.001237  3.913138  0.002  -0.110531  0.000755  3.93045  0.001  -8.9e-05  -0.112271  0.001737  3.902132  0.002
C  C54  1  0.49366147  0.46883770  0.79748131  1  0.002234  0.001709  3.749136  0.002  -0.027095  -0.000884  4.018297  -0.001  -0.024027  -0.000669  4.038377  -0.001  -0.002987  -0.029746  -0.001056  4.005187  -0.002
C  C55  1  0.50631228  0.53116832  0.20253660  1  0.002408  -0.001711  3.749434  -0.002  -0.026924  0.000884  4.018504  0.001  -0.023848  0.000669  4.038564  0.001  -0.002904  -0.02958  0.001055  4.005391  0.002
C  C56  1  0.84203806  0.49434261  0.93717064  1  -0.181059  -0.000598  3.612264  -0.001  -0.282009  -0.000439  3.854584  -0.001  -0.279554  -0.00033  3.862508  0.0  -0.129167  -0.283204  -0.00055  3.849487  -0.001
C  C57  1  0.15794542  0.50566722  0.06283902  1  -0.181274  0.000599  3.612125  0.001  -0.282176  0.000439  3.854475  0.001  -0.279666  0.00033  3.862421  0.0  -0.129266  -0.283376  0.00055  3.849377  0.001
C  C58  1  0.51877064  0.90736816  0.66547094  1  0.163369  -0.00032  3.640167  -0.001  0.10395  -0.003927  3.910221  -0.005  0.119109  -0.003289  3.924245  -0.004  0.145063  0.093544  -0.004491  3.900602  -0.006
C  C59  1  0.48124064  0.09262377  0.33452964  1  0.163351  0.000321  3.639997  0.001  0.103925  0.003926  3.910055  0.005  0.119077  0.003289  3.92408  0.004  0.145085  0.093511  0.00449  3.900436  0.006
C  C60  1  0.42331351  0.16842872  0.61378552  1  -0.075659  -0.004453  3.64488  -0.006  -0.114008  -0.002451  3.896952  -0.003  -0.113186  -0.001711  3.915463  -0.002  0.00351  -0.114384  -0.003232  3.884772  -0.004
C  C61  1  0.57670151  0.83156082  0.38620582  1  -0.075982  0.004448  3.644976  0.006  -0.114331  0.002452  3.897082  0.003  -0.113512  0.001713  3.915592  0.002  0.003409  -0.114707  0.003233  3.884908  0.004
C  C62  1  0.27247214  0.11735800  0.67087945  1  -0.008919  0.001398  3.750265  0.002  -0.037741  -0.001201  4.02149  -0.002  -0.034607  -0.000712  4.042383  -0.001  -0.005401  -0.040432  -0.001733  4.007583  -0.003
C  C63  1  0.72754459  0.88264256  0.32911142  1  -0.008747  -0.001395  3.75028  -0.002  -0.037592  0.0012  4.021535  0.002  -0.034455  0.00071  4.042423  0.001  -0.005353  -0.040299  0.001731  4.007614  0.003
C  C64  1  0.77085823  0.02834988  0.56271162  1  -0.182901  -0.000497  3.597562  -0.001  -0.280574  -0.000385  3.832099  0.0  -0.277917  -0.00027  3.840848  0.0  -0.131144  -0.281993  -0.00051  3.826281  -0.001
C  C65  1  0.22915037  0.97163469  0.43727943  1  -0.183117  0.000501  3.59752  0.001  -0.280697  0.000386  3.83206  0.0  -0.278023  0.000271  3.840809  0.0  -0.131193  -0.282118  0.000511  3.826247  0.001
N  N66  1  0.41449184  0.62138442  0.83272491  1  -0.3902  -0.041285  3.36189  -0.063  -0.344523  -0.030204  3.679876  -0.038  -0.373752  -0.024665  3.692819  -0.03  -0.367938  -0.323077  -0.035126  3.67107  -0.045
N  N67  1  0.58550014  0.37862431  0.16728311  1  -0.390442  0.041284  3.361909  0.063  -0.34481  0.030203  3.679991  0.038  -0.374016  0.024665  3.692888  0.03  -0.368047  -0.323358  0.035123  3.671191  0.045
N  N68  1  0.68042066  0.51038110  0.89015614  1  -0.016629  -0.00145  3.599972  -0.003  0.083074  -0.001827  3.816453  -0.003  0.069836  -0.001469  3.841392  -0.003  -0.245851  0.091529  -0.002148  3.799964  -0.004
N  N69  1  0.31956590  0.48962755  0.10985403  1  -0.01637  0.001451  3.599632  0.003  0.083346  0.001826  3.816039  0.003  0.070103  0.001468  3.840968  0.003  -0.245842  0.091803  0.002148  3.799549  0.004
N  N70  1  0.33424170  0.95373964  0.70277817  1  -0.392085  -0.040088  3.380859  -0.056  -0.348251  -0.028973  3.709582  -0.032  -0.380073  -0.022795  3.72517  -0.023  -0.369222  -0.324603  -0.034656  3.698663  -0.039
N  N71  1  0.66576681  0.04626080  0.29721968  1  -0.392199  0.040088  3.380885  0.056  -0.348402  0.028974  3.709672  0.032  -0.380201  0.022795  3.725225  0.023  -0.369284  -0.324736  0.034656  3.698732  0.039
N  N72  1  0.57728567  0.03363610  0.61128691  1  -0.003282  -0.001118  3.57412  -0.002  0.097282  -0.001625  3.78881  -0.002  0.083955  -0.001141  3.813774  -0.002  -0.239826  0.105887  -0.002064  3.772056  -0.003
N  N73  1  0.42272642  0.96635829  0.38870282  1  -0.003054  0.001118  3.573775  0.002  0.097512  0.001625  3.788422  0.002  0.084189  0.00114  3.813385  0.002  -0.239798  0.106114  0.002063  3.77167  0.003
O  O74  1  0.00957163  0.85013359  0.90735767  1  -0.622472  -0.056284  2.028206  -0.091  -0.586958  -0.040352  2.302652  -0.061  -0.630046  -0.030135  2.292329  -0.044  -0.330366  -0.552743  -0.050573  2.307734  -0.076
O  O75  1  0.99041724  0.14989463  0.09262407  1  -0.622217  0.056279  2.028054  0.091  -0.586687  0.040349  2.302542  0.061  -0.629751  0.030131  2.292215  0.044  -0.330171  -0.552462  0.050566  2.307608  0.076
O  O76  1  0.89095451  0.03364925  0.78455898  1  -0.608588  -0.012529  1.93945  -0.021  -0.566119  -0.013451  2.1655  -0.022  -0.593572  -0.010062  2.157112  -0.017  -0.30739  -0.545209  -0.017369  2.170347  -0.028
O  O77  1  0.10902161  0.96639221  0.21543128  1  -0.608644  0.012539  1.93927  0.021  -0.566035  0.013457  2.165275  0.022  -0.593485  0.010067  2.156894  0.017  -0.307349  -0.545117  0.017377  2.17011  0.028
O  O78  1  0.07521781  0.68223448  0.71398448  1  -0.623631  -0.05763  2.057145  -0.094  -0.586525  -0.03943  2.334008  -0.06  -0.629461  -0.029336  2.322692  -0.043  -0.333038  -0.552437  -0.049493  2.339778  -0.075
O  O79  1  0.92479346  0.31774890  0.28602217  1  -0.623644  0.057636  2.0572  0.094  -0.586553  0.039433  2.334093  0.06  -0.629465  0.029338  2.322756  0.043  -0.333051  -0.552456  0.049494  2.339858  0.075
O  O80  1  0.34400667  0.63863287  0.59652185  1  -0.612566  -0.005785  1.936559  -0.01  -0.57633  -0.007538  2.174137  -0.012  -0.602046  -0.005451  2.166741  -0.009  -0.315097  -0.557154  -0.010114  2.178572  -0.016
O  O81  1  0.65600516  0.36136517  0.40348186  1  -0.612595  0.005783  1.936727  0.01  -0.576367  0.007537  2.174332  0.012  -0.602078  0.00545  2.16693  0.009  -0.315079  -0.557188  0.010113  2.178763  0.016
