# generated using pymatgen
data_CdH5C10N3O4
_symmetry_space_group_name_H-M   'P 1'
_cell_length_a   7.48036223
_cell_length_b   12.12913000
_cell_length_c   13.17922745
_cell_angle_alpha   84.97875299
_cell_angle_beta   73.51549683
_cell_angle_gamma   72.01919718
_symmetry_Int_Tables_number   1
_chemical_formula_structural   CdH5C10N3O4
_chemical_formula_sum   'Cd4 H20 C40 N12 O16'
_cell_volume   1090.60516828
_cell_formula_units_Z   4
loop_
 _symmetry_equiv_pos_site_id
 _symmetry_equiv_pos_as_xyz
  1  'x, y, z'
loop_
 _atom_site_type_symbol
 _atom_site_label
 _atom_site_symmetry_multiplicity
 _atom_site_fract_x
 _atom_site_fract_y
 _atom_site_fract_z
 _atom_site_occupancy
 _atom_site_hle17_bader_spin_density
 _atom_site_hle17_ddec_charge
 _atom_site_hle17_ddec_spin_density
 _atom_site_hle17_ddec_sum_bond_order
 _atom_site_hle17_magmom
 _atom_site_hse06_10hf_bader_spin_density
 _atom_site_hse06_10hf_ddec_charge
 _atom_site_hse06_10hf_ddec_spin_density
 _atom_site_hse06_10hf_ddec_sum_bond_order
 _atom_site_hse06_10hf_magmom
 _atom_site_hse06_bader_spin_density
 _atom_site_hse06_ddec_charge
 _atom_site_hse06_ddec_spin_density
 _atom_site_hse06_ddec_sum_bond_order
 _atom_site_hse06_magmom
 _atom_site_pbe_bader_spin_density
 _atom_site_pbe_cm5_charge
 _atom_site_pbe_ddec_charge
 _atom_site_pbe_ddec_spin_density
 _atom_site_pbe_ddec_sum_bond_order
 _atom_site_pbe_magmom
Cd  Cd0  1  0.13465109  0.98504262  0.64795818  1  0  1.102167  0  1.671038  0  0  0.89278  0  2.121726  0  0  0.951167  0  2.071759  0  0  0.799415  0.851395  0  2.15583  0
Cd  Cd1  1  0.76772245  0.01506127  0.35174898  1  0  1.102067  0  1.672032  0  0  0.89249  0  2.122998  0  0  0.950888  0  2.072984  0  0  0.79936  0.851088  0  2.157178  0
Cd  Cd2  1  0.87034294  0.51484362  0.14808388  1  0  1.102697  0  1.671799  0  0  0.892966  0  2.122837  0  0  0.951389  0  2.072814  0  0  0.799464  0.851549  0  2.157008  0
Cd  Cd3  1  0.53278374  0.48506939  0.85188805  1  0  1.102458  0  1.670888  0  0  0.892807  0  2.121637  0  0  0.951223  0  2.071656  0  0  0.799226  0.851383  0  2.155773  0
H  H4  1  0.75009052  0.77655884  0.93331421  1  0  0.387995  0  0.920052  0  0  0.356771  0  0.999057  0  0  0.369591  0  0.983417  0  0  0.295566  0.347831  0  1.007707  0
H  H5  1  0.45988490  0.22405411  0.06659122  1  0  0.386463  0  0.921821  0  0  0.355391  0  1.000613  0  0  0.368167  0  0.985378  0  0  0.294892  0.346493  0  1.009154  0
H  H6  1  0.27728611  0.72350113  0.43338149  1  0  0.387268  0  0.921263  0  0  0.356132  0  1.000164  0  0  0.368917  0  0.984449  0  0  0.295345  0.34723  0  1.008723  0
H  H7  1  0.43295440  0.27636821  0.56677071  1  0  0.387426  0  0.920769  0  0  0.356307  0  0.999615  0  0  0.3691  0  0.984094  0  0  0.295661  0.347392  0  1.008211  0
H  H8  1  0.55761288  0.87161882  0.62519729  1  0  0.106751  0  0.974581  0  0  0.117917  0  1.036331  0  0  0.120867  0  1.035294  0  0  0.106092  0.11582  0  1.037171  0
H  H9  1  0.05514556  0.12787773  0.37454081  1  0  0.106978  0  0.974587  0  0  0.117969  0  1.036532  0  0  0.12082  0  1.0356  0  0  0.106328  0.115935  0  1.037314  0
H  H10  1  0.18010352  0.62814689  0.12553360  1  0  0.106644  0  0.973846  0  0  0.117798  0  1.03573  0  0  0.120753  0  1.034683  0  0  0.1061  0.115693  0  1.036585  0
H  H11  1  0.93282600  0.37184878  0.87453825  1  0  0.107173  0  0.97471  0  0  0.118614  0  1.036091  0  0  0.121481  0  1.035166  0  0  0.106261  0.116577  0  1.036855  0
H  H12  1  0.91383325  0.82278027  0.54374673  1  0  0.108875  0  0.95084  0  0  0.117937  0  1.013441  0  0  0.120928  0  1.010834  0  0  0.109127  0.115757  0  1.015374  0
H  H13  1  0.28027855  0.17681000  0.45646411  1  0  0.108458  0  0.951547  0  0  0.117838  0  1.013848  0  0  0.120836  0  1.011261  0  0  0.109076  0.115633  0  1.015814  0
H  H14  1  0.48727387  0.67713665  0.04373028  1  0  0.109047  0  0.951078  0  0  0.118283  0  1.01349  0  0  0.12127  0  1.010886  0  0  0.109275  0.116113  0  1.0154  0
H  H15  1  0.20724557  0.32293298  0.95612831  1  0  0.109213  0  0.949717  0  0  0.118252  0  1.012507  0  0  0.121239  0  1.009904  0  0  0.109281  0.116077  0  1.014428  0
H  H16  1  0.13390809  0.63354749  0.59288373  1  0  0.117407  0  0.938059  0  0  0.12712  0  0.9951  0  0  0.131139  0  0.993046  0  0  0.110937  0.124227  0  0.996723  0
H  H17  1  0.35955390  0.36619675  0.40799415  1  0  0.116805  0  0.938988  0  0  0.126802  0  0.995611  0  0  0.130802  0  0.993559  0  0  0.110976  0.123911  0  0.997247  0
H  H18  1  0.51770035  0.86653828  0.09252973  1  0  0.117454  0  0.938721  0  0  0.12716  0  0.995528  0  0  0.131152  0  0.9935  0  0  0.111155  0.124312  0  0.9971  0
H  H19  1  0.47611474  0.13355252  0.90738505  1  0  0.116734  0  0.937238  0  0  0.126523  0  0.994232  0  0  0.130596  0  0.992077  0  0  0.110869  0.123621  0  0.995877  0
H  H20  1  0.98292567  0.50308404  0.71981860  1  0  0.083022  0  0.948158  0  0  0.087741  0  1.019702  0  0  0.090797  0  1.016441  0  0  0.113087  0.085412  0  1.022178  0
H  H21  1  0.20500383  0.49697497  0.28108659  1  0  0.083008  0  0.945865  0  0  0.087789  0  1.017431  0  0  0.090931  0  1.014071  0  0  0.113229  0.085477  0  1.019919  0
H  H22  1  0.23586903  0.99728742  0.21924642  1  0  0.082461  0  0.948934  0  0  0.08731  0  1.020594  0  0  0.090319  0  1.017382  0  0  0.113091  0.085095  0  1.022952  0
H  H23  1  0.45211025  0.00285664  0.78051724  1  0  0.082995  0  0.949098  0  0  0.087868  0  1.020213  0  0  0.090945  0  1.016966  0  0  0.113319  0.085573  0  1.022632  0
C  C24  1  0.85918922  0.87240802  0.81958714  1  0  0.631691  0  3.87731  0  0  0.58274  0  4.171772  0  0  0.617218  0  4.163359  0  0  0.22426  0.559351  0  4.176823  0
C  C25  1  0.55143099  0.12789850  0.18008415  1  0  0.6299  0  3.877122  0  0  0.580895  0  4.172085  0  0  0.615348  0  4.163735  0  0  0.222241  0.557516  0  4.177119  0
C  C26  1  0.48263387  0.62743478  0.31980024  1  0  0.629647  0  3.877943  0  0  0.581279  0  4.172088  0  0  0.615725  0  4.163732  0  0  0.222613  0.557902  0  4.177124  0
C  C27  1  0.42870164  0.37244012  0.68021688  1  0  0.62776  0  3.87856  0  0  0.580204  0  4.171651  0  0  0.614671  0  4.163291  0  0  0.222796  0.55683  0  4.176678  0
C  C28  1  0.05561896  0.79858140  0.82114772  1  0  -0.030713  0  3.800804  0  0  -0.034691  0  4.05263  0  0  -0.03853  0  4.076539  0  0  0.069472  -0.032215  0  4.03657  0
C  C29  1  0.67559405  0.20164004  0.17863276  1  0  -0.027556  0  3.796645  0  0  -0.0324  0  4.049501  0  0  -0.03624  0  4.073423  0  0  0.070807  -0.029928  0  4.033443  0
C  C30  1  0.60508290  0.70133163  0.32122658  1  0  -0.029376  0  3.799931  0  0  -0.03456  0  4.053093  0  0  -0.038405  0  4.076984  0  0  0.069955  -0.032082  0  4.03706  0
C  C31  1  0.62665524  0.29849441  0.67870673  1  0  -0.028049  0  3.798393  0  0  -0.033059  0  4.050314  0  0  -0.036942  0  4.074285  0  0  0.070072  -0.030567  0  4.034247  0
C  C32  1  0.11770196  0.69837430  0.87992986  1  0  0.028481  0  3.773802  0  0  0.019089  0  4.029729  0  0  0.017151  0  4.051513  0  0  0.084518  0.020349  0  4.015004  0
C  C33  1  0.69621529  0.30189834  0.11995998  1  0  0.026106  0  3.772553  0  0  0.017144  0  4.028379  0  0  0.015174  0  4.050194  0  0  0.083866  0.018415  0  4.013643  0
C  C34  1  0.56651819  0.80167596  0.37989712  1  0  0.028274  0  3.771307  0  0  0.018915  0  4.027839  0  0  0.017034  0  4.049502  0  0  0.084016  0.020136  0  4.013203  0
C  C35  1  0.74740226  0.19821174  0.61997864  1  0  0.028561  0  3.771845  0  0  0.019443  0  4.027507  0  0  0.017522  0  4.049286  0  0  0.084122  0.020666  0  4.01283  0
C  C36  1  0.00721572  0.63597510  0.96211129  1  0  0.623783  0  3.928644  0  0  0.573269  0  4.220415  0  0  0.608272  0  4.213157  0  0  0.206168  0.549625  0  4.224348  0
C  C37  1  0.60543649  0.36450522  0.03786381  1  0  0.626686  0  3.927931  0  0  0.576091  0  4.219273  0  0  0.611096  0  4.211925  0  0  0.206701  0.552441  0  4.223289  0
C  C38  1  0.39336400  0.86418725  0.46196615  1  0  0.624851  0  3.926305  0  0  0.574385  0  4.218176  0  0  0.609381  0  4.210798  0  0  0.206048  0.550745  0  4.222189  0
C  C39  1  0.71906303  0.13572441  0.53786858  1  0  0.621344  0  3.93403  0  0  0.570984  0  4.225313  0  0  0.605984  0  4.218104  0  0  0.205355  0.547341  0  4.229213  0
C  C40  1  0.37160671  0.73458597  0.77139159  1  0  0.310735  0  3.75305  0  0  0.279665  0  4.019006  0  0  0.29233  0  4.034842  0  0  0.211715  0.271173  0  4.008049  0
C  C41  1  0.87815261  0.26529695  0.22838711  1  0  0.308979  0  3.751229  0  0  0.278317  0  4.016518  0  0  0.291139  0  4.032106  0  0  0.211198  0.269742  0  4.005689  0
C  C42  1  0.85687881  0.76539315  0.27154892  1  0  0.308082  0  3.757325  0  0  0.278103  0  4.021447  0  0  0.290949  0  4.037097  0  0  0.210982  0.269536  0  4.010542  0
C  C43  1  0.89293316  0.23449226  0.72843928  1  0  0.30832  0  3.753535  0  0  0.276973  0  4.01979  0  0  0.289713  0  4.035555  0  0  0.210449  0.268475  0  4.008797  0
C  C44  1  0.57947957  0.71303714  0.71680596  1  0  0.159905  0  3.779955  0  0  0.160631  0  4.020911  0  0  0.167227  0  4.040496  0  0  0.116787  0.156089  0  4.007746  0
C  C45  1  0.00971566  0.28674554  0.28318924  1  0  0.162407  0  3.777299  0  0  0.162648  0  4.018527  0  0  0.169221  0  4.038034  0  0  0.117804  0.158115  0  4.005412  0
C  C46  1  0.04313047  0.78696848  0.21684489  1  0  0.159649  0  3.779925  0  0  0.160297  0  4.020441  0  0  0.166721  0  4.040183  0  0  0.117074  0.155853  0  4.007164  0
C  C47  1  0.04599884  0.21293739  0.78319820  1  0  0.160272  0  3.777535  0  0  0.160929  0  4.019074  0  0  0.167491  0  4.03866  0  0  0.116993  0.156397  0  4.005905  0
C  C48  1  0.65384209  0.79020798  0.64487478  1  0  -0.128692  0  3.689105  0  0  -0.153219  0  3.941289  0  0  -0.160162  0  3.962203  0  0  -0.083234  -0.148712  0  3.927357  0
C  C49  1  0.08916778  0.20944353  0.35512935  1  0  -0.128772  0  3.690191  0  0  -0.153199  0  3.94268  0  0  -0.160057  0  3.963617  0  0  -0.083076  -0.14874  0  3.928711  0
C  C50  1  0.19470061  0.70969540  0.14496361  1  0  -0.127084  0  3.687373  0  0  -0.151774  0  3.939705  0  0  -0.158669  0  3.960642  0  0  -0.083068  -0.147287  0  3.925751  0
C  C51  1  0.04838491  0.29026997  0.85502220  1  0  -0.129281  0  3.688279  0  0  -0.153851  0  3.94047  0  0  -0.160724  0  3.961427  0  0  -0.083704  -0.149401  0  3.926513  0
C  C52  1  0.85429315  0.76218271  0.59835179  1  0  0.008682  0  3.688981  0  0  -0.010555  0  3.943204  0  0  -0.006489  0  3.960651  0  0  -0.065807  -0.013041  0  3.93132  0
C  C53  1  0.21479189  0.23746002  0.40186414  1  0  0.008514  0  3.691188  0  0  -0.011028  0  3.945309  0  0  -0.00699  0  3.962771  0  0  -0.065626  -0.01349  0  3.933402  0
C  C54  1  0.36703405  0.73774835  0.09830885  1  0  0.007592  0  3.68923  0  0  -0.012092  0  3.943617  0  0  -0.008024  0  3.961038  0  0  -0.065592  -0.014573  0  3.931741  0
C  C55  1  0.20222207  0.26223163  0.90163478  1  0  0.007205  0  3.688481  0  0  -0.012303  0  3.943163  0  0  -0.008254  0  3.960638  0  0  -0.066014  -0.014781  0  3.931276  0
C  C56  1  0.97622606  0.65833571  0.62548619  1  0  -0.106411  0  3.694501  0  0  -0.123461  0  3.950234  0  0  -0.129475  0  3.969222  0  0  -0.081671  -0.119612  0  3.937533  0
C  C57  1  0.25959488  0.34145172  0.37510910  1  0  -0.105589  0  3.696305  0  0  -0.122751  0  3.951659  0  0  -0.128747  0  3.970738  0  0  -0.081889  -0.11891  0  3.938929  0
C  C58  1  0.38487525  0.84175206  0.12523759  1  0  -0.106637  0  3.696296  0  0  -0.123201  0  3.951322  0  0  -0.12917  0  3.970342  0  0  -0.082795  -0.11941  0  3.938613  0
C  C59  1  0.35113541  0.15827729  0.87471465  1  0  -0.103409  0  3.694366  0  0  -0.120359  0  3.949537  0  0  -0.126393  0  3.968609  0  0  -0.08066  -0.116528  0  3.936794  0
C  C60  1  0.89177235  0.58508286  0.69714616  1  0  0.139859  0  3.715901  0  0  0.108183  0  3.973151  0  0  0.115934  0  3.990385  0  0  0.048317  0.10318  0  3.961441  0
C  C61  1  0.17355714  0.41484373  0.30348837  1  0  0.139063  0  3.714867  0  0  0.107396  0  3.972094  0  0  0.11508  0  3.989299  0  0  0.04749  0.102367  0  3.960414  0
C  C62  1  0.22702139  0.91511164  0.19679321  1  0  0.139751  0  3.7173  0  0  0.107708  0  3.974522  0  0  0.115479  0  3.991754  0  0  0.048525  0.102621  0  3.962823  0
C  C63  1  0.33836939  0.08492253  0.80310635  1  0  0.138648  0  3.716697  0  0  0.107017  0  3.973723  0  0  0.114721  0  3.990973  0  0  0.048015  0.101999  0  3.962035  0
N  N64  1  0.21774655  0.82041428  0.75307717  1  0  -0.433988  0  3.144388  0  0  -0.367868  0  3.415567  0  0  -0.389158  0  3.433933  0  0  -0.341072  -0.353201  0  3.402731  0
N  N65  1  0.79157308  0.17962275  0.24670013  1  0  -0.434823  0  3.141061  0  0  -0.368505  0  3.412439  0  0  -0.389836  0  3.430737  0  0  -0.341684  -0.35382  0  3.399665  0
N  N66  1  0.78915741  0.67947365  0.25324178  1  0  -0.433924  0  3.145969  0  0  -0.367741  0  3.416885  0  0  -0.389067  0  3.435185  0  0  -0.341234  -0.353062  0  3.404101  0
N  N67  1  0.72074662  0.32034391  0.74677567  1  0  -0.433465  0  3.143186  0  0  -0.367064  0  3.414518  0  0  -0.388375  0  3.432907  0  0  -0.340612  -0.352389  0  3.401663  0
N  N68  1  0.31542233  0.66106373  0.84800766  1  0  -0.418845  0  3.231346  0  0  -0.350646  0  3.50334  0  0  -0.371686  0  3.520672  0  0  -0.354099  -0.336018  0  3.49108  0
N  N69  1  0.82506989  0.33892879  0.15182805  1  0  -0.41818  0  3.22952  0  0  -0.349739  0  3.500656  0  0  -0.370808  0  3.517954  0  0  -0.353888  -0.335096  0  3.488401  0
N  N70  1  0.72692106  0.83901383  0.34804301  1  0  -0.418262  0  3.23053  0  0  -0.350079  0  3.501836  0  0  -0.371202  0  3.519132  0  0  -0.353692  -0.335408  0  3.489593  0
N  N71  1  0.91330631  0.16094221  0.65185203  1  0  -0.417978  0  3.230887  0  0  -0.349461  0  3.502397  0  0  -0.37053  0  3.519734  0  0  -0.353521  -0.334811  0  3.490096  0
N  N72  1  0.69892441  0.61093522  0.74132955  1  0  -0.374763  0  3.226807  0  0  -0.304704  0  3.485661  0  0  -0.324455  0  3.50361  0  0  -0.327428  -0.291174  0  3.473156  0
N  N73  1  0.05120961  0.38895642  0.25897523  1  0  -0.375376  0  3.225508  0  0  -0.305239  0  3.484457  0  0  -0.325  0  3.502448  0  0  -0.327587  -0.29173  0  3.471992  0
N  N74  1  0.06015950  0.88920761  0.24112959  1  0  -0.373483  0  3.225404  0  0  -0.3035  0  3.484011  0  0  -0.32319  0  3.502019  0  0  -0.327218  -0.290032  0  3.471523  0
N  N75  1  0.18985749  0.11077863  0.75880759  1  0  -0.374728  0  3.224231  0  0  -0.304737  0  3.483099  0  0  -0.324475  0  3.501085  0  0  -0.328059  -0.291233  0  3.470612  0
O  O76  1  0.83638682  0.95448876  0.75569487  1  0  -0.562314  0  1.999754  0  0  -0.505044  0  2.239662  0  0  -0.531059  0  2.231305  0  0  -0.294471  -0.486958  0  2.244843  0
O  O77  1  0.54693183  0.04568829  0.24385337  1  0  -0.561906  0  1.999578  0  0  -0.504408  0  2.239583  0  0  -0.530457  0  2.231234  0  0  -0.293599  -0.486273  0  2.244716  0
O  O78  1  0.54193950  0.54530800  0.25592897  1  0  -0.561765  0  2.000174  0  0  -0.504106  0  2.239403  0  0  -0.530163  0  2.231063  0  0  -0.293708  -0.485984  0  2.244594  0
O  O79  1  0.34226207  0.45466969  0.74395552  1  0  -0.561428  0  2.000903  0  0  -0.504356  0  2.239806  0  0  -0.530347  0  2.231426  0  0  -0.293778  -0.486289  0  2.245004  0
O  O80  1  0.70627568  0.84971170  0.88605859  1  0  -0.532745  0  2.081315  0  0  -0.482957  0  2.295061  0  0  -0.505355  0  2.279869  0  0  -0.324862  -0.467427  0  2.303498  0
O  O81  1  0.44204025  0.15081557  0.11371807  1  0  -0.530503  0  2.081146  0  0  -0.480957  0  2.295203  0  0  -0.50328  0  2.280196  0  0  -0.323391  -0.465481  0  2.30363  0
O  O82  1  0.30702198  0.65016462  0.38626484  1  0  -0.531094  0  2.081912  0  0  -0.481571  0  2.295308  0  0  -0.503963  0  2.280096  0  0  -0.323892  -0.466045  0  2.303678  0
O  O83  1  0.34206620  0.34961899  0.61390568  1  0  -0.530064  0  2.08049  0  0  -0.481005  0  2.294005  0  0  -0.503328  0  2.278818  0  0  -0.323954  -0.46549  0  2.302388  0
O  O84  1  0.82103968  0.67669826  0.99395598  1  0  -0.610446  0  2.028514  0  0  -0.551061  0  2.258477  0  0  -0.578122  0  2.248194  0  0  -0.307895  -0.532164  0  2.264287  0
O  O85  1  0.49145150  0.32400434  0.00613833  1  0  -0.610991  0  2.02735  0  0  -0.551687  0  2.25768  0  0  -0.578704  0  2.247342  0  0  -0.307964  -0.532788  0  2.263498  0
O  O86  1  0.24788387  0.82352023  0.49375802  1  0  -0.610467  0  2.027613  0  0  -0.551042  0  2.257774  0  0  -0.578086  0  2.247425  0  0  -0.307641  -0.532168  0  2.263598  0
O  O87  1  0.56462397  0.17643534  0.50611378  1  0  -0.609756  0  2.031487  0  0  -0.55041  0  2.261346  0  0  -0.577511  0  2.251155  0  0  -0.307558  -0.531476  0  2.267115  0
O  O88  1  0.10170518  0.54412715  0.00160714  1  0  -0.610426  0  1.990887  0  0  -0.539651  0  2.238719  0  0  -0.568187  0  2.22573  0  0  -0.314875  -0.51964  0  2.246805  0
O  O89  1  0.64790117  0.45621527  0.99829342  1  0  -0.61243  0  1.990363  0  0  -0.541437  0  2.237414  0  0  -0.569959  0  2.224542  0  0  -0.315334  -0.521498  0  2.245515  0
O  O90  1  0.39580013  0.95604599  0.50152089  1  0  -0.611114  0  1.989707  0  0  -0.540622  0  2.237636  0  0  -0.569109  0  2.224597  0  0  -0.314925  -0.52067  0  2.245823  0
O  O91  1  0.85301380  0.04385350  0.49836873  1  0  -0.609482  0  1.990348  0  0  -0.538767  0  2.237739  0  0  -0.567214  0  2.224747  0  0  -0.314415  -0.518856  0  2.24592  0
