# generated using pymatgen
data_AlH6C11SN2O5F
_symmetry_space_group_name_H-M   'P 1'
_cell_length_a   6.68322110
_cell_length_b   12.82287393
_cell_length_c   16.85634378
_cell_angle_alpha   84.75222609
_cell_angle_beta   83.83770915
_cell_angle_gamma   74.36143041
_symmetry_Int_Tables_number   1
_chemical_formula_structural   AlH6C11SN2O5F
_chemical_formula_sum   'Al2 H12 C22 S2 N4 O10 F2'
_cell_volume   1380.09067467
_cell_formula_units_Z   2
loop_
 _symmetry_equiv_pos_site_id
 _symmetry_equiv_pos_as_xyz
  1  'x, y, z'
loop_
 _atom_site_type_symbol
 _atom_site_label
 _atom_site_symmetry_multiplicity
 _atom_site_fract_x
 _atom_site_fract_y
 _atom_site_fract_z
 _atom_site_occupancy
 _atom_site_pbe_bader_charge
 _atom_site_pbe_bader_spin_density
 _atom_site_pbe_cm5_charge
 _atom_site_pbe_ddec_charge
 _atom_site_pbe_ddec_spin_density
 _atom_site_pbe_ddec_sum_bond_order
 _atom_site_pbe_magmom
Al  Al0  1  0.49550599  0.50434282  0.49968197  1  2.505936  0  0.395512  1.635739  0  2.590757  0
Al  Al1  1  0.99324545  0.50727666  0.50054534  1  2.503039  0  0.398513  1.642986  0  2.573791  0
H  H2  1  0.19640166  0.63305347  0.44865739  1  0.618347  0  0.352252  0.43136  0  0.854531  0
H  H3  1  0.80258947  0.37425443  0.54234626  1  0.640543  0  0.34872  0.425203  0  0.864421  0
H  H4  1  0.85464139  0.55902097  0.73269882  1  0.060199  0  0.105797  0.106934  0  1.010064  0
H  H5  1  0.78634442  0.55928795  0.88232071  1  0.079393  0  0.100256  0.108598  0  1.032521  0
H  H6  1  0.44770073  0.45516903  0.90268178  1  0.089627  0  0.108228  0.121568  0  1.00499  0
H  H7  1  0.61377862  0.45135671  0.10004790  1  0.085998  0  0.108252  0.121071  0  1.004324  0
H  H8  1  0.16508945  0.55797812  0.11514234  1  0.095149  0  0.100303  0.107858  0  1.033621  0
H  H9  1  0.08641900  0.56037584  0.26431568  1  0.097381  0  0.10571  0.108819  0  1.010126  0
H  H10  1  0.59322812  0.45874644  0.68816500  1  0.528984  0  0.308043  0.319959  0  0.975  0
H  H11  1  0.67963084  0.43110595  0.78401651  1  0.451211  0  0.307162  0.30414  0  0.958337  0
H  H12  1  0.45639875  0.45464582  0.31342341  1  0.509942  0  0.309589  0.321671  0  0.969793  0
H  H13  1  0.39739710  0.43014730  0.21912288  1  0.4543  0  0.306367  0.303166  0  0.960081  0
C  C14  1  0.64391136  0.70035322  0.50714406  1  1.65556  0  0.26154  0.669533  0  4.140004  0
C  C15  1  0.77972626  0.50821461  0.35473199  1  1.495877  0  0.255627  0.644226  0  4.101522  0
C  C16  1  0.34163325  0.31045898  0.49312102  1  1.642442  0  0.260315  0.671565  0  4.141334  0
C  C17  1  0.21123321  0.50295882  0.64521602  1  1.486657  0  0.258615  0.65009  0  4.096139  0
C  C18  1  0.18670830  0.50446772  0.73303237  1  0.034176  0  -0.033899  -0.180966  0  3.929604  0
C  C19  1  0.98278011  0.53421159  0.77109863  1  0.00049  0  -0.087731  -0.066392  0  4.044727  0
C  C20  1  0.94362312  0.53426860  0.85317921  1  -0.063303  0  -0.114442  -0.213141  0  4.023586  0
C  C21  1  0.11608041  0.50339389  0.89995489  1  0.422596  0  0.085638  0.19722  0  4.079601  0
C  C22  1  0.31928370  0.47662552  0.86421793  1  -0.068029  0  -0.093233  -0.264329  0  3.88231  0
C  C23  1  0.36127421  0.47576890  0.78015871  1  0.48985  0  0.115801  0.323207  0  4.06237  0
C  C24  1  0.71770456  0.47347153  0.13739110  1  -0.012612  0  -0.092362  -0.263587  0  3.88379  0
C  C25  1  0.89419092  0.50116856  0.10038614  1  0.358156  0  0.086686  0.199907  0  4.081921  0
C  C26  1  0.03197714  0.53279871  0.14558450  1  -0.001342  0  -0.114856  -0.214477  0  4.024165  0
C  C27  1  0.98713269  0.53417822  0.22739491  1  -0.11037  0  -0.088085  -0.06525  0  4.038963  0
C  C28  1  0.81176533  0.50422968  0.26712532  1  0.063152  0  -0.034406  -0.184338  0  3.929773  0
C  C29  1  0.67178375  0.47307249  0.22132056  1  0.457308  0  0.116689  0.324694  0  4.06382  0
C  C30  1  0.58528458  0.11938112  0.51473535  1  0.578418  0  0.102056  0.257104  0  4.070028  0
C  C31  1  0.39670228  0.89120176  0.48551664  1  0.510138  0  0.102554  0.256961  0  4.064485  0
C  C32  1  0.40033440  0.19167273  0.49427499  1  -0.119795  0  -0.029755  -0.25089  0  3.968313  0
C  C33  1  0.58187867  0.81913959  0.50602074  1  -0.11528  0  -0.029614  -0.250328  0  3.963417  0
C  C34  1  0.39560186  0.00097388  0.48852662  1  -0.115978  0  -0.029266  -0.119484  0  4.118624  0
C  C35  1  0.58583331  0.00973544  0.51185859  1  -0.123934  0  -0.02873  -0.119733  0  4.122443  0
S  S36  1  0.22092015  0.12500150  0.47125937  1  0.325936  0  0.10759  0.188706  0  2.800722  0
S  S37  1  0.76079072  0.88597465  0.52921752  1  0.331349  0  0.109833  0.192403  0  2.806433  0
N  N38  1  0.09755643  0.50036888  0.98449967  1  -0.534516  0  -0.147028  -0.130822  0  3.262257  0
N  N39  1  0.91773074  0.49865725  0.01616231  1  -0.496157  0  -0.146798  -0.130987  0  3.272064  0
N  N40  1  0.56229153  0.44477351  0.74796583  1  -1.297528  0  -0.585276  -0.604547  0  3.344983  0
N  N41  1  0.50097279  0.44181213  0.25478023  1  -1.295417  0  -0.583995  -0.601784  0  3.339736  0
O  O42  1  0.50365655  0.65292485  0.49893562  1  -1.248509  0  -0.230731  -0.581658  0  2.333418  0
O  O43  1  0.92621278  0.52374854  0.39136287  1  -1.273446  0  -0.247502  -0.611667  0  2.358086  0
O  O44  1  0.14949647  0.35824667  0.48639743  1  -1.256856  0  -0.237177  -0.58895  0  2.316492  0
O  O45  1  0.38915099  0.50669667  0.60933691  1  -1.270401  0  -0.241345  -0.607581  0  2.376499  0
O  O46  1  0.48604362  0.35589572  0.49925739  1  -1.254598  0  -0.232968  -0.584477  0  2.338992  0
O  O47  1  0.05566912  0.49625682  0.60985639  1  -1.263915  0  -0.244494  -0.604037  0  2.344676  0
O  O48  1  0.83586793  0.65463616  0.51578683  1  -1.261734  0  -0.235213  -0.583863  0  2.32177  0
O  O49  1  0.60508200  0.49715485  0.38986581  1  -1.270198  0  -0.241315  -0.60628  0  2.376498  0
O  O50  1  0.22818750  0.55638704  0.46542201  1  -1.420488  0  -0.449704  -0.991523  0  2.186403  0
O  O51  1  0.76292846  0.45289423  0.53453113  1  -1.441811  0  -0.447987  -0.983079  0  2.176171  0
F  F52  1  0.74911278  0.14837600  0.53702885  1  -0.627202  0  -0.084889  -0.115228  0  1.408237  0
F  F53  1  0.23357095  0.86168263  0.46313192  1  -0.628734  0  -0.084845  -0.115289  0  1.404691  0
