# generated using pymatgen
data_HgH11C10N2ClO5
_symmetry_space_group_name_H-M   'P 1'
_cell_length_a   8.53117224
_cell_length_b   9.08899377
_cell_length_c   9.78207613
_cell_angle_alpha   86.31651353
_cell_angle_beta   70.09004157
_cell_angle_gamma   66.45392766
_symmetry_Int_Tables_number   1
_chemical_formula_structural   HgH11C10N2ClO5
_chemical_formula_sum   'Hg2 H22 C20 N4 Cl2 O10'
_cell_volume   651.51292613
_cell_formula_units_Z   2
loop_
 _symmetry_equiv_pos_site_id
 _symmetry_equiv_pos_as_xyz
  1  'x, y, z'
loop_
 _atom_site_type_symbol
 _atom_site_label
 _atom_site_symmetry_multiplicity
 _atom_site_fract_x
 _atom_site_fract_y
 _atom_site_fract_z
 _atom_site_occupancy
 _atom_site_hle17_bader_spin_density
 _atom_site_hle17_ddec_charge
 _atom_site_hle17_ddec_spin_density
 _atom_site_hle17_ddec_sum_bond_order
 _atom_site_hle17_magmom
 _atom_site_hse06_10hf_bader_spin_density
 _atom_site_hse06_10hf_ddec_charge
 _atom_site_hse06_10hf_ddec_spin_density
 _atom_site_hse06_10hf_ddec_sum_bond_order
 _atom_site_hse06_10hf_magmom
 _atom_site_hse06_bader_spin_density
 _atom_site_hse06_ddec_charge
 _atom_site_hse06_ddec_spin_density
 _atom_site_hse06_ddec_sum_bond_order
 _atom_site_hse06_magmom
 _atom_site_pbe_bader_spin_density
 _atom_site_pbe_cm5_charge
 _atom_site_pbe_ddec_charge
 _atom_site_pbe_ddec_spin_density
 _atom_site_pbe_ddec_sum_bond_order
 _atom_site_pbe_magmom
Hg  Hg0  1  0.42205660  0.72763456  0.59698046  1  0  0.894339  0  1.876303  0  0  0.732425  0  2.338497  0  0  0.787192  0  2.299477  0  0  0.62151  0.693338  0  2.36587  0
Hg  Hg1  1  0.57794272  0.27236669  0.40301899  1  0  0.89434  0  1.876334  0  0  0.732424  0  2.338535  0  0  0.787191  0  2.299514  0  0  0.621506  0.693339  0  2.365918  0
H  H2  1  0.27822794  0.22039094  0.29683172  1  0  0.397525  0  0.897631  0  0  0.364651  0  0.979495  0  0  0.378566  0  0.964735  0  0  0.293822  0.354825  0  0.989845  0
H  H3  1  0.72177262  0.77961032  0.70316735  1  0  0.39753  0  0.897623  0  0  0.364653  0  0.979491  0  0  0.378568  0  0.964731  0  0  0.293822  0.354829  0  0.98983  0
H  H4  1  0.75813278  0.90175553  0.10589847  1  0  0.125185  0  0.943962  0  0  0.134737  0  1.003246  0  0  0.138131  0  1.002222  0  0  0.117816  0.132199  0  1.004381  0
H  H5  1  0.24186617  0.09824937  0.89410494  1  0  0.125183  0  0.94399  0  0  0.134731  0  1.003278  0  0  0.138118  0  1.002261  0  0  0.117819  0.132176  0  1.004428  0
H  H6  1  0.05565877  0.65391854  0.04461557  1  0  0.109954  0  0.964674  0  0  0.116052  0  1.031728  0  0  0.119576  0  1.028434  0  0  0.103308  0.113398  0  1.034323  0
H  H7  1  0.94434196  0.34608514  0.95538533  1  0  0.109907  0  0.964683  0  0  0.116011  0  1.031736  0  0  0.119535  0  1.028442  0  0  0.10329  0.113362  0  1.034326  0
H  H8  1  0.82588265  0.48938733  0.45781633  1  0  0.107577  0  0.96464  0  0  0.111492  0  1.036424  0  0  0.114977  0  1.032164  0  0  0.122759  0.10868  0  1.039987  0
H  H9  1  0.17411723  0.51061273  0.54218405  1  0  0.107625  0  0.964639  0  0  0.11151  0  1.036459  0  0  0.115015  0  1.032175  0  0  0.122775  0.108695  0  1.040026  0
H  H10  1  0.47960764  0.41870886  0.84581447  1  0  0.056284  0  0.921863  0  0  0.064294  0  0.992513  0  0  0.066323  0  0.987618  0  0  0.121879  0.062794  0  0.995922  0
H  H11  1  0.52039347  0.58129120  0.15418451  1  0  0.056269  0  0.921869  0  0  0.064281  0  0.992518  0  0  0.066309  0  0.987622  0  0  0.121881  0.062781  0  0.995927  0
H  H12  1  0.78970702  0.13408661  0.95925355  1  0  0.094058  0  0.964289  0  0  0.108435  0  1.038516  0  0  0.109368  0  1.038107  0  0  0.089231  0.107205  0  1.039715  0
H  H13  1  0.21028911  0.86591343  0.04074592  1  0  0.093998  0  0.964319  0  0  0.108375  0  1.038551  0  0  0.109309  0  1.038142  0  0  0.089214  0.107147  0  1.039744  0
H  H14  1  0.69075167  0.03110449  0.88761618  1  0  0.105916  0  0.92914  0  0  0.125881  0  0.990105  0  0  0.127099  0  0.989653  0  0  0.100571  0.125222  0  0.990225  0
H  H15  1  0.30924502  0.96889436  0.11238525  1  0  0.105905  0  0.929144  0  0  0.125869  0  0.990109  0  0  0.127087  0  0.989659  0  0  0.100567  0.125207  0  0.990233  0
H  H16  1  0.55180398  0.22488441  0.98501344  1  0  0.122315  0  0.970697  0  0  0.139059  0  1.037353  0  0  0.141152  0  1.035658  0  0  0.105534  0.1375  0  1.038483  0
H  H17  1  0.44819463  0.77511563  0.01498426  1  0  0.122307  0  0.970654  0  0  0.139052  0  1.037311  0  0  0.141146  0  1.035617  0  0  0.105526  0.137489  0  1.038446  0
H  H18  1  0.92179841  0.21260806  0.56837192  1  0  0.114787  0  0.942985  0  0  0.132667  0  1.008696  0  0  0.134602  0  1.00655  0  0  0.105693  0.131188  0  1.01035  0
H  H19  1  0.07820170  0.78738595  0.43162573  1  0  0.114773  0  0.942999  0  0  0.132676  0  1.00868  0  0  0.134611  0  1.006535  0  0  0.10568  0.131194  0  1.010334  0
H  H20  1  0.89919131  0.02728967  0.61862580  1  0  0.107926  0  0.953087  0  0  0.129196  0  1.015278  0  0  0.129622  0  1.015635  0  0  0.103568  0.128842  0  1.015113  0
H  H21  1  0.10080884  0.97270437  0.38137695  1  0  0.107937  0  0.953098  0  0  0.12916  0  1.015332  0  0  0.129582  0  1.015694  0  0  0.10357  0.128801  0  1.015171  0
H  H22  1  0.01042283  0.10216292  0.70279787  1  0  0.095037  0  0.967371  0  0  0.111911  0  1.039555  0  0  0.111606  0  1.041075  0  0  0.094125  0.112293  0  1.038275  0
H  H23  1  0.98957635  0.89783593  0.29720280  1  0  0.095062  0  0.967366  0  0  0.111941  0  1.039537  0  0  0.111646  0  1.041048  0  0  0.094128  0.112324  0  1.038254  0
C  C24  1  0.63930695  0.82193741  0.31002532  1  0  0.103747  0  3.699087  0  0  0.101877  0  3.939992  0  0  0.105985  0  3.959935  0  0  0.117405  0.098896  0  3.926863  0
C  C25  1  0.36069488  0.17806386  0.68997541  1  0  0.103692  0  3.699085  0  0  0.101824  0  3.93998  0  0  0.105932  0  3.959922  0  0  0.117362  0.09885  0  3.926843  0
C  C26  1  0.78011445  0.80654964  0.17922705  1  0  -0.089716  0  3.662021  0  0  -0.112541  0  3.912653  0  0  -0.118499  0  3.931115  0  0  -0.064154  -0.109143  0  3.901252  0
C  C27  1  0.21988698  0.19345526  0.82077458  1  0  -0.089704  0  3.661894  0  0  -0.112517  0  3.912501  0  0  -0.118469  0  3.930966  0  0  -0.064101  -0.109103  0  3.901101  0
C  C28  1  0.94337119  0.67117760  0.14674096  1  0  0.018175  0  3.645112  0  0  -0.012406  0  3.893774  0  0  -0.005554  0  3.908419  0  0  -0.046752  -0.01671  0  3.884227  0
C  C29  1  0.05662831  0.32882610  0.85326337  1  0  0.018315  0  3.644881  0  0  -0.012274  0  3.893566  0  0  -0.00542  0  3.908207  0  0  -0.046723  -0.016582  0  3.884017  0
C  C30  1  0.96468650  0.55580900  0.24766184  1  0  -0.097217  0  3.714375  0  0  -0.072701  0  3.950462  0  0  -0.085375  0  3.972895  0  0  -0.000899  -0.064872  0  3.935839  0
C  C31  1  0.03531337  0.44419106  0.75233854  1  0  -0.09728  0  3.714239  0  0  -0.072797  0  3.950403  0  0  -0.085474  0  3.97284  0  0  -0.000902  -0.064964  0  3.93579  0
C  C32  1  0.81855692  0.57687694  0.37653949  1  0  0.141907  0  3.620929  0  0  0.092573  0  3.873515  0  0  0.103779  0  3.889367  0  0  0.063676  0.085076  0  3.863701  0
C  C33  1  0.18144544  0.42312312  0.62345912  1  0  0.141876  0  3.62092  0  0  0.092562  0  3.873531  0  0  0.103753  0  3.889375  0  0  0.063638  0.085071  0  3.863724  0
C  C34  1  0.46110863  0.97018517  0.35089345  1  0  0.602128  0  3.941675  0  0  0.544044  0  4.251858  0  0  0.577103  0  4.245902  0  0  0.20382  0.521689  0  4.254954  0
C  C35  1  0.53889069  0.02981609  0.64910600  1  0  0.602193  0  3.941663  0  0  0.544103  0  4.251855  0  0  0.577163  0  4.245898  0  0  0.20381  0.521741  0  4.254953  0
C  C36  1  0.14153221  0.41130233  0.21395377  1  0  0.652682  0  3.853934  0  0  0.601604  0  4.154439  0  0  0.634877  0  4.147145  0  0  0.225817  0.579013  0  4.158593  0
C  C37  1  0.85846959  0.58869892  0.78604390  1  0  0.652728  0  3.853883  0  0  0.60166  0  4.154379  0  0  0.634936  0  4.147083  0  0  0.225829  0.579056  0  4.158553  0
C  C38  1  0.60494501  0.36335370  0.75033957  1  0  0.384211  0  3.807838  0  0  0.307441  0  4.099716  0  0  0.335299  0  4.102228  0  0  0.162  0.288526  0  4.096869  0
C  C39  1  0.39505597  0.63664395  0.24966064  1  0  0.384118  0  3.807933  0  0  0.307352  0  4.099811  0  0  0.335209  0  4.102324  0  0  0.161916  0.288429  0  4.096969  0
C  C40  1  0.68713520  0.14991789  0.90934343  1  0  -0.189505  0  3.645681  0  0  -0.291494  0  3.896663  0  0  -0.288711  0  3.906418  0  0  -0.14289  -0.292837  0  3.88962  0
C  C41  1  0.31286217  0.85008215  0.09065465  1  0  -0.189432  0  3.645557  0  0  -0.291421  0  3.896545  0  0  -0.288641  0  3.9063  0  0  -0.142872  -0.292761  0  3.889498  0
C  C42  1  0.89988956  0.13705970  0.65849141  1  0  -0.18142  0  3.648616  0  0  -0.286466  0  3.898171  0  0  -0.282692  0  3.908269  0  0  -0.147423  -0.288766  0  3.890856  0
C  C43  1  0.10011140  0.86293794  0.34150676  1  0  -0.18148  0  3.648578  0  0  -0.286503  0  3.898153  0  0  -0.282732  0  3.908233  0  0  -0.147416  -0.288794  0  3.890823  0
N  N44  1  0.66001396  0.70588966  0.40429895  1  0  -0.2733  0  3.330117  0  0  -0.17974  0  3.577785  0  0  -0.204244  0  3.601866  0  0  -0.292748  -0.163454  0  3.561823  0
N  N45  1  0.33998661  0.29411160  0.59570113  1  0  -0.273342  0  3.330157  0  0  -0.179766  0  3.577806  0  0  -0.204269  0  3.601888  0  0  -0.292748  -0.163484  0  3.561851  0
N  N46  1  0.72656400  0.22491525  0.77263184  1  0  -0.07452  0  3.502388  0  0  0.033011  0  3.731468  0  0  0.011998  0  3.759194  0  0  -0.277814  0.047738  0  3.711547  0
N  N47  1  0.27343752  0.77508118  0.22736624  1  0  -0.074414  0  3.502214  0  0  0.033111  0  3.731273  0  0  0.012099  0  3.759003  0  0  -0.277782  0.047844  0  3.711347  0
Cl  Cl48  1  0.16548180  0.75792678  0.79981196  1  0  -0.438935  0  1.010012  0  0  -0.368542  0  1.277132  0  0  -0.38852  0  1.259371  0  0  -0.223  -0.355031  0  1.290275  0
Cl  Cl49  1  0.83451902  0.24206844  0.20018642  1  0  -0.438911  0  1.010014  0  0  -0.368526  0  1.277141  0  0  -0.388503  0  1.259376  0  0  -0.222985  -0.355019  0  1.290291  0
O  O50  1  0.33246516  0.97628932  0.46555377  1  0  -0.580216  0  2.013437  0  0  -0.521363  0  2.259568  0  0  -0.549278  0  2.253424  0  0  -0.30071  -0.501584  0  2.262901  0
O  O51  1  0.66753456  0.02370831  0.53444477  1  0  -0.580226  0  2.013423  0  0  -0.521379  0  2.259572  0  0  -0.549296  0  2.253427  0  0  -0.300699  -0.501598  0  2.262901  0
O  O52  1  0.45767873  0.08127237  0.26354089  1  0  -0.609734  0  2.017558  0  0  -0.553782  0  2.254372  0  0  -0.579741  0  2.244655  0  0  -0.309603  -0.535503  0  2.260181  0
O  O53  1  0.54232115  0.91872769  0.73645949  1  0  -0.609775  0  2.017522  0  0  -0.553821  0  2.254339  0  0  -0.57978  0  2.244621  0  0  -0.309611  -0.535535  0  2.260136  0
O  O54  1  0.15206572  0.32045335  0.32457162  1  0  -0.55589  0  2.100524  0  0  -0.507796  0  2.330022  0  0  -0.531216  0  2.315863  0  0  -0.330176  -0.49118  0  2.339382  0
O  O55  1  0.84793540  0.67954670  0.67542736  1  0  -0.555921  0  2.100545  0  0  -0.507819  0  2.330037  0  0  -0.531238  0  2.31588  0  0  -0.330198  -0.4912  0  2.339397  0
O  O56  1  0.26182844  0.38542698  0.09321867  1  0  -0.557343  0  1.916684  0  0  -0.516021  0  2.130942  0  0  -0.537436  0  2.123853  0  0  -0.293889  -0.50102  0  2.135444  0
O  O57  1  0.73817282  0.61457549  0.90678011  1  0  -0.557361  0  1.916681  0  0  -0.516037  0  2.130921  0  0  -0.537451  0  2.12383  0  0  -0.293878  -0.501029  0  2.135426  0
O  O58  1  0.62768291  0.42711310  0.63054487  1  0  -0.585957  0  2.098794  0  0  -0.528492  0  2.37493  0  0  -0.555986  0  2.366951  0  0  -0.322469  -0.508315  0  2.379303  0
O  O59  1  0.37231875  0.57288574  0.36945300  1  0  -0.585911  0  2.098855  0  0  -0.528442  0  2.374992  0  0  -0.555938  0  2.367011  0  0  -0.322424  -0.508277  0  2.379399  0
