# generated using pymatgen
data_ZnP2H28C34(NO4)2
_symmetry_space_group_name_H-M   'P 1'
_cell_length_a   10.34078695
_cell_length_b   18.13000675
_cell_length_c   18.12999640
_cell_angle_alpha   103.03764079
_cell_angle_beta   97.46286020
_cell_angle_gamma   97.46279000
_symmetry_Int_Tables_number   1
_chemical_formula_structural   ZnP2H28C34(NO4)2
_chemical_formula_sum   'Zn4 P8 H112 C136 N8 O32'
_cell_volume   3238.42900327
_cell_formula_units_Z   4
loop_
 _symmetry_equiv_pos_site_id
 _symmetry_equiv_pos_as_xyz
  1  'x, y, z'
loop_
 _atom_site_type_symbol
 _atom_site_label
 _atom_site_symmetry_multiplicity
 _atom_site_fract_x
 _atom_site_fract_y
 _atom_site_fract_z
 _atom_site_occupancy
 _atom_site_pbe_bader_charge
 _atom_site_pbe_bader_spin_density
 _atom_site_pbe_cm5_charge
 _atom_site_pbe_ddec_charge
 _atom_site_pbe_ddec_spin_density
 _atom_site_pbe_ddec_sum_bond_order
 _atom_site_pbe_magmom
Zn  Zn0  1  0.24917839  0.50660003  0.99253592  1  1.373503  0  0.728076  0.984957  0  2.247672  0
Zn  Zn1  1  0.25082059  0.00746321  0.49339941  1  1.373507  0  0.728058  0.984979  0  2.247686  0
Zn  Zn2  1  0.75082209  0.49339944  0.00746360  1  1.373515  0  0.728084  0.984983  0  2.247636  0
Zn  Zn3  1  0.74917826  0.99253740  0.50659969  1  1.373527  0  0.72809  0.984971  0  2.24764  0
P  P4  1  0.48887102  0.42984308  0.08992932  1  3.637298  0  0.454105  1.416515  0  5.420005  0
P  P5  1  0.01112247  0.91007127  0.57015772  1  3.637278  0  0.454084  1.416552  0  5.419907  0
P  P6  1  0.51112767  0.57015696  0.91007075  1  3.637298  0  0.454079  1.416488  0  5.420081  0
P  P7  1  0.98886711  0.08993105  0.42984384  1  3.637069  0  0.454159  1.416759  0  5.419967  0
P  P8  1  0.00618885  0.59152076  0.93630072  1  3.642224  0  0.454692  1.415368  0  5.403744  0
P  P9  1  0.49381678  0.06369822  0.40847776  1  3.642089  0  0.454705  1.415409  0  5.403537  0
P  P10  1  0.99381359  0.40847872  0.06369949  1  3.642101  0  0.454647  1.415325  0  5.403799  0
P  P11  1  0.50619102  0.93629953  0.59152026  1  3.642238  0  0.454793  1.415706  0  5.403543  0
H  H12  1  0.19875380  0.52861057  0.15455586  1  0.149356  0  0.121502  0.092755  0  1.047624  0
H  H13  1  0.30124677  0.84544232  0.47138901  1  0.149279  0  0.12153  0.092815  0  1.047605  0
H  H14  1  0.80124911  0.47139062  0.84544367  1  0.149255  0  0.12151  0.09279  0  1.047611  0
H  H15  1  0.69875192  0.15455771  0.52860940  1  0.149216  0  0.121519  0.092764  0  1.047668  0
H  H16  1  0.19131857  0.63435697  0.26788593  1  0.070223  0  0.108069  0.113758  0  1.014647  0
H  H17  1  0.30868287  0.73211332  0.36564237  1  0.070073  0  0.108087  0.113752  0  1.014645  0
H  H18  1  0.80868435  0.36564422  0.73211359  1  0.070054  0  0.108078  0.113718  0  1.014636  0
H  H19  1  0.69131598  0.26788729  0.63435562  1  0.070158  0  0.108039  0.113689  0  1.014618  0
H  H20  1  0.32097014  0.79433202  0.13718068  1  0.084621  0  0.10667  0.112701  0  1.029202  0
H  H21  1  0.17902993  0.86281838  0.20566713  1  0.084639  0  0.1067  0.112742  0  1.029197  0
H  H22  1  0.67903261  0.20566859  0.86281760  1  0.084707  0  0.106665  0.112691  0  1.029244  0
H  H23  1  0.82096891  0.13718222  0.79433087  1  0.084715  0  0.106691  0.112734  0  1.02921  0
H  H24  1  0.31846193  0.68054389  0.02824771  1  0.154741  0  0.12407  0.104273  0  1.001734  0
H  H25  1  0.18153857  0.97175052  0.31945582  1  0.154754  0  0.124039  0.104188  0  1.001846  0
H  H26  1  0.68153968  0.31945614  0.97175036  1  0.154776  0  0.124067  0.104237  0  1.001829  0
H  H27  1  0.81846027  0.02825008  0.68054272  1  0.154799  0  0.124053  0.10419  0  1.001901  0
H  H28  1  0.45173641  0.40850098  0.93271418  1  0.170878  0  0.121974  0.094218  0  1.055338  0
H  H29  1  0.04826327  0.06728533  0.59149928  1  0.170879  0  0.121972  0.094227  0  1.055364  0
H  H30  1  0.54826310  0.59149849  0.06728582  1  0.170902  0  0.121969  0.094218  0  1.055328  0
H  H31  1  0.95173656  0.93271530  0.40850210  1  0.170898  0  0.121961  0.094216  0  1.05534  0
H  H32  1  0.45626702  0.29642808  0.82599171  1  0.077528  0  0.104137  0.107558  0  1.0354  0
H  H33  1  0.04373155  0.17400768  0.70357236  1  0.077507  0  0.104125  0.10753  0  1.03542  0
H  H34  1  0.54373363  0.70357197  0.17400905  1  0.077538  0  0.104129  0.107557  0  1.035436  0
H  H35  1  0.95626812  0.82599237  0.29642833  1  0.077528  0  0.104145  0.107574  0  1.035371  0
H  H36  1  0.04490855  0.30049725  0.74640260  1  0.069647  0  0.104972  0.110563  0  1.025898  0
H  H37  1  0.45509012  0.25359812  0.69950212  1  0.069655  0  0.104957  0.110511  0  1.025932  0
H  H38  1  0.95509307  0.69950280  0.25359768  1  0.069633  0  0.10495  0.110539  0  1.02592  0
H  H39  1  0.54490955  0.74640192  0.30049747  1  0.069653  0  0.104957  0.11053  0  1.025915  0
H  H40  1  0.05636627  0.41049654  0.86027449  1  0.126471  0  0.117319  0.08914  0  1.021035  0
H  H41  1  0.44363143  0.13972624  0.58950284  1  0.126491  0  0.117317  0.089107  0  1.021116  0
H  H42  1  0.94363453  0.58950407  0.13972475  1  0.12646  0  0.117338  0.089168  0  1.021053  0
H  H43  1  0.55636644  0.86027437  0.41049674  1  0.126471  0  0.117323  0.089144  0  1.021016  0
H  H44  1  0.19324703  0.81856750  0.00896653  1  0.085137  0  0.101819  0.112015  0  1.024959  0
H  H45  1  0.30675340  0.99103241  0.18143183  1  0.08517  0  0.101835  0.112057  0  1.02495  0
H  H46  1  0.80675264  0.18143254  0.99103305  1  0.085139  0  0.101829  0.112026  0  1.024932  0
H  H47  1  0.69324822  0.00896764  0.81856790  1  0.085139  0  0.101824  0.11205  0  1.024954  0
H  H48  1  0.10863088  0.93541321  0.07541471  1  0.040118  0  0.097927  0.094406  0  1.010123  0
H  H49  1  0.39137356  0.92458738  0.06458594  1  0.040194  0  0.097875  0.094385  0  1.010164  0
H  H50  1  0.89137059  0.06458627  0.92458709  1  0.040127  0  0.097882  0.094376  0  1.010131  0
H  H51  1  0.60862806  0.07541266  0.93541434  1  0.040177  0  0.097888  0.094394  0  1.010121  0
H  H52  1  0.88022113  0.92314748  0.10510066  1  0.066024  0  0.093739  0.092062  0  1.04123  0
H  H53  1  0.61978396  0.89490315  0.07685138  1  0.065865  0  0.093751  0.092069  0  1.041194  0
H  H54  1  0.11978117  0.07685144  0.89490328  1  0.066022  0  0.093733  0.092047  0  1.041215  0
H  H55  1  0.38021653  0.10509632  0.92314869  1  0.065876  0  0.093749  0.092059  0  1.041215  0
H  H56  1  0.73520120  0.79406713  0.06665969  1  0.05621  0  0.096162  0.091294  0  1.018754  0
H  H57  1  0.76480141  0.93334250  0.20593225  1  0.056093  0  0.096161  0.091281  0  1.01883  0
H  H58  1  0.26480011  0.20593178  0.93334307  1  0.056123  0  0.096159  0.091288  0  1.018825  0
H  H59  1  0.23519924  0.06665754  0.79406740  1  0.056106  0  0.096166  0.091274  0  1.018791  0
H  H60  1  0.81848674  0.67944813  0.99953859  1  0.132322  0  0.109454  0.136734  0  1.02542  0
H  H61  1  0.68151400  0.00046028  0.32055168  1  0.132302  0  0.109464  0.136733  0  1.025442  0
H  H62  1  0.18151261  0.32055076  0.00046127  1  0.132341  0  0.109426  0.136745  0  1.025459  0
H  H63  1  0.31848681  0.99954034  0.67944867  1  0.132334  0  0.109426  0.136711  0  1.025489  0
H  H64  1  0.84736415  0.69802664  0.79428738  1  0.094929  0  0.106996  0.124993  0  0.993614  0
H  H65  1  0.65263695  0.20571373  0.30197253  1  0.094584  0  0.106982  0.124978  0  0.993558  0
H  H66  1  0.15263813  0.30197227  0.20571380  1  0.095011  0  0.107  0.125034  0  0.993542  0
H  H67  1  0.34736027  0.79428802  0.69802615  1  0.094878  0  0.106985  0.124946  0  0.993607  0
H  H68  1  0.92226588  0.72958037  0.67804562  1  0.103085  0  0.096957  0.097035  0  1.023163  0
H  H69  1  0.57773308  0.32195543  0.27041905  1  0.103052  0  0.096982  0.097147  0  1.023121  0
H  H70  1  0.07773364  0.27041910  0.32195548  1  0.103056  0  0.096955  0.097032  0  1.023118  0
H  H71  1  0.42226105  0.67804574  0.72957927  1  0.103044  0  0.096977  0.097054  0  1.023101  0
H  H72  1  0.08273775  0.65697238  0.61356396  1  0.09008  0  0.090903  0.091989  0  1.060218  0
H  H73  1  0.41726076  0.38643615  0.34302735  1  0.090586  0  0.090898  0.091987  0  1.060214  0
H  H74  1  0.91726079  0.34302709  0.38643597  1  0.090096  0  0.090902  0.091998  0  1.060201  0
H  H75  1  0.58273614  0.61356446  0.65697271  1  0.090057  0  0.090907  0.092002  0  1.060212  0
H  H76  1  0.16793695  0.55368776  0.66562370  1  0.050292  0  0.098881  0.094868  0  1.002233  0
H  H77  1  0.33206293  0.33437581  0.44631156  1  0.05027  0  0.098862  0.094812  0  1.002254  0
H  H78  1  0.83206450  0.44631171  0.33437534  1  0.050319  0  0.098872  0.094813  0  1.002265  0
H  H79  1  0.66793706  0.66562538  0.55368940  1  0.050307  0  0.098878  0.094838  0  1.002235  0
H  H80  1  0.09091621  0.52182575  0.78179158  1  0.108657  0  0.10521  0.128126  0  1.016147  0
H  H81  1  0.40908499  0.21820909  0.47817345  1  0.108697  0  0.105198  0.128098  0  1.016127  0
H  H82  1  0.90908607  0.47817315  0.21820794  1  0.108654  0  0.105182  0.128089  0  1.016122  0
H  H83  1  0.59091613  0.78179267  0.52182662  1  0.108632  0  0.105222  0.128161  0  1.016135  0
H  H84  1  0.32390284  0.20838789  0.08441075  1  0.092042  0  0.100782  0.112451  0  1.03588  0
H  H85  1  0.17609648  0.91558972  0.79161292  1  0.092062  0  0.100801  0.112467  0  1.035848  0
H  H86  1  0.67609586  0.79161216  0.91559042  1  0.092079  0  0.10077  0.112444  0  1.035875  0
H  H87  1  0.82390400  0.08440975  0.20838770  1  0.092068  0  0.100766  0.112439  0  1.035885  0
H  H88  1  0.43692704  0.09723151  0.10130693  1  0.035835  0  0.095277  0.091508  0  1.02383  0
H  H89  1  0.06307155  0.89869292  0.90276898  1  0.035835  0  0.095271  0.0915  0  1.0238  0
H  H90  1  0.56307068  0.90276853  0.89869306  1  0.035782  0  0.095266  0.091531  0  1.023796  0
H  H91  1  0.93692992  0.10130656  0.09723172  1  0.035747  0  0.095272  0.091519  0  1.02383  0
H  H92  1  0.68203137  0.11605658  0.13078826  1  0.056506  0  0.09356  0.091427  0  1.038466  0
H  H93  1  0.81796823  0.86921173  0.88394353  1  0.056541  0  0.093582  0.091448  0  1.038404  0
H  H94  1  0.31796717  0.88394289  0.86921166  1  0.056506  0  0.093563  0.091435  0  1.038442  0
H  H95  1  0.18203356  0.13078889  0.11605689  1  0.0565  0  0.093559  0.091446  0  1.038462  0
H  H96  1  0.81412668  0.24585647  0.14521189  1  0.088823  0  0.099074  0.099199  0  1.016116  0
H  H97  1  0.68587254  0.85478741  0.75414274  1  0.088817  0  0.099074  0.099182  0  1.016186  0
H  H98  1  0.18587170  0.75414242  0.85478845  1  0.08879  0  0.09909  0.099218  0  1.01616  0
H  H99  1  0.31412810  0.14521264  0.24585802  1  0.088809  0  0.099091  0.099245  0  1.016166  0
H  H100  1  0.70241204  0.35454997  0.12703322  1  0.147246  0  0.108508  0.132892  0  1.029616  0
H  H101  1  0.79758945  0.87296575  0.64545059  1  0.147259  0  0.108504  0.132909  0  1.029644  0
H  H102  1  0.29758747  0.64544950  0.87296678  1  0.147223  0  0.108495  0.132892  0  1.029626  0
H  H103  1  0.20241136  0.12703487  0.35455086  1  0.147244  0  0.108496  0.132925  0  1.029568  0
H  H104  1  0.69508843  0.57762138  0.28961223  1  0.067334  0  0.100532  0.113444  0  1.02318  0
H  H105  1  0.80490958  0.71038688  0.42237779  1  0.067238  0  0.100542  0.113438  0  1.023119  0
H  H106  1  0.30491108  0.42237809  0.71038777  1  0.067326  0  0.100546  0.113467  0  1.023099  0
H  H107  1  0.19508912  0.28961316  0.57762228  1  0.067247  0  0.100533  0.113446  0  1.02315  0
H  H108  1  0.61008909  0.63325707  0.41002385  1  0.08445  0  0.094858  0.087626  0  1.036812  0
H  H109  1  0.88991069  0.58997592  0.36674198  1  0.084047  0  0.094866  0.087632  0  1.036788  0
H  H110  1  0.38991155  0.36674297  0.58997581  1  0.084058  0  0.094851  0.087633  0  1.036817  0
H  H111  1  0.11008898  0.41002412  0.63325816  1  0.084065  0  0.094871  0.087633  0  1.036777  0
H  H112  1  0.37976450  0.58785508  0.42472452  1  0.087595  0  0.096071  0.096365  0  1.023358  0
H  H113  1  0.12023554  0.57527620  0.41214413  1  0.08769  0  0.09604  0.096315  0  1.023443  0
H  H114  1  0.62023435  0.41214553  0.57527569  1  0.087719  0  0.096011  0.096281  0  1.02344  0
H  H115  1  0.87976413  0.42472384  0.58785601  1  0.087586  0  0.096053  0.096332  0  1.023418  0
H  H116  1  0.23515864  0.48525488  0.31911785  1  0.066648  0  0.097265  0.092448  0  1.028315  0
H  H117  1  0.26483973  0.68088195  0.51474499  1  0.06666  0  0.097279  0.092475  0  1.028295  0
H  H118  1  0.76484022  0.51474574  0.68088235  1  0.066663  0  0.097277  0.092477  0  1.028321  0
H  H119  1  0.73515978  0.31911752  0.48525501  1  0.066655  0  0.097273  0.092467  0  1.028327  0
H  H120  1  0.32076359  0.42982248  0.20115523  1  0.134596  0  0.110448  0.129164  0  1.033026  0
H  H121  1  0.17923510  0.79884386  0.57017760  1  0.134614  0  0.110458  0.129193  0  1.033011  0
H  H122  1  0.67923494  0.57017699  0.79884525  1  0.134601  0  0.110452  0.129157  0  1.033016  0
H  H123  1  0.82076441  0.20115561  0.42982295  1  0.134611  0  0.110467  0.129186  0  1.033011  0
C  C124  1  0.22269582  0.58836601  0.15294921  1  0.458928  0  0.053411  0.10842  0  3.920945  0
C  C125  1  0.27730470  0.84704931  0.41163297  1  0.459597  0  0.053389  0.108339  0  3.920954  0
C  C126  1  0.77730678  0.41163403  0.84705003  1  0.459554  0  0.053367  0.108325  0  3.920863  0
C  C127  1  0.72269399  0.15295072  0.58836544  1  0.459592  0  0.053429  0.108403  0  3.920989  0
C  C128  1  0.22007327  0.64774427  0.21603664  1  0.023111  0  -0.082079  -0.175924  0  3.937807  0
C  C129  1  0.27992843  0.78396218  0.35225546  1  0.023223  0  -0.082121  -0.175934  0  3.937833  0
C  C130  1  0.77993046  0.35225635  0.78396226  1  0.023229  0  -0.082092  -0.175871  0  3.937748  0
C  C131  1  0.72007155  0.21603900  0.64774330  1  0.023098  0  -0.082024  -0.175733  0  3.937739  0
C  C132  1  0.25236850  0.72390059  0.21128240  1  -0.043767  0  0.009935  0.098033  0  3.997166  0
C  C133  1  0.24763231  0.78871604  0.27609828  1  -0.073001  0  0.009904  0.097946  0  3.997108  0
C  C134  1  0.74763408  0.27609944  0.78871575  1  -0.073003  0  0.009961  0.098047  0  3.997  0
C  C135  1  0.75236638  0.21128399  0.72389957  1  -0.043776  0  0.009897  0.097915  0  3.997155  0
C  C136  1  0.29005795  0.73637540  0.14290952  1  -0.002619  0  -0.080614  -0.173645  0  3.930257  0
C  C137  1  0.20994259  0.85708981  0.26362336  1  -0.002685  0  -0.080602  -0.173591  0  3.930123  0
C  C138  1  0.70994367  0.26362464  0.85708966  1  -0.00267  0  -0.080588  -0.173588  0  3.930117  0
C  C139  1  0.79005805  0.14291022  0.73637464  1  -0.002639  0  -0.080586  -0.173596  0  3.930118  0
C  C140  1  0.28993231  0.67369824  0.08234215  1  0.45313  0  0.055824  0.112843  0  3.91422  0
C  C141  1  0.21006854  0.91765642  0.32630086  1  0.453151  0  0.055829  0.11288  0  3.914344  0
C  C142  1  0.71007028  0.32630180  0.91765709  1  0.453138  0  0.055816  0.112847  0  3.914335  0
C  C143  1  0.78992917  0.08234361  0.67369692  1  0.453172  0  0.055847  0.112915  0  3.914475  0
C  C144  1  0.36333976  0.38267705  0.89043562  1  0.430878  0  0.053157  0.100314  0  3.91862  0
C  C145  1  0.13665821  0.10956417  0.61732294  1  0.43089  0  0.053133  0.100263  0  3.918617  0
C  C146  1  0.63666089  0.61732299  0.10956459  1  0.430858  0  0.053142  0.100297  0  3.918685  0
C  C147  1  0.86333934  0.89043529  0.38267636  1  0.430891  0  0.053183  0.100355  0  3.918559  0
C  C148  1  0.36546707  0.32036288  0.83019957  1  0.0275  0  -0.079111  -0.160113  0  3.923708  0
C  C149  1  0.13453236  0.16980031  0.67963725  1  0.027426  0  -0.079112  -0.160073  0  3.923716  0
C  C150  1  0.63453342  0.67963659  0.16980106  1  0.02751  0  -0.079111  -0.160126  0  3.923768  0
C  C151  1  0.86546617  0.83019916  0.32036212  1  0.027497  0  -0.079122  -0.160132  0  3.923772  0
C  C152  1  0.25037517  0.28862278  0.77663496  1  -0.061925  0  0.012329  0.100846  0  4.00016  0
C  C153  1  0.24962298  0.22336470  0.71137730  1  -0.033602  0  0.012319  0.10083  0  4.000136  0
C  C154  1  0.74962466  0.71137783  0.22336531  1  -0.033607  0  0.012337  0.10086  0  4.000117  0
C  C155  1  0.75037556  0.77663477  0.28862262  1  -0.061948  0  0.012343  0.100869  0  4.00022  0
C  C156  1  0.13659211  0.32167947  0.78708236  1  -0.022618  0  -0.082392  -0.181113  0  3.946493  0
C  C157  1  0.36340642  0.21291777  0.67831969  1  -0.022675  0  -0.082433  -0.181126  0  3.946509  0
C  C158  1  0.86340870  0.67832114  0.21291744  1  -0.02276  0  -0.08238  -0.181115  0  3.946507  0
C  C159  1  0.63659244  0.78708284  0.32167996  1  -0.022759  0  -0.082406  -0.18114  0  3.946511  0
C  C160  1  0.14221320  0.38336641  0.84940680  1  0.502429  0  0.054476  0.114128  0  3.926622  0
C  C161  1  0.35778533  0.15059311  0.61663339  1  0.502477  0  0.054562  0.114266  0  3.926643  0
C  C162  1  0.85778858  0.61663421  0.15059307  1  0.502644  0  0.054474  0.114143  0  3.926572  0
C  C163  1  0.64221352  0.84940750  0.38336682  1  0.502689  0  0.05451  0.114222  0  3.926593  0
C  C164  1  0.01190167  0.74275312  0.00213502  1  0.433161  0  0.089895  0.311991  0  4.018029  0
C  C165  1  0.48810006  0.99786410  0.25724693  1  0.433157  0  0.089853  0.312  0  4.017962  0
C  C166  1  0.98809784  0.25724635  0.99786497  1  0.433181  0  0.089907  0.312069  0  4.017917  0
C  C167  1  0.51190254  0.00213594  0.74275343  1  0.433211  0  0.089896  0.312019  0  4.018073  0
C  C168  1  0.09362906  0.81464368  0.02301810  1  -0.086872  0  -0.106063  -0.212296  0  3.996826  0
C  C169  1  0.40637320  0.97698171  0.18535579  1  -0.08687  0  -0.106056  -0.212326  0  3.996893  0
C  C170  1  0.90637240  0.18535579  0.97698204  1  -0.086841  0  -0.106042  -0.212265  0  3.99684  0
C  C171  1  0.59362745  0.02301834  0.81464442  1  -0.086891  0  -0.106089  -0.212356  0  3.996982  0
C  C172  1  0.04563753  0.87923074  0.05977914  1  -0.064963  0  -0.099082  -0.075315  0  4.053508  0
C  C173  1  0.45436491  0.94022263  0.12076833  1  -0.064941  0  -0.099055  -0.075345  0  4.053556  0
C  C174  1  0.95436297  0.12076874  0.94022314  1  -0.065036  0  -0.09906  -0.075348  0  4.053498  0
C  C175  1  0.54563656  0.05977684  0.87923181  1  -0.064957  0  -0.099066  -0.075379  0  4.053566  0
C  C176  1  0.91675621  0.87238904  0.07624171  1  -0.005751  0  -0.110362  -0.126105  0  4.041337  0
C  C177  1  0.58324747  0.92376028  0.12761030  1  -0.00576  0  -0.110359  -0.126041  0  4.041256  0
C  C178  1  0.08324526  0.12761044  0.92376064  1  -0.005739  0  -0.110322  -0.12598  0  4.041199  0
C  C179  1  0.41675415  0.07623977  0.87238998  1  -0.005748  0  -0.110346  -0.126002  0  4.041225  0
C  C180  1  0.83618126  0.80039648  0.05465148  1  -0.082767  0  -0.095757  -0.064029  0  4.043437  0
C  C181  1  0.66382089  0.94535046  0.19960356  1  -0.082624  0  -0.095771  -0.0641  0  4.04358  0
C  C182  1  0.16382022  0.19960300  0.94535142  1  -0.082609  0  -0.095784  -0.064127  0  4.04358  0
C  C183  1  0.33617959  0.05464901  0.80039651  1  -0.082638  0  -0.095771  -0.064062  0  4.043499  0
C  C184  1  0.88212882  0.73519712  0.01700955  1  -0.011243  0  -0.104833  -0.21269  0  3.956133  0
C  C185  1  0.61787397  0.98299051  0.26480273  1  -0.011349  0  -0.104782  -0.212606  0  3.956093  0
C  C186  1  0.11787167  0.26480235  0.98299162  1  -0.011359  0  -0.104808  -0.212708  0  3.9562  0
C  C187  1  0.38212765  0.01700953  0.73519700  1  -0.011336  0  -0.104805  -0.21266  0  3.956249  0
C  C188  1  0.96449058  0.60797510  0.79328767  1  0.385659  0  0.083297  0.287509  0  4.028994  0
C  C189  1  0.53550825  0.20671232  0.39202394  1  0.385662  0  0.083298  0.28752  0  4.028991  0
C  C190  1  0.03550991  0.39202437  0.20671240  1  0.385691  0  0.083327  0.287597  0  4.028948  0
C  C191  1  0.46449060  0.79328829  0.60797516  1  0.38568  0  0.083314  0.287597  0  4.028897  0
C  C192  1  0.91690343  0.66661760  0.76521388  1  -0.114451  0  -0.099711  -0.198913  0  3.977366  0
C  C193  1  0.58309626  0.23478632  0.33338180  1  -0.114131  0  -0.099763  -0.198951  0  3.97729  0
C  C194  1  0.08309706  0.33338187  0.23478619  1  -0.114619  0  -0.099761  -0.199049  0  3.977385  0
C  C195  1  0.41690177  0.76521486  0.66661737  1  -0.114463  0  -0.099763  -0.198934  0  3.977319  0
C  C196  1  0.95936239  0.68378126  0.70003654  1  -0.062204  0  -0.091353  -0.061115  0  4.012145  0
C  C197  1  0.54063652  0.29996460  0.31621740  1  -0.062137  0  -0.091326  -0.061271  0  4.012103  0
C  C198  1  0.04063794  0.31621763  0.29996339  1  -0.062149  0  -0.091329  -0.061102  0  4.012146  0
C  C199  1  0.45935988  0.70003773  0.68378190  1  -0.062149  0  -0.091349  -0.061126  0  4.012132  0
C  C200  1  0.04922547  0.64310116  0.66402021  1  -0.017336  0  -0.103105  -0.107014  0  4.019421  0
C  C201  1  0.45077323  0.33597988  0.35689824  1  -0.017881  0  -0.103057  -0.106884  0  4.01948  0
C  C202  1  0.95077388  0.35689773  0.33597909  1  -0.017347  0  -0.10307  -0.10696  0  4.019558  0
C  C203  1  0.54922399  0.66402188  0.64310209  1  -0.01729  0  -0.103117  -0.107025  0  4.01961  0
C  C204  1  0.09642352  0.58481264  0.69313677  1  -0.035473  0  -0.09356  -0.064094  0  4.032995  0
C  C205  1  0.40357596  0.30686341  0.41518643  1  -0.035464  0  -0.093573  -0.064093  0  4.033224  0
C  C206  1  0.90357583  0.41518625  0.30686309  1  -0.035483  0  -0.093552  -0.064041  0  4.033152  0
C  C207  1  0.59642305  0.69313778  0.58481392  1  -0.035683  0  -0.09356  -0.064049  0  4.033134  0
C  C208  1  0.05373677  0.56629600  0.75769057  1  -0.044184  0  -0.105828  -0.211727  0  3.982683  0
C  C209  1  0.44626307  0.24231025  0.43370338  1  -0.044178  0  -0.105823  -0.211702  0  3.982727  0
C  C210  1  0.94626372  0.43370347  0.24230950  1  -0.044165  0  -0.105845  -0.21174  0  3.982708  0
C  C211  1  0.55373806  0.75769152  0.56629724  1  -0.043912  0  -0.105802  -0.211771  0  3.982804  0
C  C212  1  0.50586173  0.28677851  0.10487882  1  0.405277  0  0.088374  0.303262  0  4.028652  0
C  C213  1  0.99413701  0.89512067  0.71322220  1  0.405267  0  0.088352  0.303185  0  4.028777  0
C  C214  1  0.49413696  0.71322154  0.89512180  1  0.405399  0  0.088404  0.303335  0  4.028488  0
C  C215  1  0.00586184  0.10487995  0.28677800  1  0.405276  0  0.088367  0.303287  0  4.028692  0
C  C216  1  0.43117705  0.21466644  0.09731167  1  -0.030663  0  -0.10712  -0.208527  0  3.993484  0
C  C217  1  0.06882293  0.90268801  0.78533360  1  -0.030681  0  -0.107093  -0.208475  0  3.993555  0
C  C218  1  0.56882149  0.78533303  0.90268881  1  -0.030811  0  -0.107126  -0.208503  0  3.993538  0
C  C219  1  0.93117755  0.09731146  0.21466647  1  -0.0307  0  -0.107085  -0.208459  0  3.99363  0
C  C220  1  0.49487512  0.15341512  0.10647411  1  -0.042895  0  -0.096429  -0.067142  0  4.049502  0
C  C221  1  0.00512539  0.89352603  0.84658581  1  -0.042914  0  -0.096453  -0.067153  0  4.049463  0
C  C222  1  0.50512440  0.84658435  0.89352699  1  -0.042805  0  -0.096412  -0.067207  0  4.049561  0
C  C223  1  0.99487510  0.10647344  0.15341482  1  -0.042795  0  -0.096416  -0.067168  0  4.049503  0
C  C224  1  0.63290736  0.16413229  0.12336633  1  -0.003603  0  -0.107696  -0.12621  0  4.043822  0
C  C225  1  0.86709265  0.87663283  0.83586768  1  -0.003631  0  -0.107695  -0.126232  0  4.043763  0
C  C226  1  0.36709118  0.83586718  0.87663359  1  -0.003608  0  -0.107704  -0.126222  0  4.043868  0
C  C227  1  0.13290897  0.12336722  0.16413315  1  -0.003614  0  -0.107702  -0.126252  0  4.043842  0
C  C228  1  0.70651125  0.23655587  0.13120524  1  -0.04969  0  -0.091874  -0.056468  0  4.01281  0
C  C229  1  0.79348818  0.86879398  0.76344417  1  -0.049664  0  -0.091847  -0.056418  0  4.012808  0
C  C230  1  0.29348631  0.76344359  0.86879517  1  -0.049674  0  -0.091877  -0.056445  0  4.012804  0
C  C231  1  0.20651247  0.13120606  0.23655659  1  -0.049653  0  -0.091888  -0.056535  0  4.012928  0
C  C232  1  0.64395516  0.29855805  0.12171184  1  -0.132031  0  -0.10467  -0.220451  0  3.96706  0
C  C233  1  0.85604512  0.87828720  0.70144218  1  -0.132077  0  -0.104672  -0.220445  0  3.967093  0
C  C234  1  0.35604321  0.70144085  0.87828794  1  -0.132048  0  -0.104651  -0.220498  0  3.966956  0
C  C235  1  0.14395553  0.12171284  0.29855858  1  -0.132054  0  -0.104666  -0.220464  0  3.966987  0
C  C236  1  0.51338418  0.50073933  0.23917496  1  0.426659  0  0.090522  0.311686  0  4.015913  0
C  C237  1  0.98661309  0.76082423  0.49926050  1  0.426266  0  0.090554  0.311746  0  4.015758  0
C  C238  1  0.48661436  0.49926014  0.76082497  1  0.426237  0  0.090549  0.3117  0  4.015877  0
C  C239  1  0.01338545  0.23917524  0.50073998  1  0.426657  0  0.090499  0.311656  0  4.015899  0
C  C240  1  0.59485677  0.55808884  0.29759284  1  -0.012701  0  -0.10725  -0.206166  0  3.981572  0
C  C241  1  0.90514305  0.70240689  0.44190970  1  -0.012749  0  -0.107231  -0.206111  0  3.981399  0
C  C242  1  0.40514356  0.44191006  0.70240765  1  -0.012711  0  -0.107247  -0.206171  0  3.981507  0
C  C243  1  0.09485646  0.29759258  0.55809030  1  -0.012727  0  -0.107262  -0.206203  0  3.981578  0
C  C244  1  0.54625035  0.58917750  0.36406707  1  -0.057225  0  -0.098172  -0.074633  0  4.052068  0
C  C245  1  0.95374927  0.63593275  0.41082102  1  -0.056834  0  -0.098158  -0.074639  0  4.052022  0
C  C246  1  0.45374932  0.41082254  0.63593251  1  -0.05683  0  -0.098188  -0.074703  0  4.052065  0
C  C247  1  0.04625024  0.36406671  0.58917842  1  -0.056844  0  -0.098142  -0.07459  0  4.052084  0
C  C248  1  0.41654922  0.56376904  0.37228692  1  -0.147235  0  -0.107592  -0.123224  0  4.045974  0
C  C249  1  0.08344950  0.62771271  0.43622998  1  -0.147193  0  -0.107617  -0.123204  0  4.046035  0
C  C250  1  0.58345062  0.43623158  0.62771391  1  -0.147225  0  -0.107537  -0.123081  0  4.045956  0
C  C251  1  0.91654904  0.37228675  0.56376994  1  -0.147222  0  -0.107597  -0.123175  0  4.046021  0
C  C252  1  0.33611583  0.50657375  0.31344422  1  -0.039981  0  -0.093365  -0.066135  0  4.032501  0
C  C253  1  0.16388397  0.68655596  0.49342557  1  -0.040005  0  -0.093369  -0.066163  0  4.032481  0
C  C254  1  0.66388400  0.49342687  0.68655661  1  -0.039966  0  -0.093412  -0.06626  0  4.032551  0
C  C255  1  0.83611456  0.31344351  0.50657436  1  -0.039988  0  -0.093384  -0.066222  0  4.032528  0
C  C256  1  0.38381091  0.47443288  0.24676954  1  -0.048939  0  -0.100531  -0.211462  0  3.965608  0
C  C257  1  0.11618761  0.75323009  0.52556722  1  -0.048918  0  -0.100544  -0.21149  0  3.9656  0
C  C258  1  0.61618779  0.52556716  0.75323108  1  -0.048956  0  -0.100526  -0.211394  0  3.965563  0
C  C259  1  0.88381207  0.24676995  0.47443347  1  -0.048936  0  -0.100528  -0.21143  0  3.965589  0
N  N260  1  0.25514705  0.60098545  0.08692775  1  -1.231784  0  -0.314509  -0.223393  0  3.499749  0
N  N261  1  0.24485314  0.91307093  0.39901386  1  -1.232288  0  -0.314522  -0.223366  0  3.499709  0
N  N262  1  0.74485441  0.39901402  0.91307184  1  -1.232273  0  -0.314516  -0.223373  0  3.499649  0
N  N263  1  0.75514669  0.08692968  0.60098476  1  -1.232348  0  -0.314591  -0.223512  0  3.499918  0
N  N264  1  0.25359821  0.41356340  0.90003899  1  -1.23923  0  -0.315926  -0.220454  0  3.51709  0
N  N265  1  0.24640065  0.09996079  0.58643608  1  -1.239198  0  -0.315929  -0.220484  0  3.516972  0
N  N266  1  0.74640228  0.58643607  0.09996108  1  -1.239306  0  -0.315915  -0.220451  0  3.516984  0
N  N267  1  0.75359821  0.90003982  0.41356412  1  -1.239333  0  -0.315943  -0.220536  0  3.517076  0
O  O268  1  0.36876457  0.46479954  0.07367689  1  -1.458193  0  -0.356354  -0.770153  0  2.35166  0
O  O269  1  0.13123499  0.92632376  0.53519985  1  -1.458082  0  -0.356405  -0.770261  0  2.35159  0
O  O270  1  0.63123592  0.53519993  0.92632318  1  -1.458183  0  -0.356343  -0.770163  0  2.351668  0
O  O271  1  0.86876597  0.07367742  0.46479842  1  -1.458038  0  -0.356426  -0.770275  0  2.351829  0
O  O272  1  0.12219879  0.55247910  0.91975531  1  -1.44938  0  -0.354968  -0.759713  0  2.324181  0
O  O273  1  0.37780212  0.08024535  0.44752070  1  -1.449299  0  -0.354966  -0.759714  0  2.323942  0
O  O274  1  0.87780284  0.44752095  0.08024552  1  -1.449356  0  -0.354941  -0.759702  0  2.32412  0
O  O275  1  0.62219705  0.91975641  0.55247923  1  -1.449418  0  -0.355049  -0.759864  0  2.324257  0
O  O276  1  0.91604590  0.56632825  0.98682864  1  -1.457424  0  -0.352922  -0.763718  0  2.351562  0
O  O277  1  0.58395410  0.01317358  0.43367176  1  -1.457413  0  -0.352934  -0.763677  0  2.351535  0
O  O278  1  0.08395557  0.43367122  0.01317150  1  -1.457398  0  -0.352888  -0.763634  0  2.351578  0
O  O279  1  0.41604458  0.98682989  0.56632796  1  -1.457401  0  -0.352896  -0.763752  0  2.351445  0
O  O280  1  0.06981061  0.68228576  0.96759543  1  -1.322364  0  -0.180179  -0.430387  0  2.583764  0
O  O281  1  0.43019007  0.03240357  0.31771319  1  -1.322342  0  -0.180171  -0.430433  0  2.583663  0
O  O282  1  0.93018971  0.31771314  0.03240395  1  -1.322352  0  -0.180186  -0.430442  0  2.58368  0
O  O283  1  0.56981057  0.96759647  0.68228591  1  -1.32235  0  -0.180171  -0.43043  0  2.583672  0
O  O284  1  0.91350574  0.58981780  0.85598612  1  -1.318879  0  -0.186786  -0.433082  0  2.542938  0
O  O285  1  0.58649424  0.14401362  0.41018054  1  -1.318743  0  -0.186775  -0.433077  0  2.542912  0
O  O286  1  0.08649539  0.41018052  0.14401320  1  -1.31874  0  -0.186772  -0.433102  0  2.542872  0
O  O287  1  0.41350672  0.85598757  0.58981829  1  -1.318892  0  -0.186785  -0.433199  0  2.542934  0
O  O288  1  0.58991736  0.42615474  0.03778140  1  -1.453599  0  -0.353459  -0.769775  0  2.362322  0
O  O289  1  0.91008133  0.96221734  0.57384637  1  -1.453686  0  -0.353398  -0.769702  0  2.362404  0
O  O290  1  0.41008345  0.57384588  0.96221895  1  -1.453616  0  -0.353457  -0.769796  0  2.362416  0
O  O291  1  0.08991688  0.03778099  0.42615438  1  -1.45353  0  -0.35346  -0.769858  0  2.362268  0
O  O292  1  0.43221993  0.34391846  0.09597611  1  -1.322822  0  -0.18414  -0.420765  0  2.532411  0
O  O293  1  0.06777928  0.90402411  0.65608164  1  -1.322783  0  -0.184148  -0.420766  0  2.532278  0
O  O294  1  0.56777973  0.65608158  0.90402347  1  -1.322807  0  -0.184173  -0.420833  0  2.532365  0
O  O295  1  0.93221957  0.09597650  0.34391801  1  -1.32282  0  -0.184176  -0.420902  0  2.532374  0
O  O296  1  0.56993938  0.47201449  0.17568683  1  -1.315916  0  -0.183435  -0.424926  0  2.528979  0
O  O297  1  0.93005664  0.82431278  0.52798589  1  -1.31555  0  -0.18349  -0.425035  0  2.528962  0
O  O298  1  0.43005916  0.52798497  0.82431365  1  -1.315533  0  -0.183419  -0.424881  0  2.528925  0
O  O299  1  0.06993994  0.17568668  0.47201500  1  -1.31592  0  -0.18341  -0.424898  0  2.528935  0
