# generated using pymatgen
data_ZnH8C8N(ClO)2
_symmetry_space_group_name_H-M   'P 1'
_cell_length_a   6.72876572
_cell_length_b   12.08091003
_cell_length_c   12.81176001
_cell_angle_alpha   89.99999996
_cell_angle_beta   89.99997755
_cell_angle_gamma   95.22981976
_symmetry_Int_Tables_number   1
_chemical_formula_structural   ZnH8C8N(ClO)2
_chemical_formula_sum   'Zn4 H32 C32 N4 Cl8 O8'
_cell_volume   1037.12750360
_cell_formula_units_Z   4
loop_
 _symmetry_equiv_pos_site_id
 _symmetry_equiv_pos_as_xyz
  1  'x, y, z'
loop_
 _atom_site_type_symbol
 _atom_site_label
 _atom_site_symmetry_multiplicity
 _atom_site_fract_x
 _atom_site_fract_y
 _atom_site_fract_z
 _atom_site_occupancy
 _atom_site_hle17_bader_spin_density
 _atom_site_hle17_ddec_charge
 _atom_site_hle17_ddec_spin_density
 _atom_site_hle17_ddec_sum_bond_order
 _atom_site_hle17_magmom
 _atom_site_hse06_10hf_bader_spin_density
 _atom_site_hse06_10hf_ddec_charge
 _atom_site_hse06_10hf_ddec_spin_density
 _atom_site_hse06_10hf_ddec_sum_bond_order
 _atom_site_hse06_10hf_magmom
 _atom_site_hse06_bader_spin_density
 _atom_site_hse06_ddec_charge
 _atom_site_hse06_ddec_spin_density
 _atom_site_hse06_ddec_sum_bond_order
 _atom_site_hse06_magmom
 _atom_site_pbe_bader_spin_density
 _atom_site_pbe_cm5_charge
 _atom_site_pbe_ddec_charge
 _atom_site_pbe_ddec_spin_density
 _atom_site_pbe_ddec_sum_bond_order
 _atom_site_pbe_magmom
Zn  Zn0  1  0.92550910  0.65363384  0.49332166  1  0  0.985702  0  2.049965  0  0  0.827522  0  2.55846  0  0  0.871418  0  2.499658  0  0  0.544036  0.796897  0  2.59869  0
Zn  Zn1  1  0.57449229  0.84636626  0.99332248  1  0  0.98569  0  2.049993  0  0  0.827503  0  2.55849  0  0  0.871406  0  2.499691  0  0  0.544023  0.79688  0  2.598722  0
Zn  Zn2  1  0.07448992  0.34636678  0.50667823  1  0  0.985685  0  2.049995  0  0  0.827491  0  2.558504  0  0  0.871398  0  2.499707  0  0  0.544029  0.796868  0  2.598746  0
Zn  Zn3  1  0.42550946  0.15363270  0.00667820  1  0  0.98566  0  2.050023  0  0  0.827461  0  2.558557  0  0  0.871357  0  2.499756  0  0  0.544005  0.796836  0  2.598787  0
H  H4  1  0.99941394  0.33425176  0.89938218  1  0  0.120786  0  0.958013  0  0  0.129073  0  1.019148  0  0  0.132551  0  1.017464  0  0  0.110049  0.126551  0  1.020546  0
H  H5  1  0.50058620  0.16574839  0.39938301  1  0  0.120778  0  0.958047  0  0  0.129065  0  1.019179  0  0  0.132543  0  1.017495  0  0  0.110045  0.126543  0  1.020577  0
H  H6  1  0.00058645  0.66574803  0.10061693  1  0  0.120781  0  0.958043  0  0  0.129068  0  1.019173  0  0  0.132547  0  1.017489  0  0  0.110044  0.126546  0  1.020571  0
H  H7  1  0.49941419  0.83425140  0.60061766  1  0  0.120818  0  0.957965  0  0  0.12912  0  1.019087  0  0  0.132598  0  1.017402  0  0  0.110066  0.126597  0  1.020487  0
H  H8  1  0.18086653  0.67785876  0.97950085  1  0  0.118884  0  0.98116  0  0  0.125126  0  1.045144  0  0  0.128683  0  1.043393  0  0  0.103719  0.122463  0  1.046694  0
H  H9  1  0.31913246  0.82214148  0.47950083  1  0  0.118881  0  0.981215  0  0  0.125126  0  1.045189  0  0  0.128683  0  1.043438  0  0  0.103712  0.122466  0  1.046736  0
H  H10  1  0.81913250  0.32214185  0.02049905  1  0  0.118885  0  0.981223  0  0  0.125121  0  1.045214  0  0  0.128678  0  1.043463  0  0  0.103719  0.122456  0  1.046766  0
H  H11  1  0.68086792  0.17785831  0.52049985  1  0  0.118878  0  0.981218  0  0  0.125125  0  1.045209  0  0  0.128682  0  1.043458  0  0  0.103713  0.12246  0  1.046762  0
H  H12  1  0.40055348  0.68595316  0.82518635  1  0  0.10867  0  0.95455  0  0  0.112993  0  1.024303  0  0  0.116467  0  1.020488  0  0  0.122907  0.11029  0  1.0273  0
H  H13  1  0.09944712  0.81404709  0.32518638  1  0  0.108751  0  0.954468  0  0  0.113034  0  1.024265  0  0  0.116508  0  1.020452  0  0  0.122918  0.11033  0  1.027262  0
H  H14  1  0.59944691  0.31404663  0.17481355  1  0  0.108754  0  0.954468  0  0  0.113038  0  1.024264  0  0  0.116512  0  1.020451  0  0  0.122918  0.110334  0  1.027261  0
H  H15  1  0.90055327  0.18595270  0.67481352  1  0  0.108697  0  0.95453  0  0  0.11302  0  1.024277  0  0  0.116494  0  1.020463  0  0  0.122912  0.110317  0  1.027273  0
H  H16  1  0.73512077  0.50854703  0.77810769  1  0  0.119218  0  0.918014  0  0  0.133596  0  0.976915  0  0  0.135661  0  0.977242  0  0  0.102043  0.13216  0  0.976748  0
H  H17  1  0.76487943  0.99145390  0.27810769  1  0  0.119224  0  0.918005  0  0  0.133599  0  0.976907  0  0  0.135663  0  0.977234  0  0  0.102044  0.132163  0  0.976739  0
H  H18  1  0.26487839  0.49145441  0.22189220  1  0  0.119248  0  0.917982  0  0  0.133623  0  0.976883  0  0  0.135687  0  0.97721  0  0  0.10205  0.132187  0  0.976715  0
H  H19  1  0.23512096  0.00854588  0.72189221  1  0  0.119245  0  0.917984  0  0  0.133622  0  0.976884  0  0  0.135686  0  0.977211  0  0  0.102052  0.132186  0  0.976716  0
H  H20  1  0.59909942  0.38144129  0.74531284  1  0  0.121574  0  0.966917  0  0  0.131972  0  1.033569  0  0  0.134702  0  1.032791  0  0  0.091733  0.129996  0  1.034256  0
H  H21  1  0.90090070  0.11855803  0.24531359  1  0  0.121573  0  0.966927  0  0  0.131974  0  1.033568  0  0  0.134705  0  1.032791  0  0  0.091731  0.129998  0  1.034255  0
H  H22  1  0.40090245  0.61855850  0.25468706  1  0  0.121576  0  0.966918  0  0  0.131975  0  1.033563  0  0  0.134705  0  1.032785  0  0  0.091723  0.129999  0  1.034251  0
H  H23  1  0.09909956  0.88144093  0.75468709  1  0  0.12157  0  0.966932  0  0  0.131972  0  1.033575  0  0  0.134702  0  1.032797  0  0  0.09173  0.129995  0  1.034265  0
H  H24  1  0.23498648  0.35581126  0.74946765  1  0  0.107012  0  0.970112  0  0  0.112463  0  1.03758  0  0  0.115842  0  1.034287  0  0  0.117636  0.109903  0  1.040083  0
H  H25  1  0.26501434  0.14418904  0.24946765  1  0  0.106976  0  0.970109  0  0  0.112423  0  1.037584  0  0  0.115801  0  1.034293  0  0  0.117615  0.109864  0  1.040086  0
H  H26  1  0.76501391  0.64418853  0.25053224  1  0  0.106992  0  0.970093  0  0  0.112437  0  1.03757  0  0  0.115816  0  1.034278  0  0  0.117626  0.109878  0  1.040073  0
H  H27  1  0.73498605  0.85581075  0.75053225  1  0  0.106992  0  0.970097  0  0  0.11243  0  1.037575  0  0  0.115809  0  1.034282  0  0  0.117622  0.109871  0  1.040078  0
H  H28  1  0.50262435  0.61694505  0.67874744  1  0  0.089307  0  0.915039  0  0  0.104852  0  0.974652  0  0  0.106041  0  0.973674  0  0  0.114707  0.103876  0  0.975499  0
H  H29  1  0.99737579  0.88305506  0.17874739  1  0  0.089292  0  0.914994  0  0  0.104854  0  0.974625  0  0  0.106043  0  0.973647  0  0  0.114702  0.103877  0  0.975471  0
H  H30  1  0.49737616  0.38305557  0.32125245  1  0  0.089296  0  0.915016  0  0  0.104881  0  0.974623  0  0  0.106072  0  0.97364  0  0  0.114696  0.103904  0  0.975469  0
H  H31  1  0.00262311  0.11694472  0.82125250  1  0  0.089325  0  0.915023  0  0  0.104883  0  0.974641  0  0  0.106074  0  0.973662  0  0  0.114714  0.103906  0  0.975487  0
H  H32  1  0.37915896  0.49454535  0.62550418  1  0  0.102443  0  0.938639  0  0  0.11291  0  1.007424  0  0  0.114073  0  1.00677  0  0  0.113335  0.111957  0  1.008017  0
H  H33  1  0.12084195  0.00545496  0.12550421  1  0  0.10237  0  0.938684  0  0  0.112895  0  1.007433  0  0  0.114059  0  1.006779  0  0  0.113323  0.111942  0  1.008025  0
H  H34  1  0.62084156  0.50545527  0.37449493  1  0  0.102429  0  0.938652  0  0  0.112915  0  1.007453  0  0  0.114078  0  1.006801  0  0  0.113336  0.111963  0  1.008046  0
H  H35  1  0.87915844  0.99454483  0.87449568  1  0  0.102444  0  0.938647  0  0  0.112921  0  1.007439  0  0  0.114085  0  1.006787  0  0  0.113335  0.111968  0  1.008031  0
C  C36  1  0.77532705  0.45747324  0.62172090  1  0  0.750514  0  3.784147  0  0  0.701158  0  4.075144  0  0  0.736697  0  4.066304  0  0  0.229656  0.676925  0  4.080484  0
C  C37  1  0.72467181  0.04252691  0.12172091  1  0  0.750515  0  3.784054  0  0  0.701181  0  4.075016  0  0  0.736718  0  4.066176  0  0  0.22967  0.676947  0  4.080353  0
C  C38  1  0.22467197  0.54252737  0.37827900  1  0  0.75052  0  3.784058  0  0  0.701174  0  4.075035  0  0  0.73671  0  4.066198  0  0  0.229668  0.676939  0  4.080375  0
C  C39  1  0.27532561  0.95747287  0.87827977  1  0  0.750541  0  3.784077  0  0  0.701202  0  4.075034  0  0  0.736739  0  4.066192  0  0  0.229682  0.676962  0  4.080382  0
C  C40  1  0.06821353  0.50432667  0.95470801  1  0  0.112583  0  3.696807  0  0  0.119001  0  3.933909  0  0  0.124552  0  3.952385  0  0  0.027621  0.115457  0  3.921408  0
C  C41  1  0.43178697  0.99567358  0.45470875  1  0  0.112592  0  3.6968  0  0  0.118998  0  3.933907  0  0  0.124549  0  3.952381  0  0  0.027618  0.115451  0  3.921409  0
C  C42  1  0.93178537  0.49567311  0.04529111  1  0  0.112557  0  3.696799  0  0  0.118949  0  3.933925  0  0  0.124503  0  3.952396  0  0  0.027586  0.115404  0  3.921424  0
C  C43  1  0.56821206  0.00432704  0.54529192  1  0  0.112548  0  3.696846  0  0  0.11896  0  3.933973  0  0  0.12451  0  3.952455  0  0  0.027587  0.115417  0  3.921472  0
C  C44  1  0.08621100  0.41357019  0.88772736  1  0  -0.114794  0  3.665015  0  0  -0.138266  0  3.921596  0  0  -0.144998  0  3.939878  0  0  -0.063543  -0.134203  0  3.909721  0
C  C45  1  0.41378971  0.08643011  0.38772733  1  0  -0.114809  0  3.665078  0  0  -0.138277  0  3.921656  0  0  -0.14501  0  3.939937  0  0  -0.06355  -0.134218  0  3.909786  0
C  C46  1  0.91378951  0.58643043  0.11227254  1  0  -0.114818  0  3.665073  0  0  -0.138287  0  3.921659  0  0  -0.145021  0  3.939941  0  0  -0.063555  -0.134228  0  3.90979  0
C  C47  1  0.58621080  0.91357051  0.61227257  1  0  -0.114823  0  3.665067  0  0  -0.138316  0  3.921629  0  0  -0.14505  0  3.939912  0  0  -0.063555  -0.134255  0  3.909761  0
C  C48  1  0.18419374  0.60382736  0.93166511  1  0  -0.117986  0  3.671732  0  0  -0.138421  0  3.923088  0  0  -0.145508  0  3.942193  0  0  -0.06753  -0.134094  0  3.910709  0
C  C49  1  0.31580665  0.89617206  0.43166587  1  0  -0.117943  0  3.671695  0  0  -0.138373  0  3.923047  0  0  -0.145459  0  3.942151  0  0  -0.067507  -0.134049  0  3.910663  0
C  C50  1  0.81580665  0.39617243  0.06833401  1  0  -0.117916  0  3.671743  0  0  -0.138337  0  3.923084  0  0  -0.145425  0  3.942189  0  0  -0.067504  -0.134009  0  3.910704  0
C  C51  1  0.68419374  0.10382773  0.56833480  1  0  -0.117913  0  3.671715  0  0  -0.138383  0  3.923101  0  0  -0.145469  0  3.942204  0  0  -0.067516  -0.134054  0  3.910723  0
C  C52  1  0.30938579  0.61035731  0.84600161  1  0  0.11052  0  3.593678  0  0  0.064722  0  3.848074  0  0  0.073429  0  3.862351  0  0  0.067839  0.059081  0  3.838711  0
C  C53  1  0.19061330  0.88964293  0.34600162  1  0  0.110328  0  3.593487  0  0  0.064557  0  3.847899  0  0  0.073264  0  3.862175  0  0  0.067765  0.058917  0  3.838536  0
C  C54  1  0.69061323  0.38964330  0.15399829  1  0  0.11032  0  3.593499  0  0  0.064549  0  3.847906  0  0  0.073255  0  3.862183  0  0  0.067759  0.058909  0  3.838541  0
C  C55  1  0.80938560  0.11035685  0.65399905  1  0  0.110385  0  3.59354  0  0  0.064608  0  3.847939  0  0  0.073315  0  3.862216  0  0  0.067778  0.058968  0  3.838576  0
C  C56  1  0.64304037  0.46578519  0.71641673  1  0  -0.301895  0  3.661753  0  0  -0.337435  0  3.904528  0  0  -0.345828  0  3.913245  0  0  -0.167025  -0.331724  0  3.898591  0
C  C57  1  0.85695990  0.03421496  0.21641748  1  0  -0.301965  0  3.661718  0  0  -0.337485  0  3.904513  0  0  -0.345875  0  3.91323  0  0  -0.167059  -0.331772  0  3.898573  0
C  C58  1  0.35696163  0.53421543  0.28358317  1  0  -0.301998  0  3.661734  0  0  -0.337505  0  3.904525  0  0  -0.345897  0  3.913246  0  0  -0.167046  -0.331794  0  3.898588  0
C  C59  1  0.14303900  0.96578482  0.78358319  1  0  -0.301966  0  3.661703  0  0  -0.337501  0  3.904496  0  0  -0.34589  0  3.913215  0  0  -0.16706  -0.33179  0  3.898561  0
C  C60  1  0.21495840  0.42352406  0.80370376  1  0  0.110182  0  3.572951  0  0  0.069529  0  3.821473  0  0  0.077914  0  3.835951  0  0  0.069506  0.064043  0  3.812014  0
C  C61  1  0.28504237  0.07647624  0.30370454  1  0  0.110175  0  3.573017  0  0  0.069529  0  3.821522  0  0  0.077914  0  3.836001  0  0  0.069516  0.064044  0  3.812059  0
C  C62  1  0.78504198  0.57647573  0.19629457  1  0  0.110188  0  3.572995  0  0  0.069545  0  3.821493  0  0  0.077931  0  3.835972  0  0  0.069518  0.06406  0  3.812032  0
C  C63  1  0.71495666  0.92352437  0.69629536  1  0  0.110173  0  3.573026  0  0  0.069564  0  3.821489  0  0  0.07795  0  3.835966  0  0  0.069523  0.064078  0  3.812029  0
C  C64  1  0.46177397  0.52868632  0.69367592  1  0  0.013243  0  3.591758  0  0  -0.055911  0  3.855976  0  0  -0.050853  0  3.865733  0  0  -0.052716  -0.059045  0  3.849234  0
C  C65  1  0.03822524  0.97131394  0.19367674  1  0  0.013342  0  3.591647  0  0  -0.055937  0  3.856004  0  0  -0.050881  0  3.865766  0  0  -0.052701  -0.05907  0  3.849257  0
C  C66  1  0.53822654  0.47131430  0.30632320  1  0  0.013299  0  3.59172  0  0  -0.055989  0  3.856099  0  0  -0.050933  0  3.865861  0  0  -0.052723  -0.059122  0  3.849353  0
C  C67  1  0.96177366  0.02868585  0.80632393  1  0  0.013228  0  3.591772  0  0  -0.055991  0  3.856078  0  0  -0.050941  0  3.865848  0  0  -0.052731  -0.059124  0  3.849334  0
N  N68  1  0.32418147  0.52105379  0.78406086  1  0  0.0053  0  3.525194  0  0  0.101772  0  3.73264  0  0  0.088379  0  3.758337  0  0  -0.203186  0.110399  0  3.715329  0
N  N69  1  0.17581928  0.97894730  0.28406088  1  0  0.005445  0  3.524984  0  0  0.10195  0  3.732424  0  0  0.088558  0  3.758122  0  0  -0.20311  0.110578  0  3.715108  0
N  N70  1  0.67581917  0.47894766  0.21593904  1  0  0.005423  0  3.524989  0  0  0.101932  0  3.732423  0  0  0.08854  0  3.758121  0  0  -0.203097  0.11056  0  3.715109  0
N  N71  1  0.82418111  0.02105249  0.71593902  1  0  0.0054  0  3.52506  0  0  0.101876  0  3.732492  0  0  0.088485  0  3.758189  0  0  -0.203125  0.110504  0  3.715179  0
Cl  Cl72  1  0.72022936  0.75938348  0.40868460  1  0  -0.575949  0  0.925912  0  0  -0.514952  0  1.196033  0  0  -0.533681  0  1.174069  0  0  -0.30788  -0.501168  0  1.210969  0
Cl  Cl73  1  0.77977061  0.74061662  0.90868460  1  0  -0.57594  0  0.92592  0  0  -0.514945  0  1.196046  0  0  -0.533677  0  1.174085  0  0  -0.307878  -0.501161  0  1.210983  0
Cl  Cl74  1  0.27977115  0.24061714  0.59131529  1  0  -0.575949  0  0.92592  0  0  -0.514954  0  1.196041  0  0  -0.533686  0  1.17408  0  0  -0.307882  -0.50117  0  1.21098  0
Cl  Cl75  1  0.22022991  0.25938400  0.09131452  1  0  -0.575933  0  0.925913  0  0  -0.514924  0  1.196026  0  0  -0.533653  0  1.174063  0  0  -0.307865  -0.50114  0  1.210962  0
Cl  Cl76  1  0.10540694  0.71613910  0.63047621  1  0  -0.579529  0  0.931833  0  0  -0.519571  0  1.205258  0  0  -0.537245  0  1.182004  0  0  -0.310085  -0.506671  0  1.221091  0
Cl  Cl77  1  0.39459231  0.78386116  0.13047618  1  0  -0.57954  0  0.931849  0  0  -0.519571  0  1.205254  0  0  -0.537249  0  1.182005  0  0  -0.310089  -0.506674  0  1.221089  0
Cl  Cl78  1  0.89459357  0.28386152  0.36952447  1  0  -0.57953  0  0.931868  0  0  -0.51956  0  1.205284  0  0  -0.537238  0  1.182034  0  0  -0.310082  -0.506661  0  1.221121  0
Cl  Cl79  1  0.60540782  0.21613697  0.86952372  1  0  -0.579542  0  0.931885  0  0  -0.519565  0  1.205298  0  0  -0.537239  0  1.182046  0  0  -0.310085  -0.506666  0  1.221131  0
O  O80  1  0.90341439  0.38605579  0.62722677  1  0  -0.635899  0  2.071883  0  0  -0.565896  0  2.34511  0  0  -0.595535  0  2.331489  0  0  -0.316739  -0.545194  0  2.353712  0
O  O81  1  0.59658447  0.11394436  0.12722680  1  0  -0.635864  0  2.07183  0  0  -0.56589  0  2.345071  0  0  -0.595523  0  2.331445  0  0  -0.316734  -0.545194  0  2.353685  0
O  O82  1  0.09658464  0.61394482  0.37277313  1  0  -0.635904  0  2.071854  0  0  -0.565899  0  2.345061  0  0  -0.595534  0  2.331442  0  0  -0.31674  -0.545196  0  2.353663  0
O  O83  1  0.40341579  0.88605460  0.87277310  1  0  -0.635882  0  2.071808  0  0  -0.565886  0  2.345025  0  0  -0.595521  0  2.331401  0  0  -0.316733  -0.545183  0  2.353631  0
O  O84  1  0.75239633  0.52058070  0.54407427  1  0  -0.649869  0  2.09984  0  0  -0.576216  0  2.374134  0  0  -0.602744  0  2.356133  0  0  -0.326064  -0.557873  0  2.385996  0
O  O85  1  0.74760391  0.97941942  0.04407427  1  0  -0.649863  0  2.099842  0  0  -0.576205  0  2.374118  0  0  -0.602734  0  2.356119  0  0  -0.326063  -0.557863  0  2.38598  0
O  O86  1  0.24760406  0.47941909  0.45592562  1  0  -0.649851  0  2.09983  0  0  -0.576194  0  2.374115  0  0  -0.602723  0  2.356118  0  0  -0.326061  -0.557852  0  2.385979  0
O  O87  1  0.25239648  0.02058037  0.95592562  1  0  -0.649856  0  2.099929  0  0  -0.576197  0  2.374206  0  0  -0.602725  0  2.356205  0  0  -0.326044  -0.557851  0  2.38607  0
