# generated using pymatgen
data_ZnH27C31I4NO4
_symmetry_space_group_name_H-M   'P 1'
_cell_length_a   10.74722090
_cell_length_b   18.79417775
_cell_length_c   19.51425364
_cell_angle_alpha   88.83771732
_cell_angle_beta   85.43743554
_cell_angle_gamma   89.05996654
_symmetry_Int_Tables_number   1
_chemical_formula_structural   ZnH27C31I4NO4
_chemical_formula_sum   'Zn2 H54 C62 I8 N2 O8'
_cell_volume   3927.85827123
_cell_formula_units_Z   2
loop_
 _symmetry_equiv_pos_site_id
 _symmetry_equiv_pos_as_xyz
  1  'x, y, z'
loop_
 _atom_site_type_symbol
 _atom_site_label
 _atom_site_symmetry_multiplicity
 _atom_site_fract_x
 _atom_site_fract_y
 _atom_site_fract_z
 _atom_site_occupancy
 _atom_site_pbe_bader_charge
 _atom_site_pbe_bader_spin_density
 _atom_site_pbe_cm5_charge
 _atom_site_pbe_ddec_charge
 _atom_site_pbe_ddec_spin_density
 _atom_site_pbe_ddec_sum_bond_order
 _atom_site_pbe_magmom
Zn  Zn0  1  0.49575494  0.58556333  0.50187972  1  1.323736  0  0.689964  0.894401  0  2.27059  0
Zn  Zn1  1  0.50854563  0.41533887  0.49660514  1  1.316636  0  0.689326  0.892728  0  2.286225  0
H  H2  1  0.08787991  0.38276684  0.45824052  1  0.093357  0  0.106397  0.118133  0  0.983853  0
H  H3  1  0.91762947  0.61479073  0.53882714  1  0.076307  0  0.111543  0.125178  0  0.967252  0
H  H4  1  0.48812034  0.37626244  0.84804839  1  0.085376  0  0.100785  0.110621  0  1.01257  0
H  H5  1  0.46698370  0.60262726  0.14465708  1  0.049267  0  0.100865  0.109658  0  1.013268  0
H  H6  1  0.36469789  0.38405920  0.17724408  1  0.079743  0  0.101385  0.114704  0  1.004787  0
H  H7  1  0.51292818  0.60372052  0.84718253  1  0.097221  0  0.101168  0.112077  0  1.010625  0
H  H8  1  0.34081957  0.83619913  0.57542073  1  0.084205  0  0.107981  0.120201  0  1.000264  0
H  H9  1  0.65453085  0.16419155  0.42259758  1  0.06021  0  0.107831  0.119806  0  1.001547  0
H  H10  1  0.66383164  0.83482596  0.43059975  1  0.083091  0  0.104976  0.117607  0  1.027127  0
H  H11  1  0.33503743  0.16763992  0.56979586  1  0.078232  0  0.105623  0.119933  0  1.022312  0
H  H12  1  0.70072511  0.93468748  0.49508010  1  0.071071  0  0.104996  0.104933  0  0.996683  0
H  H13  1  0.29578240  0.06689876  0.50455269  1  0.063746  0  0.105179  0.105641  0  0.995753  0
H  H14  1  0.29876808  0.93530627  0.50604267  1  0.069184  0  0.104965  0.103931  0  0.998118  0
H  H15  1  0.69765152  0.06625149  0.49344595  1  0.059536  0  0.104735  0.103832  0  0.997665  0
H  H16  1  0.14186911  0.41148710  0.94803123  1  0.017048  0  0.082914  0.107485  0  1.015193  0
H  H17  1  0.09597647  0.45375096  0.87140388  1  0.03808  0  0.083153  0.109204  0  1.010955  0
H  H18  1  0.24106921  0.40710712  0.87106724  1  0.026145  0  0.08259  0.11413  0  1.01754  0
H  H19  1  0.17030106  0.54602456  0.94697889  1  0.039106  0  0.091131  0.085043  0  1.000027  0
H  H20  1  0.27225536  0.53892252  0.87260643  1  0.012701  0  0.088326  0.08629  0  1.000192  0
H  H21  1  0.80308868  0.53066939  0.05578164  1  0.021841  0  0.083426  0.110717  0  1.034577  0
H  H22  1  0.70252845  0.55630671  0.12792408  1  0.021168  0  0.080854  0.110211  0  1.026882  0
H  H23  1  0.82091503  0.49070964  0.13758093  1  0.014555  0  0.082186  0.110305  0  1.004784  0
H  H24  1  0.61992883  0.43083916  0.13810164  1  0.049983  0  0.089088  0.087511  0  1.00609  0
H  H25  1  0.71436528  0.40701474  0.06476263  1  0.035979  0  0.09052  0.08113  0  0.991246  0
H  H26  1  0.17336344  0.61747899  0.04050955  1  0.017165  0  0.082997  0.107489  0  1.014729  0
H  H27  1  0.07266293  0.58965566  0.11257874  1  0.017756  0  0.085663  0.114247  0  1.003974  0
H  H28  1  0.23200622  0.60719371  0.12263398  1  0.022625  0  0.082129  0.113005  0  1.023684  0
H  H29  1  0.13115839  0.48399199  0.04227077  1  0.001313  0  0.091606  0.085469  0  0.999384  0
H  H30  1  0.19615695  0.47617777  0.12183081  1  0.041868  0  0.089597  0.087  0  0.996462  0
H  H31  1  0.72004252  0.56724111  0.87550567  1  0.010116  0  0.080439  0.110352  0  1.03925  0
H  H32  1  0.76762388  0.57359819  0.95994918  1  0.038471  0  0.083149  0.108119  0  1.025106  0
H  H33  1  0.86498352  0.52919522  0.89576530  1  0.012123  0  0.084152  0.111567  0  1.008668  0
H  H34  1  0.76386362  0.43638347  0.96847118  1  0.013092  0  0.0908  0.082103  0  1.005394  0
H  H35  1  0.69911940  0.43643500  0.88864895  1  0.035319  0  0.090127  0.088418  0  0.994804  0
H  H36  1  0.16016093  0.77089665  0.56492798  1  -0.026335  0  0.076191  0.098188  0  1.017254  0
H  H37  1  0.17279039  0.69359918  0.51356275  1  0.022877  0  0.069082  0.102503  0  1.072189  0
H  H38  1  0.11171552  0.68721694  0.60088644  1  0.036032  0  0.075183  0.104018  0  1.035852  0
H  H39  1  0.32959309  0.63999015  0.59018595  1  0.113996  0  0.09286  0.1102  0  1.054309  0
H  H40  1  0.31928013  0.71626697  0.64072892  1  0.039943  0  0.087844  0.092222  0  0.990528  0
H  H41  1  0.82935557  0.30448385  0.48046431  1  0.047122  0  0.069902  0.105293  0  1.063709  0
H  H42  1  0.83642487  0.22770178  0.42833614  1  0.015659  0  0.076402  0.098494  0  1.018621  0
H  H43  1  0.88510139  0.31128898  0.39231572  1  0.025659  0  0.074573  0.103882  0  1.040659  0
H  H44  1  0.67324074  0.28506632  0.35644664  1  0.043821  0  0.094214  0.100616  0  0.967565  0
H  H45  1  0.66894260  0.36057915  0.40784261  1  0.100575  0  0.093726  0.111872  0  1.054546  0
H  H46  1  0.72457541  0.76173058  0.33490294  1  0.017919  0  0.075538  0.104354  0  1.019983  0
H  H47  1  0.83304445  0.77322584  0.39820010  1  -0.000725  0  0.078999  0.103411  0  1.010658  0
H  H48  1  0.84390939  0.69718854  0.34620479  1  0.059934  0  0.078043  0.108093  0  1.039136  0
H  H49  1  0.74909362  0.66447362  0.46294900  1  0.068868  0  0.099164  0.119093  0  0.988286  0
H  H50  1  0.64913221  0.64855354  0.39926237  1  0.087968  0  0.091328  0.107204  0  1.031909  0
H  H51  1  0.16979466  0.22931720  0.60687877  1  0.00489  0  0.07753  0.102593  0  1.01274  0
H  H52  1  0.28425966  0.24262741  0.66671743  1  0.033535  0  0.073838  0.100955  0  1.032571  0
H  H53  1  0.16293815  0.30641360  0.65730441  1  0.053695  0  0.077758  0.109999  0  1.035057  0
H  H54  1  0.35177464  0.35523343  0.59861275  1  0.069164  0  0.092655  0.111913  0  1.035855  0
H  H55  1  0.24869574  0.33595724  0.53727333  1  0.064539  0  0.096659  0.116032  0  0.987407  0
C  C56  1  0.48877175  0.50675979  0.36791241  1  1.615168  0  0.205488  0.599149  0  4.182996  0
C  C57  1  0.50229325  0.49549945  0.63257992  1  1.600227  0  0.207159  0.59758  0  4.18085  0
C  C58  1  0.34883832  0.49835651  0.96423686  1  0.045041  0  -0.012463  0.018967  0  3.92297  0
C  C59  1  0.55578657  0.47221743  0.04404166  1  0.013924  0  -0.011972  0.017105  0  3.912127  0
C  C60  1  0.33044509  0.49615395  0.03661167  1  -0.040755  0  -0.013923  0.019497  0  3.937126  0
C  C61  1  0.57457676  0.47567467  0.97169767  1  -0.034615  0  -0.012022  0.021922  0  3.917408  0
C  C62  1  0.43436068  0.48490095  0.07524534  1  -0.051795  0  -0.014783  -0.052319  0  3.974852  0
C  C63  1  0.47067393  0.48870476  0.93301756  1  -0.042815  0  -0.014809  -0.050856  0  3.962419  0
C  C64  1  0.41302804  0.73430888  0.54292261  1  0.436359  0  0.129402  0.298258  0  3.90901  0
C  C65  1  0.58514253  0.26650093  0.45554799  1  0.422889  0  0.128463  0.294676  0  3.918258  0
C  C66  1  0.59189411  0.73353662  0.46527661  1  0.390698  0  0.122056  0.284408  0  3.913731  0
C  C67  1  0.40795211  0.26849782  0.53445496  1  0.43756  0  0.120659  0.283104  0  3.913949  0
C  C68  1  0.41191047  0.80869358  0.54245828  1  0.02846  0  -0.092768  -0.244408  0  3.927428  0
C  C69  1  0.58501073  0.19218376  0.45614001  1  0.060756  0  -0.092693  -0.244989  0  3.932051  0
C  C70  1  0.59248154  0.80762263  0.46351317  1  0.053038  0  -0.095865  -0.244388  0  3.927983  0
C  C71  1  0.40617898  0.19439873  0.53636535  1  0.016665  0  -0.096345  -0.244417  0  3.921228  0
C  C72  1  0.50123970  0.84705168  0.50216980  1  -0.10029  0  0.008163  0.124213  0  4.048781  0
C  C73  1  0.49596520  0.15443016  0.49723061  1  -0.019292  0  0.007729  0.125631  0  4.045336  0
C  C74  1  0.61174008  0.96355612  0.49613597  1  -0.099983  0  -0.086165  -0.120922  0  3.98637  0
C  C75  1  0.38473104  0.03799251  0.50347938  1  0.059096  0  -0.085759  -0.120574  0  3.985731  0
C  C76  1  0.38641048  0.96398107  0.50437101  1  -0.082424  0  -0.085552  -0.120835  0  3.985606  0
C  C77  1  0.61004104  0.03754540  0.49520756  1  0.078102  0  -0.086031  -0.120722  0  3.987412  0
C  C78  1  0.49659183  0.07601782  0.49882692  1  -0.162543  0  -0.005102  0.064102  0  3.996782  0
C  C79  1  0.49990325  0.92549348  0.50079014  1  0.01773  0  -0.005815  0.064701  0  3.994171  0
C  C80  1  0.73765168  0.49696459  0.50198934  1  1.601219  0  0.213573  0.598632  0  4.194425  0
C  C81  1  0.26709028  0.50034998  0.49620459  1  1.615635  0  0.21158  0.597087  0  4.196323  0
C  C82  1  0.96560203  0.48599638  0.43592113  1  -0.138484  0  -0.034031  0.040445  0  3.544107  0
C  C83  1  0.03959364  0.51137312  0.56159548  1  -0.11983  0  -0.034319  0.039571  0  3.549818  0
C  C84  1  0.04598007  0.55089339  0.45488182  1  -0.128616  0  -0.037332  0.037011  0  3.555  0
C  C85  1  0.95943035  0.44638192  0.54260835  1  -0.138317  0  -0.038941  0.036802  0  3.558736  0
C  C86  1  0.04884970  0.43362778  0.47645056  1  -0.011561  0  -0.077254  -0.09826  0  3.628468  0
C  C87  1  0.95639195  0.56373495  0.52099004  1  0.009853  0  -0.074437  -0.100073  0  3.628762  0
C  C88  1  0.12896685  0.49781000  0.49516704  1  0.007715  0  -0.008563  -0.043478  0  3.667951  0
C  C89  1  0.87609274  0.49938510  0.50255812  1  0.02183  0  -0.008095  -0.042344  0  3.657654  0
C  C90  1  0.50974618  0.42788405  0.74827765  1  -0.181076  0  -0.034966  0.069657  0  3.851431  0
C  C91  1  0.46052009  0.56356626  0.24941086  1  -0.290498  0  -0.037581  0.063406  0  3.868375  0
C  C92  1  0.40680278  0.44117782  0.26713824  1  -0.275664  0  -0.035639  0.069564  0  3.856871  0
C  C93  1  0.52387270  0.55492312  0.74788786  1  -0.211351  0  -0.034916  0.073252  0  3.845331  0
C  C94  1  0.49488846  0.42694130  0.82000699  1  -0.040207  0  -0.100788  -0.191569  0  3.993377  0
C  C95  1  0.45016831  0.55680920  0.17902177  1  0.028964  0  -0.099212  -0.186576  0  3.987105  0
C  C96  1  0.39344901  0.43452267  0.19701056  1  0.039982  0  -0.09966  -0.192037  0  3.990966  0
C  C97  1  0.50881628  0.55414140  0.81954559  1  -0.026045  0  -0.100218  -0.190478  0  3.994543  0
C  C98  1  0.48995586  0.49022877  0.85648998  1  0.023948  0  0.007654  0.133502  0  3.988082  0
C  C99  1  0.42228364  0.49143494  0.15154471  1  0.002167  0  0.00578  0.130763  0  3.990827  0
C  C100  1  0.51578486  0.49229945  0.70915382  1  0.021682  0  -0.027343  -0.113624  0  3.901652  0
C  C101  1  0.44867929  0.50458167  0.29541508  1  0.086692  0  -0.025848  -0.105471  0  3.904602  0
C  C102  1  0.23982335  0.51057164  0.92037746  1  -0.007204  0  -0.162979  -0.138984  0  3.981538  0
C  C103  1  0.17602268  0.44180722  0.90175185  1  -0.076137  0  -0.244402  -0.348708  0  3.957642  0
C  C104  1  0.66094510  0.45181048  0.08859930  1  -0.034509  0  -0.162998  -0.133955  0  3.978386  0
C  C105  1  0.75181644  0.51087973  0.10301540  1  -0.054567  0  -0.245135  -0.348752  0  3.94973  0
C  C106  1  0.20175268  0.50659416  0.07297899  1  -0.010461  0  -0.163333  -0.141149  0  3.988097  0
C  C107  1  0.16794169  0.58473375  0.08793389  1  -0.035363  0  -0.244196  -0.35009  0  3.959646  0
C  C108  1  0.70396369  0.46739181  0.93553890  1  0.004854  0  -0.162951  -0.135298  0  3.970597  0
C  C109  1  0.76755296  0.53848136  0.91565713  1  -0.055913  0  -0.244732  -0.349256  0  3.946181  0
C  C110  1  0.31288615  0.69743301  0.58804450  1  -0.032824  0  -0.171672  -0.20414  0  3.956838  0
C  C111  1  0.18175322  0.71349906  0.56539530  1  -0.020644  0  -0.252275  -0.331774  0  3.946759  0
C  C112  1  0.68388536  0.30297227  0.40908727  1  -0.024454  0  -0.168659  -0.202515  0  3.954671  0
C  C113  1  0.81641624  0.28525683  0.42880718  1  -0.083731  0  -0.252621  -0.334511  0  3.947783  0
C  C114  1  0.69281029  0.69176802  0.42541048  1  -0.036787  0  -0.17274  -0.20884  0  3.969891  0
C  C115  1  0.77758929  0.73381901  0.37351569  1  -0.070686  0  -0.250952  -0.344363  0  3.994855  0
C  C116  1  0.30789564  0.31069534  0.57466153  1  0.000178  0  -0.173696  -0.207298  0  3.96447  0
C  C117  1  0.22734537  0.26935897  0.62918723  1  -0.088499  0  -0.254448  -0.349501  0  3.996432  0
I  I118  1  0.90224475  0.47094753  0.33748503  1  0.09328  0  0.072334  -0.022507  0  1.3938  0
I  I119  1  0.10306148  0.52693048  0.66001497  1  0.092279  0  0.072516  -0.018327  0  1.385921  0
I  I120  1  0.11903833  0.62740646  0.38240561  1  0.107207  0  0.079705  -0.02493  0  1.48961  0
I  I121  1  0.88837409  0.36907496  0.61463903  1  0.10638  0  0.069983  -0.042237  0  1.529953  0
I  I122  1  0.53427708  0.32394193  0.70834551  1  0.119565  0  0.079256  -0.021113  0  1.578366  0
I  I123  1  0.49619550  0.66938383  0.27678897  1  0.116856  0  0.072711  -0.030268  0  1.536325  0
I  I124  1  0.35090113  0.34957339  0.32625628  1  0.108367  0  0.063078  -0.036104  0  1.500767  0
I  I125  1  0.57620569  0.65656636  0.70663935  1  0.113432  0  0.059229  -0.042351  0  1.473544  0
N  N126  1  0.50127420  0.69706658  0.50415650  1  -1.223455  0  -0.310664  -0.327885  0  3.362026  0
N  N127  1  0.49869042  0.30424327  0.49498550  1  -1.220352  0  -0.313949  -0.333704  0  3.385172  0
O  O128  1  0.48296054  0.56630286  0.39771537  1  -1.176286  0  -0.314545  -0.551829  0  2.429995  0
O  O129  1  0.49723121  0.43696223  0.60161944  1  -1.17886  0  -0.315033  -0.550949  0  2.440672  0
O  O130  1  0.49160929  0.55697070  0.60558232  1  -1.177266  0  -0.314232  -0.545951  0  2.462965  0
O  O131  1  0.52840477  0.44845538  0.39247400  1  -1.180203  0  -0.318512  -0.560155  0  2.427244  0
O  O132  1  0.68049416  0.55633792  0.50146222  1  -1.177522  0  -0.303806  -0.539786  0  2.399707  0
O  O133  1  0.32586658  0.44180548  0.48818806  1  -1.172262  0  -0.30616  -0.546641  0  2.438054  0
O  O134  1  0.30931923  0.56127658  0.50673138  1  -1.164202  0  -0.301886  -0.52401  0  2.40035  0
O  O135  1  0.69372173  0.43495933  0.50013234  1  -1.15595  0  -0.30279  -0.520895  0  2.398672  0
