# generated using pymatgen
data_HgH7C7(IN)2
_symmetry_space_group_name_H-M   'P 1'
_cell_length_a   4.35369268
_cell_length_b   12.52077651
_cell_length_c   20.02629741
_cell_angle_alpha   89.99991852
_cell_angle_beta   89.99996940
_cell_angle_gamma   95.66090099
_symmetry_Int_Tables_number   1
_chemical_formula_structural   HgH7C7(IN)2
_chemical_formula_sum   'Hg4 H28 C28 I8 N8'
_cell_volume   1086.34184710
_cell_formula_units_Z   4
loop_
 _symmetry_equiv_pos_site_id
 _symmetry_equiv_pos_as_xyz
  1  'x, y, z'
loop_
 _atom_site_type_symbol
 _atom_site_label
 _atom_site_symmetry_multiplicity
 _atom_site_fract_x
 _atom_site_fract_y
 _atom_site_fract_z
 _atom_site_occupancy
 _atom_site_hle17_bader_spin_density
 _atom_site_hle17_ddec_charge
 _atom_site_hle17_ddec_spin_density
 _atom_site_hle17_ddec_sum_bond_order
 _atom_site_hle17_magmom
 _atom_site_hse06_10hf_bader_spin_density
 _atom_site_hse06_10hf_ddec_charge
 _atom_site_hse06_10hf_ddec_spin_density
 _atom_site_hse06_10hf_ddec_sum_bond_order
 _atom_site_hse06_10hf_magmom
 _atom_site_hse06_bader_spin_density
 _atom_site_hse06_ddec_charge
 _atom_site_hse06_ddec_spin_density
 _atom_site_hse06_ddec_sum_bond_order
 _atom_site_hse06_magmom
 _atom_site_pbe_bader_spin_density
 _atom_site_pbe_cm5_charge
 _atom_site_pbe_ddec_charge
 _atom_site_pbe_ddec_spin_density
 _atom_site_pbe_ddec_sum_bond_order
 _atom_site_pbe_magmom
Hg  Hg0  1  0.59592119  0.52049107  0.68895084  1  0  0.511619  0  2.251966  0  0  0.398861  0  2.743156  0  0  0.440976  0  2.71812  0  0  0.353435  0.370377  0  2.760687  0
Hg  Hg1  1  0.40407897  0.97950674  0.18895157  1  0  0.511579  0  2.251982  0  0  0.398812  0  2.743186  0  0  0.440925  0  2.718149  0  0  0.353404  0.370329  0  2.760709  0
Hg  Hg2  1  0.40410334  0.47949903  0.31105326  1  0  0.511591  0  2.251939  0  0  0.398818  0  2.743152  0  0  0.440936  0  2.718115  0  0  0.353405  0.370338  0  2.760674  0
Hg  Hg3  1  0.59589967  0.02049078  0.81105153  1  0  0.51158  0  2.252012  0  0  0.398813  0  2.743208  0  0  0.440928  0  2.718169  0  0  0.353412  0.370329  0  2.760736  0
H  H4  1  0.05403110  0.83965105  0.42927566  1  0  0.102812  0  0.968719  0  0  0.110377  0  1.038353  0  0  0.113949  0  1.035388  0  0  0.091856  0.10782  0  1.040515  0
H  H5  1  0.94596948  0.66035747  0.92926977  1  0  0.102801  0  0.968709  0  0  0.110386  0  1.038331  0  0  0.113965  0  1.035358  0  0  0.091834  0.107834  0  1.040482  0
H  H6  1  0.94595697  0.16034000  0.57072894  1  0  0.102874  0  0.968698  0  0  0.110463  0  1.03828  0  0  0.11402  0  1.035353  0  0  0.091878  0.107915  0  1.040421  0
H  H7  1  0.05403515  0.33966406  0.07071785  1  0  0.102818  0  0.968427  0  0  0.110379  0  1.038088  0  0  0.113937  0  1.035144  0  0  0.091871  0.107834  0  1.040224  0
H  H8  1  0.71075863  0.98295741  0.60728450  1  0  0.100744  0  0.98466  0  0  0.109298  0  1.052402  0  0  0.11253  0  1.050307  0  0  0.091944  0.106913  0  1.054067  0
H  H9  1  0.28923061  0.51704144  0.10727619  1  0  0.100704  0  0.98453  0  0  0.109289  0  1.0522  0  0  0.112519  0  1.050108  0  0  0.091923  0.106899  0  1.053887  0
H  H10  1  0.28922843  0.01703767  0.39272110  1  0  0.10071  0  0.984582  0  0  0.109317  0  1.052208  0  0  0.11255  0  1.050116  0  0  0.09196  0.106925  0  1.0539  0
H  H11  1  0.71077224  0.48296723  0.89270994  1  0  0.100695  0  0.984559  0  0  0.109237  0  1.05231  0  0  0.112468  0  1.050224  0  0  0.091905  0.106847  0  1.053981  0
H  H12  1  0.03601568  0.73188615  0.68976720  1  0  0.124985  0  0.976423  0  0  0.141636  0  1.046535  0  0  0.143649  0  1.045655  0  0  0.081196  0.140158  0  1.047211  0
H  H13  1  0.96397811  0.76810607  0.18976707  1  0  0.124992  0  0.976383  0  0  0.141646  0  1.046493  0  0  0.14366  0  1.045613  0  0  0.08122  0.14017  0  1.047165  0
H  H14  1  0.96399176  0.26811528  0.31023741  1  0  0.124979  0  0.976411  0  0  0.141626  0  1.046528  0  0  0.14364  0  1.045649  0  0  0.081214  0.140149  0  1.0472  0
H  H15  1  0.03599952  0.23188101  0.81022904  1  0  0.124974  0  0.976402  0  0  0.141596  0  1.046555  0  0  0.143607  0  1.045681  0  0  0.08116  0.140121  0  1.047227  0
H  H16  1  0.82345639  0.84519267  0.69127412  1  0  0.120779  0  0.953209  0  0  0.137208  0  1.024159  0  0  0.139099  0  1.023254  0  0  0.086515  0.135918  0  1.024693  0
H  H17  1  0.17653460  0.65479795  0.19127368  1  0  0.120798  0  0.953255  0  0  0.137233  0  1.024196  0  0  0.139125  0  1.023291  0  0  0.086537  0.135944  0  1.024727  0
H  H18  1  0.17654188  0.15480879  0.30872898  1  0  0.120772  0  0.953216  0  0  0.137186  0  1.024178  0  0  0.139076  0  1.023275  0  0  0.086511  0.135897  0  1.024706  0
H  H19  1  0.82343360  0.34518837  0.80872243  1  0  0.120732  0  0.953236  0  0  0.137163  0  1.024182  0  0  0.139053  0  1.023278  0  0  0.086451  0.135873  0  1.024714  0
H  H20  1  0.15748699  0.84719259  0.64063374  1  0  0.128538  0  0.946523  0  0  0.147135  0  1.007733  0  0  0.149272  0  1.007308  0  0  0.092332  0.145629  0  1.008029  0
H  H21  1  0.84250978  0.65280134  0.14063324  1  0  0.128484  0  0.946603  0  0  0.147087  0  1.007818  0  0  0.149223  0  1.007394  0  0  0.092325  0.14559  0  1.008101  0
H  H22  1  0.84250822  0.15280648  0.35936936  1  0  0.128524  0  0.946517  0  0  0.147143  0  1.007704  0  0  0.149281  0  1.00728  0  0  0.09236  0.145633  0  1.008002  0
H  H23  1  0.15748544  0.34719049  0.85936088  1  0  0.128479  0  0.94644  0  0  0.147092  0  1.007637  0  0  0.149228  0  1.007212  0  0  0.092334  0.145596  0  1.00792  0
H  H24  1  0.32177727  0.56519332  0.52756404  1  0  0.098433  0  0.972558  0  0  0.104485  0  1.042639  0  0  0.107269  0  1.040983  0  0  0.103464  0.102512  0  1.04381  0
H  H25  1  0.67823723  0.93480480  0.02757127  1  0  0.098454  0  0.97236  0  0  0.104454  0  1.042514  0  0  0.107236  0  1.04086  0  0  0.103435  0.102483  0  1.043685  0
H  H26  1  0.67823120  0.43479685  0.47243957  1  0  0.098504  0  0.972623  0  0  0.104519  0  1.042726  0  0  0.107302  0  1.04107  0  0  0.103444  0.102549  0  1.043893  0
H  H27  1  0.32178728  0.06520700  0.97244032  1  0  0.098539  0  0.972466  0  0  0.104539  0  1.042594  0  0  0.107322  0  1.040939  0  0  0.103426  0.102566  0  1.04376  0
H  H28  1  0.49044122  0.74749247  0.45088926  1  0  0.109892  0  0.979073  0  0  0.116771  0  1.049279  0  0  0.12023  0  1.046283  0  0  0.105377  0.114226  0  1.051627  0
H  H29  1  0.50956438  0.75251035  0.95088982  1  0  0.109678  0  0.979201  0  0  0.116675  0  1.0493  0  0  0.120051  0  1.046401  0  0  0.105353  0.114133  0  1.051645  0
H  H30  1  0.50955883  0.25250014  0.54911434  1  0  0.109894  0  0.979007  0  0  0.116749  0  1.04925  0  0  0.120216  0  1.046239  0  0  0.105364  0.114206  0  1.051599  0
H  H31  1  0.49045707  0.24750628  0.04911128  1  0  0.109879  0  0.979046  0  0  0.11682  0  1.049192  0  0  0.120223  0  1.046252  0  0  0.105376  0.114276  0  1.051541  0
C  C32  1  0.87029206  0.89970921  0.52081473  1  0  0.178264  0  3.771998  0  0  0.174125  0  4.012904  0  0  0.178422  0  4.036262  0  0  0.091795  0.171148  0  3.997119  0
C  C33  1  0.12971303  0.60029540  0.02080585  1  0  0.17822  0  3.772023  0  0  0.174089  0  4.012976  0  0  0.17839  0  4.036332  0  0  0.09174  0.17111  0  3.997194  0
C  C34  1  0.12969627  0.10028265  0.47918887  1  0  0.178261  0  3.771776  0  0  0.174061  0  4.012846  0  0  0.178366  0  4.036198  0  0  0.091797  0.171075  0  3.997068  0
C  C35  1  0.87031276  0.39972042  0.97917678  1  0  0.17806  0  3.771909  0  0  0.173743  0  4.013135  0  0  0.178046  0  4.036487  0  0  0.091577  0.170754  0  3.99736  0
C  C36  1  0.02885325  0.91000124  0.46011508  1  0  -0.123416  0  3.732928  0  0  -0.143207  0  3.983841  0  0  -0.145774  0  4.00356  0  0  -0.09129  -0.14137  0  3.970458  0
C  C37  1  0.97115487  0.59000236  0.96010526  1  0  -0.123612  0  3.733325  0  0  -0.143463  0  3.984277  0  0  -0.146039  0  4.004011  0  0  -0.091446  -0.141625  0  3.970898  0
C  C38  1  0.97113151  0.08999385  0.53988953  1  0  -0.123537  0  3.732909  0  0  -0.143337  0  3.983891  0  0  -0.145906  0  4.003599  0  0  -0.091372  -0.141499  0  3.970521  0
C  C39  1  0.02887015  0.41001105  0.03987787  1  0  -0.123316  0  3.73243  0  0  -0.143042  0  3.983414  0  0  -0.145599  0  4.003116  0  0  -0.09126  -0.141202  0  3.970041  0
C  C40  1  0.84069757  0.98957832  0.56068776  1  0  -0.122156  0  3.740366  0  0  -0.141276  0  3.986461  0  0  -0.144325  0  4.007283  0  0  -0.089773  -0.139175  0  3.972466  0
C  C41  1  0.15930253  0.51042542  0.06067797  1  0  -0.122197  0  3.7402  0  0  -0.141315  0  3.986292  0  0  -0.144362  0  4.00711  0  0  -0.089695  -0.139218  0  3.972288  0
C  C42  1  0.15927624  0.01041119  0.43931834  1  0  -0.122134  0  3.740563  0  0  -0.141251  0  3.986723  0  0  -0.144303  0  4.007546  0  0  -0.089785  -0.139153  0  3.972725  0
C  C43  1  0.84074033  0.48959354  0.93930616  1  0  -0.121895  0  3.740394  0  0  -0.140883  0  3.986477  0  0  -0.143938  0  4.007306  0  0  -0.08958  -0.138776  0  3.972484  0
C  C44  1  0.95595122  0.79577526  0.65870796  1  0  -0.388651  0  3.724545  0  0  -0.468376  0  3.959041  0  0  -0.472362  0  3.965079  0  0  -0.242363  -0.465387  0  3.954607  0
C  C45  1  0.04404905  0.70421539  0.15870748  1  0  -0.388611  0  3.724616  0  0  -0.468365  0  3.959073  0  0  -0.472354  0  3.965112  0  0  -0.242379  -0.465396  0  3.95466  0
C  C46  1  0.04404653  0.20422460  0.34129564  1  0  -0.388637  0  3.724601  0  0  -0.468407  0  3.959124  0  0  -0.47239  0  3.965147  0  0  -0.242404  -0.465419  0  3.954716  0
C  C47  1  0.95593597  0.29577327  0.84128763  1  0  -0.388593  0  3.72445  0  0  -0.468308  0  3.958993  0  0  -0.472287  0  3.965015  0  0  -0.242282  -0.465336  0  3.954581  0
C  C48  1  0.76761972  0.74842693  0.60238555  1  0  0.374768  0  3.660808  0  0  0.357509  0  3.919119  0  0  0.373676  0  3.933853  0  0  0.217634  0.346904  0  3.908723  0
C  C49  1  0.23237259  0.75156710  0.10238651  1  0  0.374732  0  3.66076  0  0  0.357547  0  3.919033  0  0  0.373722  0  3.933764  0  0  0.217552  0.346941  0  3.908633  0
C  C50  1  0.23237192  0.25156813  0.39761755  1  0  0.37481  0  3.660936  0  0  0.357669  0  3.919146  0  0  0.373845  0  3.933877  0  0  0.217594  0.347054  0  3.908749  0
C  C51  1  0.76762797  0.24843435  0.89761210  1  0  0.374813  0  3.660663  0  0  0.357578  0  3.919027  0  0  0.373754  0  3.933757  0  0  0.2176  0.34696  0  3.908639  0
C  C52  1  0.46933595  0.63744293  0.53971702  1  0  -0.003255  0  3.774789  0  0  -0.039376  0  4.049466  0  0  -0.036889  0  4.069175  0  0  -0.016024  -0.04105  0  4.036066  0
C  C53  1  0.53065556  0.86255526  0.03972034  1  0  -0.003237  0  3.774769  0  0  -0.039314  0  4.049459  0  0  -0.036825  0  4.06915  0  0  -0.015999  -0.04099  0  4.036059  0
C  C54  1  0.53067761  0.36254882  0.46028958  1  0  -0.003421  0  3.774838  0  0  -0.039518  0  4.049515  0  0  -0.037033  0  4.069226  0  0  -0.016014  -0.04119  0  4.036112  0
C  C55  1  0.46932919  0.13745430  0.96028476  1  0  -0.003544  0  3.774814  0  0  -0.039638  0  4.049484  0  0  -0.037153  0  4.069183  0  0  -0.016003  -0.041307  0  4.036077  0
C  C56  1  0.54874591  0.72654334  0.50146677  1  0  -0.0573  0  3.696542  0  0  -0.10162  0  3.966533  0  0  -0.099338  0  3.983647  0  0  -0.012652  -0.103046  0  3.955035  0
C  C57  1  0.45121514  0.77346711  0.00146469  1  0  -0.057156  0  3.69659  0  0  -0.101541  0  3.966559  0  0  -0.099187  0  3.983732  0  0  -0.012708  -0.102972  0  3.955063  0
C  C58  1  0.45122788  0.27345339  0.49853933  1  0  -0.057282  0  3.69627  0  0  -0.10153  0  3.966233  0  0  -0.099247  0  3.983344  0  0  -0.012652  -0.102968  0  3.954745  0
C  C59  1  0.54878414  0.22655202  0.99853592  1  0  -0.057253  0  3.696337  0  0  -0.101555  0  3.966267  0  0  -0.099217  0  3.983423  0  0  -0.012631  -0.102995  0  3.954777  0
I  I60  1  0.37448912  0.61088560  0.79836045  1  0  -0.344528  0  1.242099  0  0  -0.303637  0  1.596436  0  0  -0.321809  0  1.579539  0  0  -0.170832  -0.291513  0  1.608772  0
I  I61  1  0.62551346  0.88911356  0.29836224  1  0  -0.344497  0  1.24199  0  0  -0.303635  0  1.596317  0  0  -0.321811  0  1.579431  0  0  -0.170849  -0.291507  0  1.608654  0
I  I62  1  0.62550584  0.38911266  0.20163766  1  0  -0.344518  0  1.241944  0  0  -0.303641  0  1.596264  0  0  -0.321816  0  1.579373  0  0  -0.170861  -0.291518  0  1.608601  0
I  I63  1  0.37448838  0.11088467  0.70163837  1  0  -0.344543  0  1.242038  0  0  -0.303649  0  1.596345  0  0  -0.321819  0  1.57946  0  0  -0.170856  -0.291529  0  1.608682  0
I  I64  1  0.00879447  0.38899116  0.63868603  1  0  -0.28559  0  1.365805  0  0  -0.232733  0  1.745955  0  0  -0.252708  0  1.726338  0  0  -0.126175  -0.218939  0  1.760572  0
I  I65  1  0.99121323  0.11100465  0.13868655  1  0  -0.285561  0  1.36583  0  0  -0.23268  0  1.745966  0  0  -0.252653  0  1.726328  0  0  -0.126157  -0.218887  0  1.760579  0
I  I66  1  0.99123006  0.61100618  0.36131059  1  0  -0.285554  0  1.365766  0  0  -0.232674  0  1.745896  0  0  -0.252654  0  1.726274  0  0  -0.126143  -0.21888  0  1.760509  0
I  I67  1  0.00878428  0.88899440  0.86131456  1  0  -0.285503  0  1.36579  0  0  -0.232651  0  1.745968  0  0  -0.252624  0  1.726324  0  0  -0.126136  -0.218859  0  1.760586  0
N  N68  1  0.60747721  0.65194790  0.60159714  1  0  -0.380098  0  3.207011  0  0  -0.307493  0  3.473422  0  0  -0.330383  0  3.494765  0  0  -0.339971  -0.291939  0  3.45844  0
N  N69  1  0.39252632  0.84804528  0.10160149  1  0  -0.380112  0  3.207187  0  0  -0.307507  0  3.473551  0  0  -0.330399  0  3.494894  0  0  -0.339856  -0.291951  0  3.458569  0
N  N70  1  0.39252845  0.34804790  0.39840796  1  0  -0.380079  0  3.206932  0  0  -0.307476  0  3.473279  0  0  -0.33037  0  3.494623  0  0  -0.339892  -0.291919  0  3.458301  0
N  N71  1  0.60747347  0.15195377  0.89840312  1  0  -0.38  0  3.20702  0  0  -0.307337  0  3.473359  0  0  -0.33023  0  3.494705  0  0  -0.339902  -0.291778  0  3.458374  0
N  N72  1  0.73474977  0.79679077  0.54146064  1  0  -0.145827  0  3.549844  0  0  -0.059662  0  3.757184  0  0  -0.075452  0  3.782194  0  0  -0.226417  -0.049157  0  3.740112  0
N  N73  1  0.26523179  0.70321228  0.04145664  1  0  -0.145682  0  3.549427  0  0  -0.059641  0  3.756926  0  0  -0.075437  0  3.781919  0  0  -0.226344  -0.04913  0  3.739853  0
N  N74  1  0.26523932  0.20320350  0.45854446  1  0  -0.145775  0  3.549326  0  0  -0.05974  0  3.756816  0  0  -0.075541  0  3.781829  0  0  -0.226443  -0.04922  0  3.739742  0
N  N75  1  0.73476774  0.29680043  0.95853897  1  0  -0.145697  0  3.549357  0  0  -0.059655  0  3.756973  0  0  -0.075453  0  3.781972  0  0  -0.226366  -0.049136  0  3.739903  0
