# generated using pymatgen
data_ZnH24C22(N3O)2
_symmetry_space_group_name_H-M   'P 1'
_cell_length_a   7.49865206
_cell_length_b   7.73808881
_cell_length_c   9.98246053
_cell_angle_alpha   74.33348519
_cell_angle_beta   79.21745552
_cell_angle_gamma   75.69371650
_symmetry_Int_Tables_number   1
_chemical_formula_structural   ZnH24C22(N3O)2
_chemical_formula_sum   'Zn1 H24 C22 N6 O2'
_cell_volume   535.90505032
_cell_formula_units_Z   1
loop_
 _symmetry_equiv_pos_site_id
 _symmetry_equiv_pos_as_xyz
  1  'x, y, z'
loop_
 _atom_site_type_symbol
 _atom_site_label
 _atom_site_symmetry_multiplicity
 _atom_site_fract_x
 _atom_site_fract_y
 _atom_site_fract_z
 _atom_site_occupancy
 _atom_site_hle17_bader_spin_density
 _atom_site_hle17_ddec_charge
 _atom_site_hle17_ddec_spin_density
 _atom_site_hle17_ddec_sum_bond_order
 _atom_site_hle17_magmom
 _atom_site_hse06_10hf_bader_spin_density
 _atom_site_hse06_10hf_ddec_charge
 _atom_site_hse06_10hf_ddec_spin_density
 _atom_site_hse06_10hf_ddec_sum_bond_order
 _atom_site_hse06_10hf_magmom
 _atom_site_hse06_bader_spin_density
 _atom_site_hse06_ddec_charge
 _atom_site_hse06_ddec_spin_density
 _atom_site_hse06_ddec_sum_bond_order
 _atom_site_hse06_magmom
 _atom_site_pbe_bader_spin_density
 _atom_site_pbe_cm5_charge
 _atom_site_pbe_ddec_charge
 _atom_site_pbe_ddec_spin_density
 _atom_site_pbe_ddec_sum_bond_order
 _atom_site_pbe_magmom
Zn  Zn0  1  0.50000139  0.49999858  0.00000044  1  0  1.109788  0  1.921516  0  0  0.949954  0  2.38459  0  0  0.991747  0  2.330546  0  0  0.734742  0.920677  0  2.422342  0
H  H1  1  0.31342339  0.57313416  0.25359573  1  0  0.329822  0  0.958805  0  0  0.293711  0  1.051262  0  0  0.304743  0  1.040055  0  0  0.281907  0.285962  0  1.059034  0
H  H2  1  0.68657510  0.42686614  0.74640445  1  0  0.329801  0  0.958859  0  0  0.293713  0  1.051281  0  0  0.304743  0  1.040076  0  0  0.281923  0.285966  0  1.059045  0
H  H3  1  0.50698821  0.86472699  0.13349682  1  0  0.0775  0  0.944326  0  0  0.096202  0  1.00914  0  0  0.096537  0  1.009451  0  0  0.09309  0.095889  0  1.009051  0
H  H4  1  0.49301249  0.13526918  0.86650191  1  0  0.077479  0  0.944306  0  0  0.096171  0  1.009137  0  0  0.096505  0  1.009447  0  0  0.093086  0.09586  0  1.009051  0
H  H5  1  0.29442601  0.85957454  0.24987115  1  0  0.067686  0  0.984514  0  0  0.083734  0  1.055026  0  0  0.083585  0  1.05664  0  0  0.088347  0.083756  0  1.054032  0
H  H6  1  0.70557548  0.14042437  0.75012791  1  0  0.067666  0  0.98458  0  0  0.083717  0  1.055091  0  0  0.083562  0  1.056707  0  0  0.088349  0.083745  0  1.05409  0
H  H7  1  0.29852536  0.87825889  0.06626804  1  0  0.069809  0  0.954977  0  0  0.083543  0  1.026801  0  0  0.084707  0  1.025928  0  0  0.085638  0.082676  0  1.027438  0
H  H8  1  0.70147449  0.12174139  0.93373095  1  0  0.069781  0  0.954969  0  0  0.083521  0  1.026793  0  0  0.084679  0  1.025924  0  0  0.085618  0.082653  0  1.027431  0
H  H9  1  0.29989832  0.07750960  0.37783807  1  0  0.087333  0  0.958632  0  0  0.101865  0  1.014839  0  0  0.104254  0  1.01408  0  0  0.098769  0.100136  0  1.015482  0
H  H10  1  0.70010860  0.92248928  0.62216225  1  0  0.087483  0  0.958835  0  0  0.102007  0  1.014991  0  0  0.104383  0  1.014263  0  0  0.098838  0.100294  0  1.015616  0
H  H11  1  0.71586232  0.11740973  0.38219459  1  0  0.083957  0  0.970883  0  0  0.097309  0  1.030534  0  0  0.099925  0  1.029382  0  0  0.095324  0.095423  0  1.031443  0
H  H12  1  0.28413429  0.88258646  0.61780771  1  0  0.08397  0  0.970863  0  0  0.097343  0  1.030489  0  0  0.099958  0  1.02934  0  0  0.095348  0.095458  0  1.031399  0
H  H13  1  0.46633768  0.35554768  0.43223131  1  0  0.124614  0  0.951774  0  0  0.143971  0  1.012072  0  0  0.146065  0  1.010855  0  0  0.099179  0.142392  0  1.013033  0
H  H14  1  0.53366517  0.64445122  0.56776857  1  0  0.124641  0  0.951768  0  0  0.143999  0  1.012063  0  0  0.146092  0  1.010846  0  0  0.099194  0.14242  0  1.013025  0
H  H15  1  0.39031772  0.18104065  0.57337334  1  0  0.113937  0  0.949082  0  0  0.135907  0  1.010827  0  0  0.136475  0  1.011602  0  0  0.095452  0.135404  0  1.010368  0
H  H16  1  0.60968349  0.81895963  0.42662647  1  0  0.11395  0  0.949067  0  0  0.135928  0  1.010795  0  0  0.136495  0  1.01157  0  0  0.095454  0.135425  0  1.010336  0
H  H17  1  0.42842347  0.37863529  0.60930880  1  0  0.130268  0  0.955013  0  0  0.151812  0  1.013286  0  0  0.153318  0  1.013062  0  0  0.099527  0.150625  0  1.013645  0
H  H18  1  0.57157366  0.62136501  0.39069157  1  0  0.130281  0  0.954969  0  0  0.151826  0  1.013243  0  0  0.153331  0  1.013021  0  0  0.099543  0.15064  0  1.013602  0
H  H19  1  0.87091017  0.85543242  0.22546094  1  0  0.120065  0  0.944064  0  0  0.141254  0  1.005291  0  0  0.141965  0  1.005921  0  0  0.096163  0.140747  0  1.004683  0
H  H20  1  0.12908996  0.14456649  0.77453830  1  0  0.120012  0  0.944111  0  0  0.141225  0  1.005316  0  0  0.141936  0  1.005946  0  0  0.096148  0.140719  0  1.004706  0
H  H21  1  0.80660440  0.66487340  0.19573554  1  0  0.126546  0  0.947082  0  0  0.147542  0  1.0069  0  0  0.148255  0  1.007788  0  0  0.09864  0.147175  0  1.005983  0
H  H22  1  0.19339681  0.33512687  0.80426327  1  0  0.126553  0  0.947076  0  0  0.147551  0  1.006896  0  0  0.148263  0  1.007785  0  0  0.098652  0.147185  0  1.005979  0
H  H23  1  0.04107483  0.69163819  0.14904021  1  0  0.124987  0  0.966877  0  0  0.144631  0  1.027159  0  0  0.145805  0  1.027777  0  0  0.097302  0.143705  0  1.026812  0
H  H24  1  0.95892694  0.30835934  0.85096110  1  0  0.124986  0  0.966921  0  0  0.144639  0  1.027188  0  0  0.145813  0  1.027812  0  0  0.097306  0.143714  0  1.02684  0
C  C25  1  0.86340689  0.27989447  0.14704326  1  0  0.333623  0  3.867655  0  0  0.312919  0  4.132092  0  0  0.330558  0  4.149487  0  0  0.189817  0.300757  0  4.119924  0
C  C26  1  0.13658829  0.72011544  0.85295337  1  0  0.333588  0  3.86695  0  0  0.312874  0  4.131401  0  0  0.330521  0  4.148798  0  0  0.189764  0.300715  0  4.119231  0
C  C27  1  0.00914039  0.11237067  0.36103871  1  0  0.086115  0  3.860865  0  0  0.092345  0  4.103834  0  0  0.095261  0  4.128632  0  0  -0.018726  0.090164  0  4.086754  0
C  C28  1  0.99086191  0.88762413  0.63897011  1  0  0.086173  0  3.860418  0  0  0.092399  0  4.103413  0  0  0.095316  0  4.128208  0  0  -0.018626  0.090217  0  4.08634  0
C  C29  1  0.18279077  0.27419325  0.14576869  1  0  0.339463  0  3.856781  0  0  0.317718  0  4.122267  0  0  0.335261  0  4.140766  0  0  0.191941  0.305673  0  4.109047  0
C  C30  1  0.81722317  0.72581107  0.85423153  1  0  0.339388  0  3.856533  0  0  0.317637  0  4.122021  0  0  0.33519  0  4.140517  0  0  0.191907  0.305595  0  4.108797  0
C  C31  1  0.37626278  0.81666504  0.15673675  1  0  -0.032593  0  3.664255  0  0  -0.128912  0  3.938339  0  0  -0.122652  0  3.942372  0  0  -0.163592  -0.133247  0  3.935824  0
C  C32  1  0.62373708  0.18333524  0.84326124  1  0  -0.032482  0  3.664238  0  0  -0.1288  0  3.938297  0  0  -0.122526  0  3.942338  0  0  -0.163552  -0.133145  0  3.93578  0
C  C33  1  0.16757167  0.04392884  0.43110419  1  0  -0.133132  0  3.793497  0  0  -0.149137  0  4.044659  0  0  -0.151381  0  4.064996  0  0  -0.104766  -0.147801  0  4.030903  0
C  C34  1  0.83240674  0.95606334  0.56890446  1  0  -0.13335  0  3.792956  0  0  -0.14934  0  4.04417  0  0  -0.151584  0  4.0645  0  0  -0.104881  -0.148013  0  4.030414  0
C  C35  1  0.01882998  0.22454434  0.21683853  1  0  -0.25029  0  4.008783  0  0  -0.233314  0  4.259292  0  0  -0.249236  0  4.281686  0  0  -0.059165  -0.221738  0  4.243044  0
C  C36  1  0.98116461  0.77546831  0.78316161  1  0  -0.250347  0  4.009384  0  0  -0.233345  0  4.259873  0  0  -0.249283  0  4.282268  0  0  -0.059217  -0.221787  0  4.24363  0
C  C37  1  0.84128826  0.06604964  0.43350683  1  0  -0.136849  0  3.782088  0  0  -0.155727  0  4.034075  0  0  -0.158375  0  4.054637  0  0  -0.106372  -0.153402  0  4.019907  0
C  C38  1  0.15871949  0.93395197  0.56648580  1  0  -0.136906  0  3.782279  0  0  -0.155804  0  4.034285  0  0  -0.158453  0  4.054852  0  0  -0.106443  -0.153478  0  4.020115  0
C  C39  1  0.96152261  0.59965184  0.37001485  1  0  0.221778  0  3.700193  0  0  0.219317  0  3.959576  0  0  0.222813  0  3.980607  0  0  0.12608  0.216923  0  3.945392  0
C  C40  1  0.03847779  0.40034570  0.62998765  1  0  0.221694  0  3.700318  0  0  0.219379  0  3.959583  0  0  0.222879  0  3.980609  0  0  0.126077  0.216984  0  3.945398  0
C  C41  1  0.37746579  0.32999882  0.53273255  1  0  -0.365262  0  3.699342  0  0  -0.447192  0  3.936183  0  0  -0.449914  0  3.945411  0  0  -0.237181  -0.445008  0  3.930006  0
C  C42  1  0.62253570  0.67000008  0.46726851  1  0  -0.365318  0  3.699354  0  0  -0.447268  0  3.93618  0  0  -0.449989  0  3.945407  0  0  -0.237243  -0.445084  0  3.930002  0
C  C43  1  0.17992046  0.42101528  0.51560630  1  0  0.216624  0  3.701159  0  0  0.215965  0  3.958628  0  0  0.219503  0  3.979446  0  0  0.12372  0.213097  0  3.944894  0
C  C44  1  0.82007777  0.57898638  0.48438963  1  0  0.216553  0  3.701164  0  0  0.216022  0  3.958562  0  0  0.219557  0  3.979385  0  0  0.12376  0.213153  0  3.944827  0
C  C45  1  0.91840192  0.70836779  0.22707497  1  0  -0.367879  0  3.697144  0  0  -0.447447  0  3.929978  0  0  -0.450106  0  3.939938  0  0  -0.237583  -0.44531  0  3.922716  0
C  C46  1  0.08159415  0.29163114  0.77292183  1  0  -0.367799  0  3.697309  0  0  -0.44743  0  3.930115  0  0  -0.450093  0  3.940084  0  0  -0.237553  -0.445292  0  3.922851  0
N  N47  1  0.32557874  0.31069451  0.08851568  1  0  -0.507136  0  2.858207  0  0  -0.454414  0  3.13563  0  0  -0.47366  0  3.141529  0  0  -0.352553  -0.441293  0  3.131471  0
N  N48  1  0.67441401  0.68930719  0.91148901  1  0  -0.507073  0  2.857636  0  0  -0.454355  0  3.135084  0  0  -0.473601  0  3.140979  0  0  -0.352501  -0.44123  0  3.130919  0
N  N49  1  0.72812283  0.31947776  0.09233470  1  0  -0.514891  0  2.900712  0  0  -0.46461  0  3.181873  0  0  -0.483119  0  3.185967  0  0  -0.353433  -0.45188  0  3.179204  0
N  N50  1  0.27189579  0.68051694  0.90766788  1  0  -0.514855  0  2.899918  0  0  -0.464594  0  3.181173  0  0  -0.483101  0  3.185267  0  0  -0.353368  -0.451861  0  3.178503  0
N  N51  1  0.13900309  0.52094273  0.38816807  1  0  -0.351696  0  3.11439  0  0  -0.301566  0  3.358808  0  0  -0.313333  0  3.37561  0  0  -0.287882  -0.293316  0  3.347376  0
N  N52  1  0.86099975  0.47905617  0.61183181  1  0  -0.35165  0  3.11428  0  0  -0.301636  0  3.35868  0  0  -0.313402  0  3.375478  0  0  -0.287902  -0.293391  0  3.34726  0
O  O53  1  0.41789511  0.61952646  0.18335689  1  0  -0.549181  0  2.247978  0  0  -0.472359  0  2.511203  0  0  -0.493076  0  2.499539  0  0  -0.407014  -0.457805  0  2.519128  0
O  O54  1  0.58210503  0.38047245  0.81664135  1  0  -0.549221  0  2.248053  0  0  -0.472397  0  2.51125  0  0  -0.493114  0  2.499584  0  0  -0.407055  -0.457846  0  2.519179  0
