# generated using pymatgen
data_NiH20C28(NO2)2
_symmetry_space_group_name_H-M   'P 1'
_cell_length_a   8.81816515
_cell_length_b   12.83068293
_cell_length_c   13.63826965
_cell_angle_alpha   61.92871445
_cell_angle_beta   84.45978857
_cell_angle_gamma   78.14019100
_symmetry_Int_Tables_number   1
_chemical_formula_structural   NiH20C28(NO2)2
_chemical_formula_sum   'Ni2 H40 C56 N4 O8'
_cell_volume   1332.48817801
_cell_formula_units_Z   2
loop_
 _symmetry_equiv_pos_site_id
 _symmetry_equiv_pos_as_xyz
  1  'x, y, z'
loop_
 _atom_site_type_symbol
 _atom_site_label
 _atom_site_symmetry_multiplicity
 _atom_site_fract_x
 _atom_site_fract_y
 _atom_site_fract_z
 _atom_site_occupancy
 _atom_site_pbe_bader_charge
 _atom_site_pbe_bader_spin_density
 _atom_site_pbe_cm5_charge
 _atom_site_pbe_ddec_charge
 _atom_site_pbe_ddec_spin_density
 _atom_site_pbe_ddec_sum_bond_order
 _atom_site_pbe_magmom
Ni  Ni0  1  0.19141610  0.05515312  0.20210021  1  1.129516  1.527067  0.64605  0.687185  1.75911  2.545529  1.509
Ni  Ni1  1  0.69155594  0.25714755  0.79798222  1  1.127202  1.527309  0.64573  0.687169  1.760665  2.542872  1.51
H  H2  1  0.21538573  0.12915053  0.78634593  1  0.086276  0.000431  0.10152  0.100582  0.0003  1.034197  0.0
H  H3  1  0.71527260  0.91586047  0.21337758  1  0.088432  0.000438  0.101615  0.100663  0.000299  1.034083  0.0
H  H4  1  0.97878696  0.61164979  0.13486814  1  0.031232  8.3e-05  0.102902  0.097689  4.8e-05  0.998831  0.0
H  H5  1  0.47898623  0.74618559  0.86535743  1  0.028405  8.3e-05  0.102758  0.097248  4.9e-05  0.999464  0.0
H  H6  1  0.02879509  0.99720614  0.88924487  1  0.109917  0.00103  0.106461  0.116601  0.000469  1.035924  0.001
H  H7  1  0.52804701  0.88673890  0.11070279  1  0.105615  0.001034  0.106538  0.116906  0.000465  1.035849  0.0
H  H8  1  0.72312528  0.35289280  0.08698683  1  0.11063  0.000423  0.101849  0.09682  0.000326  1.050961  0.0
H  H9  1  0.22312384  0.43946469  0.91341266  1  0.101997  0.000439  0.101808  0.097016  0.000329  1.051094  0.0
H  H10  1  0.86800727  0.15972272  0.10139781  1  0.119164  0.002126  0.119587  0.094128  0.000713  1.009233  0.001
H  H11  1  0.36784950  0.26150133  0.89851309  1  0.120314  0.002126  0.119638  0.094039  0.000712  1.008998  0.001
H  H12  1  0.23727133  0.79526446  0.26771564  1  0.101291  0.001957  0.116076  0.088208  0.000628  1.015951  0.001
H  H13  1  0.73752014  0.06241128  0.73252180  1  0.142437  0.001945  0.116088  0.088454  0.00063  1.014993  0.001
H  H14  1  0.16764912  0.66866216  0.19079254  1  0.095488  0.000977  0.105706  0.109201  0.000472  1.011871  0.0
H  H15  1  0.66773890  0.85889452  0.80972499  1  0.07671  0.000988  0.105941  0.109328  0.000473  1.011926  0.0
H  H16  1  0.10360620  0.10845634  0.97783869  1  0.124437  0.002146  0.125494  0.10852  0.000755  0.995144  0.002
H  H17  1  0.60322125  0.08646900  0.02190784  1  0.124332  0.002141  0.12503  0.108078  0.000752  0.993937  0.002
H  H18  1  0.84129575  0.46233391  0.15987342  1  0.042223  8.1e-05  0.103781  0.105091  4.2e-05  0.985609  0.0
H  H19  1  0.34145082  0.62180688  0.84033772  1  0.055734  8.1e-05  0.103684  0.104667  4.2e-05  0.985596  0.0
H  H20  1  0.45613352  0.07595069  0.69704994  1  0.094307  2.4e-05  0.090683  0.086049  -5.5e-05  1.063146  0.0
H  H21  1  0.95612184  0.77333469  0.30252915  1  0.06114  2.4e-05  0.091028  0.086505  -5.5e-05  1.063096  0.0
H  H22  1  0.95093694  0.70835810  0.82436532  1  0.055953  7.4e-05  0.100175  0.098675  3.5e-05  1.006704  0.0
H  H23  1  0.45076096  0.53267227  0.17580308  1  0.046912  7.4e-05  0.100339  0.098222  3.6e-05  1.006195  0.0
H  H24  1  0.59245396  0.06894098  0.55018275  1  0.031645  0.00011  0.096297  0.087867  6.1e-05  1.020123  0.0
H  H25  1  0.09270868  0.61903494  0.44931922  1  0.030839  0.00011  0.096278  0.087902  6e-05  1.019775  0.0
H  H26  1  0.95783939  0.23787622  0.49157749  1  0.092862  0.000622  0.102146  0.107126  0.000432  1.000011  0.0
H  H27  1  0.45826865  0.72979814  0.50843023  1  0.073058  0.000636  0.101807  0.106747  0.000433  0.999993  0.0
H  H28  1  0.83275392  0.59799135  0.75371919  1  0.083442  0.000477  0.104194  0.10571  0.00035  1.022507  0.0
H  H29  1  0.33245710  0.35165691  0.24663480  1  0.092838  0.000479  0.103979  0.10509  0.00035  1.022748  0.0
H  H30  1  0.01453543  0.80679356  0.89493852  1  0.032193  2.3e-05  0.10165  0.099058  2.4e-05  1.008916  0.0
H  H31  1  0.51383273  0.70164496  0.10529329  1  0.052886  2e-05  0.10189  0.099797  2.3e-05  1.008753  0.0
H  H32  1  0.79682275  0.97848619  0.50615621  1  0.058004  0.001116  0.106235  0.110504  0.000533  1.000025  0.0
H  H33  1  0.29711637  0.48391025  0.49363052  1  0.027829  0.001139  0.106195  0.110803  0.000531  0.999559  0.0
H  H34  1  0.60169644  0.18372678  0.17505710  1  0.090704  0.001118  0.112932  0.129896  0.00056  0.994595  0.001
H  H35  1  0.10155991  0.35899770  0.82451470  1  0.094394  0.001113  0.112767  0.130041  0.000559  0.994015  0.001
H  H36  1  0.42490371  0.14281900  0.33246693  1  0.116308  4.8e-05  0.105462  0.120902  -2.2e-05  1.04651  0.0
H  H37  1  0.92503991  0.47525745  0.66699309  1  0.12073  4.5e-05  0.105435  0.121238  -2.3e-05  1.04628  0.0
H  H38  1  0.19746266  0.18515139  0.40028786  1  0.130849  0.000238  0.102715  0.120636  0.000166  1.043833  0.0
H  H39  1  0.69799612  0.58569455  0.59953963  1  0.104848  0.000243  0.102715  0.120436  0.000165  1.043106  0.0
H  H40  1  0.05529109  0.96218691  0.41853770  1  0.122012  0.002029  0.121612  0.101957  0.000686  0.993488  0.002
H  H41  1  0.55548502  0.38032916  0.58156012  1  0.120877  0.002019  0.12163  0.101853  0.000682  0.9931  0.002
C  C42  1  0.21269379  0.14037749  0.70231384  1  -0.023159  0.000592  -0.089227  -0.094861  0.000245  4.005397  0.001
C  C43  1  0.71268640  0.84302682  0.29742736  1  -0.045789  0.000592  -0.089985  -0.095504  0.000244  4.006141  0.001
C  C44  1  0.77172782  0.46732821  0.91605974  1  -0.035747  0.003189  -0.01518  -0.025606  0.002105  3.961554  0.002
C  C45  1  0.27161532  0.38320672  0.08428128  1  -0.01287  0.003173  -0.014829  -0.026875  0.00211  3.961981  0.002
C  C46  1  0.07183509  0.18752322  0.64431443  1  -0.025494  0.00278  -0.024603  -0.043217  0.001861  4.001142  0.002
C  C47  1  0.57198547  0.83213924  0.35554397  1  -0.010701  0.002753  -0.023643  -0.041623  0.001855  3.999709  0.002
C  C48  1  0.97394979  0.65456879  0.04405423  1  0.0161  -0.003316  -0.077415  -0.10608  -0.003561  3.978129  -0.002
C  C49  1  0.47386967  0.69837047  0.95617156  1  -0.007059  -0.003306  -0.076522  -0.104407  -0.003546  3.976679  -0.002
C  C50  1  0.07528922  0.94745550  0.97327195  1  -0.007485  0.00573  -0.081394  -0.163942  0.003212  3.91099  0.005
C  C51  1  0.57476002  0.92078706  0.02676496  1  -0.01188  0.005685  -0.081779  -0.165308  0.003198  3.911758  0.005
C  C52  1  0.77320600  0.43078179  0.03027547  1  -0.000195  0.000108  -0.078626  -0.075331  -0.000157  3.972138  0.0
C  C53  1  0.27324050  0.46073325  0.97003324  1  0.019517  0.00011  -0.079258  -0.076997  -0.000156  3.971871  0.0
C  C54  1  0.84764791  0.12117566  0.19079055  1  0.483299  -0.00566  0.046717  0.086812  -0.006314  3.943779  -0.004
C  C55  1  0.34758917  0.31213177  0.80909263  1  0.417422  -0.005585  0.046861  0.087967  -0.006299  3.94328  -0.004
C  C56  1  0.90455923  0.59374988  0.99795323  1  0.02751  -0.000917  -0.00823  0.106931  -0.000996  4.048131  0.0
C  C57  1  0.40459840  0.59140403  0.00225605  1  -0.090022  -0.000928  -0.00784  0.10733  -0.001004  4.047834  0.0
C  C58  1  0.19027778  0.83521392  0.18402684  1  0.419047  -0.004237  0.037159  0.074459  -0.004918  3.972359  -0.003
C  C59  1  0.69035242  0.01885312  0.81616397  1  0.351311  -0.004176  0.037605  0.074389  -0.004876  3.972612  -0.003
C  C60  1  0.14975372  0.76603490  0.14107434  1  -0.044739  0.005009  -0.085893  -0.179396  0.002874  3.953083  0.004
C  C61  1  0.64966844  0.90673369  0.85926048  1  0.053393  0.004964  -0.085572  -0.179119  0.002877  3.953657  0.004
C  C62  1  0.08560485  0.82232105  0.03365453  1  -0.006118  -0.006092  0.007187  0.150926  -0.006458  4.023101  -0.004
C  C63  1  0.58520743  0.85584382  0.96658702  1  -0.062  -0.006078  0.006575  0.151739  -0.006433  4.022863  -0.004
C  C64  1  0.11670030  0.01085702  0.02232370  1  0.484894  -0.003092  0.048926  0.092461  -0.003579  3.923618  -0.002
C  C65  1  0.61639374  0.03319235  0.97758417  1  0.488328  -0.003039  0.04976  0.093349  -0.003576  3.921065  -0.002
C  C66  1  0.83889412  0.49270228  0.07050563  1  -0.052781  -0.000459  -0.084161  -0.126539  -0.000634  3.952336  0.0
C  C67  1  0.33904210  0.56284793  0.92972382  1  -0.053874  -0.000454  -0.084049  -0.12527  -0.000629  3.949471  0.0
C  C68  1  0.92993035  0.22019316  0.69932148  1  1.502175  -0.004108  0.190373  0.532591  -0.005393  4.205743  -0.006
C  C69  1  0.42993640  0.91971590  0.30065991  1  1.49148  -0.004054  0.189879  0.532699  -0.005386  4.205242  -0.006
C  C70  1  0.34688317  0.11095173  0.65186971  1  -0.077944  -0.000518  -0.095877  -0.134676  -0.000701  3.976769  0.0
C  C71  1  0.84695739  0.76312468  0.34778657  1  -0.077163  -0.000522  -0.095605  -0.134372  -0.000703  3.975781  0.0
C  C72  1  0.89963755  0.63136896  0.88282223  1  -0.095759  0.000104  -0.089521  -0.133411  -8.3e-05  3.97888  0.0
C  C73  1  0.39956918  0.51400662  0.11741087  1  0.0405  0.000111  -0.089593  -0.133211  -7.6e-05  3.978038  0.0
C  C74  1  0.49340710  0.09875715  0.49468624  1  -0.067505  -0.004701  -0.084104  -0.111688  -0.004989  3.978849  -0.003
C  C75  1  0.99365887  0.59345405  0.50481859  1  -0.096119  -0.004707  -0.08414  -0.111627  -0.004987  3.97988  -0.003
C  C76  1  0.06830297  0.20216701  0.53562705  1  -0.093984  0.000648  -0.087152  -0.094986  0.000305  3.986728  0.001
C  C77  1  0.56864773  0.73811007  0.46429962  1  -0.053507  0.000638  -0.086299  -0.094238  0.000308  3.985854  0.001
C  C78  1  0.83396025  0.56957696  0.84261144  1  -0.021507  0.000635  -0.084101  -0.096687  0.000292  3.983193  0.001
C  C79  1  0.33379311  0.41203381  0.15770296  1  -0.078742  0.000641  -0.083853  -0.094907  0.000285  3.983085  0.001
C  C80  1  0.02600232  0.75931450  0.98536836  1  -0.038276  0.000838  -0.0885  -0.134654  0.000308  3.985328  0.001
C  C81  1  0.52553041  0.74455816  0.01488216  1  -0.023943  0.000831  -0.089125  -0.136676  0.000301  3.984642  0.001
C  C82  1  0.34568539  0.12707254  0.54233151  1  -0.060221  -0.000754  -0.009918  0.113878  -0.000821  4.033057  0.0
C  C83  1  0.84594004  0.66961184  0.45730961  1  0.004488  -0.000749  -0.010308  0.113037  -0.00082  4.034627  0.0
C  C84  1  0.71722289  0.39449282  0.87257060  1  1.505478  -0.004484  0.195697  0.544345  -0.005762  4.187961  -0.006
C  C85  1  0.21698572  0.26695740  0.12774502  1  1.50391  -0.004396  0.196285  0.545889  -0.005781  4.183759  -0.006
C  C86  1  0.80665935  0.02275303  0.41591300  1  0.008514  0.00653  -0.083644  -0.173842  0.00376  3.947162  0.005
C  C87  1  0.30682288  0.43821804  0.58388776  1  -0.00437  0.006571  -0.084636  -0.175139  0.003755  3.946999  0.005
C  C88  1  0.69898008  0.13534237  0.23248633  1  -0.025965  0.006283  -0.078671  -0.167565  0.003636  3.910381  0.005
C  C89  1  0.19896349  0.36790083  0.76720987  1  -0.025959  0.006212  -0.078636  -0.168907  0.003632  3.911145  0.005
C  C90  1  0.52076395  0.11046955  0.39090435  1  -0.000305  0.001413  -0.090601  -0.140241  0.000562  3.947513  0.001
C  C91  1  0.02092378  0.50127849  0.60860279  1  0.016031  0.00141  -0.089768  -0.139542  0.000561  3.948554  0.001
C  C92  1  0.67498333  0.08841236  0.34791257  1  -0.036931  -0.007178  0.007637  0.151361  -0.007594  4.014445  -0.005
C  C93  1  0.17508774  0.43613399  0.65173100  1  0.022291  -0.007161  0.007279  0.151365  -0.007589  4.015837  -0.005
C  C94  1  0.20275372  0.17249892  0.48489471  1  -0.003327  -0.000258  -0.089768  -0.132881  -0.000474  3.921578  0.0
C  C95  1  0.70315749  0.65767241  0.51492592  1  -0.012785  -0.000263  -0.090412  -0.133405  -0.000475  3.922537  0.0
C  C96  1  0.95106288  0.01196636  0.36836979  1  0.444502  -0.003604  0.042866  0.086715  -0.003849  3.956174  -0.002
C  C97  1  0.45117833  0.38000992  0.63161459  1  0.447755  -0.003619  0.044241  0.087621  -0.003861  3.953726  -0.002
N  N98  1  0.17098006  0.95629984  0.12722767  1  -1.239325  0.071798  -0.338256  -0.234258  0.042066  3.637256  0.064
N  N99  1  0.67095760  0.08333723  0.87274867  1  -1.236017  0.071731  -0.338891  -0.234855  0.04202  3.635822  0.063
N  N100  1  0.97271829  0.06207391  0.25717542  1  -1.243829  0.074829  -0.339893  -0.234032  0.043876  3.642628  0.066
N  N101  1  0.47275521  0.31924494  0.74284111  1  -1.191266  0.074705  -0.340242  -0.234178  0.043851  3.640593  0.066
O  O102  1  0.79701250  0.25485123  0.65186075  1  -1.139018  0.091245  -0.3202  -0.53712  0.051572  2.204422  0.081
O  O103  1  0.29709608  0.90668581  0.34818111  1  -1.14442  0.09113  -0.320027  -0.537369  0.051547  2.202384  0.081
O  O104  1  0.93939053  0.20998010  0.79660278  1  -1.139947  0.077254  -0.306606  -0.522886  0.04378  2.242391  0.069
O  O105  1  0.43918710  0.00690910  0.20340575  1  -1.137742  0.077266  -0.306518  -0.523249  0.043792  2.244335  0.069
O  O106  1  0.67843958  0.29306700  0.93858120  1  -1.14209  0.080821  -0.310648  -0.524473  0.045705  2.175046  0.072
O  O107  1  0.17824108  0.23160858  0.06169106  1  -1.134595  0.081058  -0.310996  -0.524989  0.045802  2.174881  0.073
O  O108  1  0.71925402  0.43070511  0.76743979  1  -1.128004  0.077218  -0.308242  -0.52513  0.04368  2.26708  0.069
O  O109  1  0.21889097  0.19801398  0.23287103  1  -1.143453  0.077127  -0.308508  -0.525206  0.043687  2.267084  0.069
