# generated using pymatgen
data_Cd3H36C36Br6(N5O2)2
_symmetry_space_group_name_H-M   'P 1'
_cell_length_a   7.85567595
_cell_length_b   8.56242011
_cell_length_c   19.16020755
_cell_angle_alpha   98.28281648
_cell_angle_beta   91.56621432
_cell_angle_gamma   100.98694829
_symmetry_Int_Tables_number   1
_chemical_formula_structural   Cd3H36C36Br6(N5O2)2
_chemical_formula_sum   'Cd3 H36 C36 Br6 N10 O4'
_cell_volume   1249.97227497
_cell_formula_units_Z   1
loop_
 _symmetry_equiv_pos_site_id
 _symmetry_equiv_pos_as_xyz
  1  'x, y, z'
loop_
 _atom_site_type_symbol
 _atom_site_label
 _atom_site_symmetry_multiplicity
 _atom_site_fract_x
 _atom_site_fract_y
 _atom_site_fract_z
 _atom_site_occupancy
 _atom_site_hle17_bader_spin_density
 _atom_site_hle17_ddec_charge
 _atom_site_hle17_ddec_spin_density
 _atom_site_hle17_ddec_sum_bond_order
 _atom_site_hle17_magmom
 _atom_site_hse06_10hf_bader_spin_density
 _atom_site_hse06_10hf_ddec_charge
 _atom_site_hse06_10hf_ddec_spin_density
 _atom_site_hse06_10hf_ddec_sum_bond_order
 _atom_site_hse06_10hf_magmom
 _atom_site_hse06_bader_spin_density
 _atom_site_hse06_ddec_charge
 _atom_site_hse06_ddec_spin_density
 _atom_site_hse06_ddec_sum_bond_order
 _atom_site_hse06_magmom
 _atom_site_pbe_bader_spin_density
 _atom_site_pbe_cm5_charge
 _atom_site_pbe_ddec_charge
 _atom_site_pbe_ddec_spin_density
 _atom_site_pbe_ddec_sum_bond_order
 _atom_site_pbe_magmom
Cd  Cd0  1  0.49999915  0.49999879  0.49999940  1  0  0.966663  0  1.871293  0  0  0.773836  0  2.313642  0  0  0.823593  0  2.275564  0  0  0.702858  0.738948  0  2.33934  0
Cd  Cd1  1  0.59708980  0.60549188  0.27289345  1  0  0.916903  0  1.954946  0  0  0.75978  0  2.443866  0  0  0.810701  0  2.394796  0  0  0.509969  0.724207  0  2.4769  0
Cd  Cd2  1  0.40291498  0.39450085  0.72710931  1  0  0.916885  0  1.954848  0  0  0.759764  0  2.443763  0  0  0.810682  0  2.394697  0  0  0.509958  0.724197  0  2.476789  0
H  H3  1  0.25087719  0.56960392  0.36055101  1  0  0.09744  0  0.978977  0  0  0.10362  0  1.049568  0  0  0.106392  0  1.046404  0  0  0.125654  0.101579  0  1.051825  0
H  H4  1  0.74912132  0.43039484  0.63944891  1  0  0.097439  0  0.978899  0  0  0.103623  0  1.049491  0  0  0.106392  0  1.046332  0  0  0.125639  0.101581  0  1.051747  0
H  H5  1  0.39754983  0.88114057  0.55351549  1  0  0.094006  0  0.995839  0  0  0.099604  0  1.066267  0  0  0.101964  0  1.065029  0  0  0.098337  0.097866  0  1.067285  0
H  H6  1  0.60245125  0.11885822  0.44648396  1  0  0.094024  0  0.995851  0  0  0.099643  0  1.066243  0  0  0.102005  0  1.065003  0  0  0.098344  0.097903  0  1.067265  0
H  H7  1  0.16584393  0.00438562  0.47713493  1  0  0.112764  0  0.970436  0  0  0.121788  0  1.032163  0  0  0.124127  0  1.031987  0  0  0.118419  0.120098  0  1.032399  0
H  H8  1  0.83415917  0.99561679  0.52286479  1  0  0.11272  0  0.970488  0  0  0.121763  0  1.0322  0  0  0.124102  0  1.032024  0  0  0.118393  0.120072  0  1.032438  0
H  H9  1  0.93134628  0.81825763  0.36476392  1  0  0.072869  0  0.958829  0  0  0.083724  0  1.030701  0  0  0.08489  0  1.029488  0  0  0.096646  0.082796  0  1.031675  0
H  H10  1  0.06865228  0.18174115  0.63523496  1  0  0.072921  0  0.958787  0  0  0.083712  0  1.030689  0  0  0.084876  0  1.029475  0  0  0.096667  0.082787  0  1.031658  0
H  H11  1  0.03955021  0.69573894  0.30610309  1  0  0.090265  0  0.927746  0  0  0.106561  0  0.990544  0  0  0.107289  0  0.989873  0  0  0.11144  0.105894  0  0.991257  0
H  H12  1  0.96045188  0.30425865  0.69389682  1  0  0.090299  0  0.927755  0  0  0.106585  0  0.990516  0  0  0.10731  0  0.989849  0  0  0.111435  0.105902  0  0.991243  0
H  H13  1  0.43074348  0.17319467  0.35721958  1  0  0.093991  0  0.970963  0  0  0.099648  0  1.044693  0  0  0.102733  0  1.040661  0  0  0.118296  0.097329  0  1.047673  0
H  H14  1  0.56925740  0.82680294  0.64277874  1  0  0.094002  0  0.970843  0  0  0.099664  0  1.044575  0  0  0.102748  0  1.040543  0  0  0.118285  0.097346  0  1.047552  0
H  H15  1  0.05629738  0.37125543  0.47558392  1  0  0.106879  0  0.95295  0  0  0.114998  0  1.015882  0  0  0.117696  0  1.014468  0  0  0.109746  0.113027  0  1.017027  0
H  H16  1  0.94370375  0.62873735  0.52441512  1  0  0.106894  0  0.952941  0  0  0.115039  0  1.015855  0  0  0.117738  0  1.01444  0  0  0.109763  0.113068  0  1.016999  0
H  H17  1  0.88807441  0.10782470  0.37900927  1  0  0.113189  0  1.001533  0  0  0.119305  0  1.070194  0  0  0.1226  0  1.068285  0  0  0.103441  0.116882  0  1.071702  0
H  H18  1  0.11192644  0.89216687  0.62099021  1  0  0.113221  0  1.001495  0  0  0.119355  0  1.070123  0  0  0.122651  0  1.068211  0  0  0.103437  0.116929  0  1.071639  0
H  H19  1  0.25222451  0.93658759  0.28357733  1  0  0.092634  0  0.931396  0  0  0.106913  0  0.993535  0  0  0.108545  0  0.992213  0  0  0.108209  0.1056  0  0.994673  0
H  H20  1  0.74777710  0.06340759  0.71642188  1  0  0.092638  0  0.931341  0  0  0.106914  0  0.993512  0  0  0.108542  0  0.992189  0  0  0.108212  0.105597  0  0.994647  0
H  H21  1  0.03124948  0.94635919  0.26244916  1  0  0.07687  0  0.943903  0  0  0.087503  0  1.015647  0  0  0.087529  0  1.016874  0  0  0.102323  0.087437  0  1.014871  0
H  H22  1  0.96875290  0.05363962  0.73754979  1  0  0.076886  0  0.943896  0  0  0.087536  0  1.015643  0  0  0.087566  0  1.016869  0  0  0.102318  0.087465  0  1.014865  0
H  H23  1  0.19593803  0.07646077  0.12481757  1  0  0.126269  0  0.936847  0  0  0.136397  0  0.991278  0  0  0.139591  0  0.991008  0  0  0.119594  0.134071  0  0.991686  0
H  H24  1  0.80406585  0.92353924  0.87518201  1  0  0.126249  0  0.936843  0  0  0.13638  0  0.991276  0  0  0.139573  0  0.991007  0  0  0.119606  0.134055  0  0.991684  0
H  H25  1  0.88750732  0.92496226  0.09321795  1  0  0.108845  0  0.922929  0  0  0.118708  0  0.980957  0  0  0.121854  0  0.978153  0  0  0.131342  0.116448  0  0.983027  0
H  H26  1  0.11249683  0.07503402  0.90678712  1  0  0.10875  0  0.923035  0  0  0.118644  0  0.981038  0  0  0.121789  0  0.978234  0  0  0.131322  0.116383  0  0.983108  0
H  H27  1  0.51917356  0.03541932  0.18223336  1  0  0.112646  0  0.942356  0  0  0.123696  0  1.006962  0  0  0.126421  0  1.003952  0  0  0.115576  0.121639  0  1.0092  0
H  H28  1  0.48082695  0.96457703  0.81776748  1  0  0.112684  0  0.942345  0  0  0.123711  0  1.006926  0  0  0.126438  0  1.003915  0  0  0.115578  0.121657  0  1.00916  0
H  H29  1  0.60905118  0.86152194  0.15294267  1  0  0.092391  0  0.962931  0  0  0.099899  0  1.037389  0  0  0.101601  0  1.035724  0  0  0.100036  0.09852  0  1.038703  0
H  H30  1  0.39094564  0.13847939  0.84704956  1  0  0.092393  0  0.962906  0  0  0.099887  0  1.037337  0  0  0.101586  0  1.035673  0  0  0.100026  0.098509  0  1.038649  0
H  H31  1  0.55136022  0.74246104  0.03414660  1  0  0.100567  0  0.946369  0  0  0.111171  0  1.00394  0  0  0.114528  0  1.002198  0  0  0.100769  0.108719  0  1.005293  0
H  H32  1  0.44864043  0.25756057  0.96585489  1  0  0.100638  0  0.946318  0  0  0.111188  0  1.00394  0  0  0.114544  0  1.0022  0  0  0.100792  0.108737  0  1.005292  0
H  H33  1  0.45916543  0.75344142  0.90968122  1  0  0.111643  0  0.954076  0  0  0.119065  0  1.019156  0  0  0.122273  0  1.017571  0  0  0.099315  0.116718  0  1.020373  0
H  H34  1  0.54083509  0.24657302  0.09031822  1  0  0.111555  0  0.954284  0  0  0.118983  0  1.019355  0  0  0.122191  0  1.017769  0  0  0.099271  0.116637  0  1.02057  0
H  H35  1  0.69030450  0.24155325  0.23948243  1  0  0.114421  0  0.965715  0  0  0.117222  0  1.037992  0  0  0.120988  0  1.033692  0  0  0.123833  0.114207  0  1.041564  0
H  H36  1  0.30969269  0.75844548  0.76051850  1  0  0.114382  0  0.965587  0  0  0.117166  0  1.03791  0  0  0.120935  0  1.033603  0  0  0.123802  0.114152  0  1.04148  0
H  H37  1  0.98717047  0.40687027  0.27483726  1  0  0.122726  0  0.951326  0  0  0.127484  0  1.019902  0  0  0.131305  0  1.017879  0  0  0.109785  0.124627  0  1.021705  0
H  H38  1  0.01282470  0.59313087  0.72516276  1  0  0.122718  0  0.951294  0  0  0.127471  0  1.019894  0  0  0.131292  0  1.017869  0  0  0.109758  0.124615  0  1.021696  0
C  C39  1  0.26076975  0.66827012  0.40376407  1  0  0.159178  0  3.674771  0  0  0.095453  0  3.946808  0  0  0.109069  0  3.959889  0  0  0.129564  0.08665  0  3.937691  0
C  C40  1  0.73923155  0.33172986  0.59623599  1  0  0.159152  0  3.674734  0  0  0.09542  0  3.946762  0  0  0.109035  0  3.959845  0  0  0.129572  0.086619  0  3.93764  0
C  C41  1  0.33329384  0.83271598  0.50212234  1  0  0.010521  0  3.758149  0  0  -0.021152  0  4.021372  0  0  -0.018897  0  4.041798  0  0  -0.00964  -0.022665  0  4.007583  0
C  C42  1  0.66670185  0.16728155  0.49787797  1  0  0.010552  0  3.758137  0  0  -0.021143  0  4.021367  0  0  -0.018879  0  4.041774  0  0  -0.009619  -0.022659  0  4.007589  0
C  C43  1  0.21982511  0.89702671  0.46453318  1  0  -0.067616  0  3.663761  0  0  -0.105856  0  3.920014  0  0  -0.104798  0  3.939014  0  0  -0.005813  -0.106534  0  3.907295  0
C  C44  1  0.78017649  0.10297450  0.53546591  1  0  -0.067624  0  3.663793  0  0  -0.105893  0  3.920066  0  0  -0.104834  0  3.939069  0  0  -0.005821  -0.106571  0  3.90735  0
C  C45  1  0.05838816  0.80686200  0.34427940  1  0  -0.022541  0  3.641094  0  0  -0.086223  0  3.894315  0  0  -0.08247  0  3.905537  0  0  -0.053727  -0.088619  0  3.886714  0
C  C46  1  0.94160945  0.19313802  0.65571798  1  0  -0.022644  0  3.641261  0  0  -0.086214  0  3.894443  0  0  -0.082457  0  3.905657  0  0  -0.053757  -0.088601  0  3.886835  0
C  C47  1  0.30844810  0.19392466  0.37779738  1  0  0.162388  0  3.665792  0  0  0.099968  0  3.935695  0  0  0.113334  0  3.949208  0  0  0.134935  0.091368  0  3.926289  0
C  C48  1  0.69155279  0.80607295  0.62220094  1  0  0.16233  0  3.665784  0  0  0.099908  0  3.935678  0  0  0.113277  0  3.94918  0  0  0.134959  0.091309  0  3.926271  0
C  C49  1  0.10981669  0.29131184  0.43695621  1  0  -0.004884  0  3.766973  0  0  -0.03854  0  4.035814  0  0  -0.0364  0  4.055492  0  0  -0.010726  -0.039977  0  4.022531  0
C  C50  1  0.89018343  0.70868215  0.56304237  1  0  -0.004874  0  3.766809  0  0  -0.038555  0  4.035654  0  0  -0.036418  0  4.055332  0  0  -0.010756  -0.039993  0  4.02237  0
C  C51  1  0.02446806  0.16206389  0.38979452  1  0  -0.077964  0  3.69115  0  0  -0.115447  0  3.949446  0  0  -0.115084  0  3.969319  0  0  -0.009294  -0.115554  0  3.936102  0
C  C52  1  0.97553328  0.83793008  0.61020513  1  0  -0.078085  0  3.690975  0  0  -0.11558  0  3.949278  0  0  -0.115218  0  3.96915  0  0  -0.009276  -0.115695  0  3.93595  0
C  C53  1  0.12689267  0.94809323  0.30553115  1  0  -0.017192  0  3.61809  0  0  -0.079368  0  3.872753  0  0  -0.075909  0  3.883957  0  0  -0.053682  -0.081594  0  3.865197  0
C  C54  1  0.87310998  0.05190679  0.69446737  1  0  -0.017211  0  3.618043  0  0  -0.079459  0  3.872747  0  0  -0.076  0  3.883947  0  0  -0.053673  -0.081662  0  3.865154  0
C  C55  1  0.29781981  0.34702450  0.22254879  1  0  0.627957  0  3.935748  0  0  0.580571  0  4.228618  0  0  0.614416  0  4.221042  0  0  0.198466  0.557697  0  4.232779  0
C  C56  1  0.70217529  0.65297661  0.77745279  1  0  0.627956  0  3.935771  0  0  0.580615  0  4.228665  0  0  0.61446  0  4.221091  0  0  0.198445  0.557734  0  4.232831  0
C  C57  1  0.11486534  0.25516582  0.20170160  1  0  0.031448  0  3.660932  0  0  0.043589  0  3.897203  0  0  0.04516  0  3.91297  0  0  0.021232  0.042347  0  3.886917  0
C  C58  1  0.88513038  0.74483776  0.79829755  1  0  0.031581  0  3.660807  0  0  0.04354  0  3.897346  0  0  0.045113  0  3.913112  0  0  0.02134  0.042317  0  3.887042  0
C  C59  1  0.08652792  0.11740699  0.15010414  1  0  -0.110731  0  3.69792  0  0  -0.128879  0  3.945162  0  0  -0.134446  0  3.963182  0  0  -0.064289  -0.125382  0  3.933411  0
C  C60  1  0.91347307  0.88259175  0.84989739  1  0  -0.110719  0  3.69796  0  0  -0.128812  0  3.945299  0  0  -0.13438  0  3.963322  0  0  -0.064308  -0.125326  0  3.933554  0
C  C61  1  0.91942533  0.03321159  0.13223037  1  0  0.087958  0  3.606296  0  0  0.044473  0  3.859652  0  0  0.052547  0  3.873675  0  0  0.064073  0.038574  0  3.851323  0
C  C62  1  0.08057053  0.96678711  0.86777158  1  0  0.088079  0  3.606351  0  0  0.044549  0  3.859746  0  0  0.052625  0  3.873771  0  0  0.064089  0.038658  0  3.851407  0
C  C63  1  0.60551771  0.98549152  0.14507832  1  0  -0.07819  0  3.619611  0  0  -0.144059  0  3.862737  0  0  -0.140474  0  3.872358  0  0  -0.057111  -0.146152  0  3.856145  0
C  C64  1  0.39448406  0.01451086  0.85492242  1  0  -0.078385  0  3.619633  0  0  -0.144048  0  3.862539  0  0  -0.140462  0  3.872168  0  0  -0.057108  -0.146157  0  3.855961  0
C  C65  1  0.55167667  0.99349967  0.06990817  1  0  0.064682  0  3.765584  0  0  0.084462  0  4.00722  0  0  0.082602  0  4.033382  0  0  -0.016105  0.085762  0  3.989315  0
C  C66  1  0.44832570  0.00651830  0.93009520  1  0  0.064779  0  3.765452  0  0  0.084368  0  4.007256  0  0  0.082502  0  4.033432  0  0  -0.016216  0.085692  0  3.989314  0
C  C67  1  0.52839129  0.85518078  0.01894898  1  0  -0.11728  0  3.755921  0  0  -0.134193  0  3.997715  0  0  -0.13748  0  4.020251  0  0  -0.091443  -0.131872  0  3.982363  0
C  C68  1  0.47161936  0.14483972  0.98105158  1  0  -0.117402  0  3.755644  0  0  -0.134233  0  3.997511  0  0  -0.137518  0  4.02005  0  0  -0.091456  -0.131917  0  3.982152  0
C  C69  1  0.47690683  0.86128753  0.94931416  1  0  -0.109128  0  3.731439  0  0  -0.131102  0  3.9817  0  0  -0.133287  0  4.003004  0  0  -0.092879  -0.129508  0  3.967194  0
C  C70  1  0.52310291  0.13872928  0.05068979  1  0  -0.109066  0  3.731445  0  0  -0.131076  0  3.981594  0  0  -0.133262  0  4.002892  0  0  -0.092914  -0.129478  0  3.967101  0
C  C71  1  0.80664714  0.21163348  0.21581376  1  0  0.110555  0  3.565499  0  0  0.065741  0  3.820881  0  0  0.075015  0  3.833342  0  0  0.073519  0.059655  0  3.812848  0
C  C72  1  0.19335051  0.78836765  0.78418786  1  0  0.110603  0  3.56532  0  0  0.06581  0  3.820707  0  0  0.075084  0  3.833172  0  0  0.073567  0.059725  0  3.812671  0
C  C73  1  0.97197888  0.30180356  0.23424652  1  0  -0.091489  0  3.6844  0  0  -0.117508  0  3.943453  0  0  -0.12267  0  3.960981  0  0  -0.064229  -0.114521  0  3.932284  0
C  C74  1  0.02801757  0.69819759  0.76575353  1  0  -0.09161  0  3.684265  0  0  -0.117575  0  3.943362  0  0  -0.12274  0  3.960894  0  0  -0.064271  -0.11459  0  3.932172  0
Br  Br75  1  0.72066271  0.48168623  0.37785149  1  0  -0.520849  0  0.99212  0  0  -0.454924  0  1.310821  0  0  -0.474979  0  1.286923  0  0  -0.250678  -0.440529  0  1.326979  0
Br  Br76  1  0.27933575  0.51829333  0.62214557  1  0  -0.520825  0  0.992059  0  0  -0.45491  0  1.310781  0  0  -0.474961  0  1.286879  0  0  -0.250684  -0.440528  0  1.326959  0
Br  Br77  1  0.59938028  0.90978044  0.32036199  1  0  -0.559019  0  0.945454  0  0  -0.498685  0  1.235716  0  0  -0.517545  0  1.213907  0  0  -0.280348  -0.484963  0  1.250486  0
Br  Br78  1  0.40061962  0.09021236  0.67963599  1  0  -0.559013  0  0.945428  0  0  -0.498649  0  1.235632  0  0  -0.517508  0  1.213824  0  0  -0.280328  -0.484944  0  1.250437  0
Br  Br79  1  0.78171291  0.60660997  0.16157180  1  0  -0.59099  0  0.806312  0  0  -0.530827  0  1.042727  0  0  -0.550954  0  1.02192  0  0  -0.339524  -0.515774  0  1.056705  0
Br  Br80  1  0.21827933  0.39337675  0.83842667  1  0  -0.59098  0  0.806287  0  0  -0.530821  0  1.042696  0  0  -0.55094  0  1.021878  0  0  -0.339508  -0.515767  0  1.056669  0
N  N81  1  0.35716717  0.68987406  0.46389707  1  0  -0.392148  0  3.283114  0  0  -0.313906  0  3.561082  0  0  -0.335734  0  3.580584  0  0  -0.367075  -0.298961  0  3.547373  0
N  N82  1  0.64283310  0.31012712  0.53610305  1  0  -0.392117  0  3.283066  0  0  -0.313869  0  3.561025  0  0  -0.335696  0  3.580529  0  0  -0.367034  -0.298922  0  3.54731  0
N  N83  1  0.17507108  0.79122116  0.40206562  1  0  -0.063408  0  3.571993  0  0  0.03196  0  3.790008  0  0  0.017337  0  3.816278  0  0  -0.247941  0.041631  0  3.772167  0
N  N84  1  0.82492924  0.20878004  0.59793346  1  0  -0.063385  0  3.572113  0  0  0.031976  0  3.790077  0  0  0.017351  0  3.816347  0  0  -0.247949  0.041649  0  3.77223  0
N  N85  1  0.28658207  0.31006871  0.42888982  1  0  -0.384538  0  3.26104  0  0  -0.306743  0  3.536796  0  0  -0.327716  0  3.55595  0  0  -0.360109  -0.292376  0  3.523261  0
N  N86  1  0.71341877  0.68992888  0.57110954  1  0  -0.38455  0  3.260972  0  0  -0.306759  0  3.53675  0  0  -0.327733  0  3.555912  0  0  -0.360133  -0.292391  0  3.523216  0
N  N87  1  0.15231738  0.10147063  0.35263132  1  0  -0.077397  0  3.577708  0  0  0.018972  0  3.793787  0  0  0.003539  0  3.821659  0  0  -0.253493  0.029233  0  3.774734  0
N  N88  1  0.84768353  0.89852699  0.64736647  1  0  -0.077271  0  3.577591  0  0  0.019109  0  3.793686  0  0  0.003676  0  3.82156  0  0  -0.2535  0.029365  0  3.774627  0
N  N89  1  0.78314381  0.08120661  0.16514819  1  0  0.013365  0  3.528015  0  0  0.1099  0  3.734659  0  0  0.097103  0  3.760116  0  0  -0.201415  0.118123  0  3.717558  0
N  N90  1  0.21685450  0.91879206  0.83485589  1  0  0.013387  0  3.528011  0  0  0.109886  0  3.734644  0  0  0.097089  0  3.760104  0  0  -0.201435  0.118108  0  3.717541  0
O  O91  1  0.31070622  0.49458745  0.25079834  1  0  -0.611676  0  2.002988  0  0  -0.542339  0  2.244651  0  0  -0.571811  0  2.233846  0  0  -0.329463  -0.521626  0  2.251185  0
O  O92  1  0.68929492  0.50541245  0.74920536  1  0  -0.611665  0  2.003001  0  0  -0.542344  0  2.244668  0  0  -0.571814  0  2.233863  0  0  -0.329478  -0.52163  0  2.251205  0
O  O93  1  0.42069136  0.27406770  0.21134471  1  0  -0.611635  0  1.950923  0  0  -0.569269  0  2.188909  0  0  -0.594223  0  2.181032  0  0  -0.316885  -0.551497  0  2.193544  0
O  O94  1  0.57930357  0.72593225  0.78865522  1  0  -0.61165  0  1.950972  0  0  -0.569257  0  2.188916  0  0  -0.594214  0  2.181043  0  0  -0.316868  -0.551484  0  2.193552  0
