# generated using pymatgen
data_NiH6C8(NO)4
_symmetry_space_group_name_H-M   'P 1'
_cell_length_a   7.21537110
_cell_length_b   7.42899653
_cell_length_c   18.10614487
_cell_angle_alpha   90.00008421
_cell_angle_beta   90.00016807
_cell_angle_gamma   89.99961321
_symmetry_Int_Tables_number   1
_chemical_formula_structural   NiH6C8(NO)4
_chemical_formula_sum   'Ni4 H24 C32 N16 O16'
_cell_volume   970.54308395
_cell_formula_units_Z   4
loop_
 _symmetry_equiv_pos_site_id
 _symmetry_equiv_pos_as_xyz
  1  'x, y, z'
loop_
 _atom_site_type_symbol
 _atom_site_label
 _atom_site_symmetry_multiplicity
 _atom_site_fract_x
 _atom_site_fract_y
 _atom_site_fract_z
 _atom_site_occupancy
 _atom_site_hle17_ddec_charge
 _atom_site_hle17_ddec_spin_density
 _atom_site_hle17_ddec_sum_bond_order
 _atom_site_hle17_magmom
 _atom_site_hse06_10hf_ddec_charge
 _atom_site_hse06_10hf_ddec_spin_density
 _atom_site_hse06_10hf_ddec_sum_bond_order
 _atom_site_hse06_10hf_magmom
 _atom_site_hse06_ddec_charge
 _atom_site_hse06_ddec_spin_density
 _atom_site_hse06_ddec_sum_bond_order
 _atom_site_hse06_magmom
 _atom_site_pbe_cm5_charge
 _atom_site_pbe_ddec_charge
 _atom_site_pbe_ddec_spin_density
 _atom_site_pbe_ddec_sum_bond_order
 _atom_site_pbe_magmom
Ni  Ni0  1  0.99999996  0.49999710  0.50000001  1  0.945521  1.747978  2.033565  1.474  0.989303  1.805823  2.421084  1.603  1.069536  1.868683  2.35223  1.698  0.662772  0.923567  1.744384  2.484766  1.511
Ni  Ni1  1  0.99999911  0.00000259  0.99999925  1  0.945427  1.747947  2.033745  1.474  0.989348  1.805814  2.421202  1.603  1.069606  1.868674  2.35228  1.698  0.662775  0.923582  1.744361  2.48491  1.511
Ni  Ni2  1  0.50000062  0.00000241  0.99999976  1  0.945516  1.747964  2.033699  1.474  0.989348  1.805822  2.421193  1.603  1.069589  1.868681  2.352319  1.698  0.6628  0.92359  1.74438  2.4849  1.511
Ni  Ni3  1  0.49999919  0.49999816  0.49999978  1  0.9454  1.747928  2.033802  1.474  0.989269  1.805811  2.421296  1.603  1.069556  1.868676  2.352343  1.698  0.662771  0.923509  1.744357  2.485006  1.511
H  H4  1  0.04882001  0.48436454  0.27191836  1  0.135729  9.4e-05  0.935786  0.0  0.14238  6.3e-05  0.995416  0.0  0.146762  2.8e-05  0.992835  0.0  0.121339  0.138925  9.8e-05  0.997741  0.0
H  H5  1  0.95116918  0.01563837  0.77191478  1  0.135807  9.4e-05  0.935717  0.0  0.14238  6.3e-05  0.995412  0.0  0.146759  2.8e-05  0.992835  0.0  0.121324  0.138923  9.8e-05  0.99774  0.0
H  H6  1  0.45117857  0.98436877  0.22808060  1  0.135709  9.5e-05  0.935816  0.0  0.14236  6.3e-05  0.995455  0.0  0.146741  2.8e-05  0.992876  0.0  0.121333  0.138903  9.8e-05  0.997783  0.0
H  H7  1  0.54883039  0.51563983  0.72808481  1  0.135746  9.5e-05  0.935707  0.0  0.14232  6.3e-05  0.995415  0.0  0.146699  2.8e-05  0.992838  0.0  0.121304  0.138862  9.8e-05  0.997742  0.0
H  H8  1  0.95117838  0.51563179  0.72808175  1  0.135711  9.5e-05  0.935796  0.0  0.142357  6.3e-05  0.995434  0.0  0.146738  2.8e-05  0.992854  0.0  0.121336  0.1389  9.8e-05  0.997761  0.0
H  H9  1  0.04883198  0.98436200  0.22808477  1  0.135799  9.4e-05  0.935719  0.0  0.142376  6.3e-05  0.995419  0.0  0.146755  2.8e-05  0.992842  0.0  0.121319  0.138919  9.8e-05  0.997746  0.0
H  H10  1  0.54882120  0.01563429  0.77191895  1  0.135714  9.5e-05  0.935793  0.0  0.142364  6.3e-05  0.995426  0.0  0.146746  2.8e-05  0.992845  0.0  0.121326  0.138905  9.8e-05  0.997753  0.0
H  H11  1  0.45116938  0.48436053  0.27191529  1  0.135792  9.4e-05  0.93571  0.0  0.142374  6.3e-05  0.995407  0.0  0.146753  2.8e-05  0.99283  0.0  0.121333  0.138919  9.8e-05  0.997732  0.0
H  H12  1  0.03807847  0.51736878  0.13342781  1  0.115576  -0.000103  0.920069  0.0  0.124067  4e-05  0.978939  0.0  0.127685  8e-06  0.975387  0.0  0.136884  0.120911  8.6e-05  0.982331  0.0
H  H13  1  0.96192154  0.98263005  0.63342452  1  0.115608  -0.000104  0.920102  0.0  0.124053  4e-05  0.979023  0.0  0.127666  8e-06  0.97548  0.0  0.136885  0.120895  8.6e-05  0.982417  0.0
H  H14  1  0.46192061  0.01736759  0.36657087  1  0.115588  -0.000105  0.920015  0.0  0.124047  4e-05  0.978925  0.0  0.127664  9e-06  0.975373  0.0  0.136867  0.120891  8.6e-05  0.982321  0.0
H  H15  1  0.53808171  0.48263162  0.86657479  1  0.115618  -0.000103  0.920061  0.0  0.124066  4e-05  0.978974  0.0  0.12768  9e-06  0.975428  0.0  0.136882  0.120909  8.6e-05  0.982367  0.0
H  H16  1  0.96192269  0.48263293  0.86657174  1  0.115593  -0.000104  0.920067  0.0  0.124084  4e-05  0.978934  0.0  0.127702  9e-06  0.975382  0.0  0.136886  0.120925  8.6e-05  0.982327  0.0
H  H17  1  0.03807962  0.01736762  0.36657447  1  0.115625  -0.000105  0.920071  0.0  0.124075  4e-05  0.978983  0.0  0.12769  9e-06  0.975437  0.0  0.136895  0.120918  8.6e-05  0.982377  0.0
H  H18  1  0.53808055  0.98263143  0.63342923  1  0.115607  -0.000105  0.919997  0.0  0.12407  4e-05  0.978912  0.0  0.127686  8e-06  0.975363  0.0  0.136884  0.12091  8.6e-05  0.982304  0.0
H  H19  1  0.46191945  0.51737009  0.13342531  1  0.115594  -0.000105  0.920092  0.0  0.124044  4e-05  0.978998  0.0  0.127658  8e-06  0.975452  0.0  0.136892  0.12089  8.6e-05  0.982391  0.0
H  H20  1  0.62556667  0.59821205  0.03101656  1  0.136608  -0.000114  0.969178  0.0  0.142108  0.000109  1.03563  0.0  0.14566  2e-05  1.033536  0.0  0.121804  0.139411  0.000215  1.037225  0.0
H  H21  1  0.37443124  0.90178506  0.53101525  1  0.136675  -0.000113  0.96908  0.0  0.14217  0.000109  1.035528  0.0  0.145717  2e-05  1.033443  0.0  0.121826  0.13947  0.000215  1.037122  0.0
H  H22  1  0.87443030  0.09820642  0.46898501  1  0.136682  -0.000113  0.969083  0.0  0.142163  0.000109  1.035534  0.0  0.145714  2e-05  1.033445  0.0  0.121811  0.139467  0.000215  1.037127  0.0
H  H23  1  0.12556856  0.40179317  0.96898449  1  0.13667  -0.000113  0.969093  0.0  0.14216  0.000109  1.035559  0.0  0.145711  2e-05  1.03347  0.0  0.121814  0.13946  0.000215  1.037153  0.0
H  H24  1  0.37443171  0.40179370  0.96898520  1  0.136667  -0.000114  0.969111  0.0  0.14216  0.000109  1.035562  0.0  0.145711  2e-05  1.033473  0.0  0.121811  0.13946  0.000215  1.037159  0.0
H  H25  1  0.62556714  0.09820588  0.46898540  1  0.136714  -0.000113  0.969004  0.0  0.142188  0.000109  1.035475  0.0  0.145744  2e-05  1.033389  0.0  0.121841  0.139491  0.000215  1.037069  0.0
H  H26  1  0.12556948  0.90178991  0.53101620  1  0.136647  -0.000113  0.969133  0.0  0.142141  0.00011  1.035583  0.0  0.14569  2e-05  1.033494  0.0  0.121807  0.139441  0.000215  1.037182  0.0
H  H27  1  0.87442983  0.59821393  0.03101561  1  0.136656  -0.000114  0.969137  0.0  0.142155  0.000109  1.035593  0.0  0.145706  2e-05  1.033503  0.0  0.121819  0.139459  0.000215  1.037184  0.0
C  C28  1  0.74998880  0.45710975  0.36511312  1  0.629025  -0.010931  3.892413  -0.009  0.593489  -0.001359  4.191267  0.0  0.631524  -0.001147  4.181311  0.0  0.211508  0.566078  -0.002043  4.196566  -0.001
C  C29  1  0.24998856  0.04288811  0.86511310  1  0.628717  -0.010935  3.892533  -0.009  0.593256  -0.001359  4.191302  0.0  0.631288  -0.001146  4.181354  0.0  0.211469  0.565846  -0.002043  4.196597  -0.001
C  C30  1  0.75001121  0.95711630  0.13488645  1  0.628938  -0.010934  3.892468  -0.009  0.593454  -0.001359  4.19127  0.0  0.631487  -0.001147  4.181315  0.0  0.211544  0.566041  -0.002044  4.196574  -0.001
C  C31  1  0.25001098  0.54288658  0.63488699  1  0.628866  -0.010933  3.892645  -0.009  0.593372  -0.001359  4.191443  0.0  0.631407  -0.001146  4.181489  0.0  0.211472  0.565961  -0.002043  4.19674  -0.001
C  C32  1  0.74999121  0.47912872  0.28197560  1  0.014508  0.012581  3.677328  0.016  0.022514  0.007514  3.916899  0.01  0.023501  0.005302  3.933373  0.007  0.013202  0.020696  0.010054  3.907803  0.013
C  C33  1  0.24999251  0.02087287  0.78197612  1  0.014542  0.012589  3.67739  0.016  0.022521  0.007513  3.916936  0.01  0.023509  0.005301  3.93341  0.007  0.013169  0.020702  0.010054  3.907837  0.013
C  C34  1  0.75000726  0.97912749  0.21802343  1  0.014479  0.012588  3.677352  0.016  0.022477  0.007513  3.916912  0.01  0.023463  0.005301  3.933386  0.007  0.013198  0.020657  0.010054  3.907815  0.013
C  C35  1  0.25000857  0.52087164  0.71802395  1  0.014515  0.012581  3.677397  0.016  0.022507  0.007513  3.916951  0.01  0.023493  0.005301  3.933427  0.007  0.013201  0.020694  0.010054  3.907845  0.013
C  C36  1  0.91703303  0.49057514  0.24290279  1  -0.105815  -0.005734  3.694603  -0.004  -0.128581  -0.001022  3.952825  -0.001  -0.134368  -0.000862  3.970838  -0.001  -0.064632  -0.125504  -0.001292  3.942969  -0.001
C  C37  1  0.08296012  0.00942496  0.74290088  1  -0.105838  -0.005746  3.694589  -0.004  -0.128495  -0.001022  3.952757  -0.001  -0.134275  -0.000861  3.970759  -0.001  -0.064436  -0.125416  -0.001292  3.942903  -0.001
C  C38  1  0.58296813  0.99057515  0.25709680  1  -0.105802  -0.005755  3.694628  -0.004  -0.128583  -0.001022  3.952876  -0.001  -0.134367  -0.000861  3.970887  -0.001  -0.064657  -0.125501  -0.001292  3.943019  -0.001
C  C39  1  0.41704104  0.50942548  0.75709973  1  -0.105743  -0.005736  3.694592  -0.004  -0.128416  -0.001022  3.952766  -0.001  -0.134195  -0.000861  3.970771  -0.001  -0.064435  -0.125338  -0.001292  3.942909  -0.001
C  C40  1  0.08296674  0.50942388  0.75709732  1  -0.105749  -0.005739  3.694572  -0.004  -0.128512  -0.001022  3.952803  -0.001  -0.134298  -0.000861  3.970816  -0.001  -0.064622  -0.125435  -0.001292  3.942947  -0.001
C  C41  1  0.91703965  0.99057406  0.25709922  1  -0.105825  -0.005747  3.694598  -0.004  -0.128506  -0.001022  3.952791  -0.001  -0.134285  -0.000861  3.970795  -0.001  -0.064466  -0.125429  -0.001292  3.942938  -0.001
C  C42  1  0.41703303  0.00942522  0.74290330  1  -0.105831  -0.00575  3.694627  -0.004  -0.128588  -0.001022  3.952858  -0.001  -0.134373  -0.000861  3.970869  -0.001  -0.064642  -0.125509  -0.001292  3.942999  -0.001
C  C43  1  0.58295874  0.49057623  0.24290092  1  -0.105804  -0.005736  3.694602  -0.004  -0.128511  -0.001022  3.95281  -0.001  -0.134291  -0.000862  3.970812  -0.001  -0.06447  -0.125433  -0.001293  3.942957  -0.001
C  C44  1  0.91373142  0.51085501  0.16708820  1  0.106061  0.003376  3.562338  0.004  0.061094  0.002045  3.818547  0.002  0.0701  0.001396  3.831075  0.001  0.070018  0.054051  0.002965  3.812312  0.003
C  C45  1  0.08626466  0.98914394  0.66708493  1  0.106018  0.003381  3.56242  0.004  0.061099  0.002046  3.818563  0.002  0.070106  0.001396  3.831085  0.001  0.069968  0.054055  0.002966  3.812329  0.003
C  C46  1  0.58626616  0.01085211  0.33291221  1  0.106133  0.003386  3.562272  0.004  0.061192  0.002045  3.818488  0.002  0.0702  0.001396  3.831009  0.001  0.070076  0.054147  0.002965  3.812257  0.003
C  C47  1  0.41373731  0.48914563  0.83291432  1  0.106007  0.003376  3.562509  0.004  0.061106  0.002046  3.818629  0.002  0.070114  0.001396  3.83115  0.001  0.069992  0.054058  0.002966  3.8124  0.003
C  C48  1  0.08626836  0.48914670  0.83291246  1  0.106009  0.003376  3.562397  0.004  0.061046  0.002045  3.818601  0.002  0.070053  0.001396  3.831127  0.001  0.070005  0.054002  0.002965  3.812367  0.003
C  C49  1  0.91373650  0.01085373  0.33291462  1  0.10606  0.003384  3.562401  0.004  0.061146  0.002046  3.818537  0.002  0.070153  0.001396  3.831057  0.001  0.070003  0.054105  0.002966  3.812301  0.003
C  C50  1  0.41373361  0.98914557  0.66708844  1  0.106061  0.003383  3.562279  0.004  0.061095  0.002045  3.818513  0.002  0.070101  0.001396  3.831039  0.001  0.070032  0.054054  0.002965  3.812274  0.003
C  C51  1  0.58626385  0.51085743  0.16708578  1  0.106052  0.003381  3.562515  0.004  0.061165  0.002046  3.818625  0.002  0.070174  0.001396  3.831146  0.001  0.069984  0.054118  0.002966  3.812397  0.003
C  C52  1  0.74999718  0.52656674  0.04934244  1  -0.204308  0.010621  3.543694  0.015  -0.263164  0.006096  3.78192  0.008  -0.266325  0.004272  3.785612  0.006  -0.064634  -0.2603  0.00803  3.779974  0.011
C  C53  1  0.24999948  0.97343448  0.54934212  1  -0.204392  0.010615  3.543614  0.015  -0.263232  0.006096  3.781819  0.008  -0.266384  0.004272  3.785504  0.006  -0.064644  -0.260365  0.00803  3.779877  0.011
C  C54  1  0.75000168  0.02655916  0.45065743  1  -0.204425  0.010617  3.543591  0.015  -0.263181  0.006096  3.781711  0.008  -0.266357  0.004272  3.785425  0.006  -0.064639  -0.260318  0.008031  3.779766  0.011
C  C55  1  0.25000121  0.47343901  0.95065822  1  -0.204341  0.010617  3.543635  0.015  -0.263161  0.006096  3.781823  0.008  -0.266331  0.004272  3.785532  0.006  -0.064617  -0.260294  0.008031  3.77988  0.011
C  C56  1  0.74999638  0.33042311  0.02124308  1  0.682396  -0.012012  3.8217  -0.009  0.646908  -0.002979  4.12304  -0.001  0.684054  -0.002604  4.115756  -0.001  0.221422  0.620394  -0.003476  4.125311  -0.002
C  C57  1  0.24999803  0.16957754  0.52124203  1  0.682445  -0.012013  3.821507  -0.009  0.646966  -0.002979  4.122809  -0.001  0.68411  -0.002603  4.115528  -0.001  0.221377  0.620451  -0.003475  4.125082  -0.002
C  C58  1  0.75000313  0.83041609  0.47875807  1  0.682337  -0.012013  3.821859  -0.009  0.646805  -0.002978  4.123243  -0.001  0.683954  -0.002603  4.115957  -0.001  0.221318  0.620293  -0.003476  4.125513  -0.002
C  C59  1  0.25000339  0.66958265  0.97875702  1  0.682407  -0.012014  3.821759  -0.009  0.646909  -0.002978  4.123105  -0.001  0.684061  -0.002603  4.115813  -0.001  0.221393  0.620396  -0.003475  4.125376  -0.002
N  N60  1  0.74999924  0.42171903  0.54584015  1  -0.523571  0.057533  2.8797  0.095  -0.582045  0.028938  3.25098  0.052  -0.621521  0.012749  3.25457  0.033  -0.309396  -0.551072  0.042701  3.24811  0.066
N  N61  1  0.24999950  0.07828036  0.04584042  1  -0.523532  0.05753  2.879765  0.095  -0.582044  0.028937  3.251057  0.052  -0.621515  0.012747  3.254639  0.033  -0.30938  -0.551067  0.042697  3.248189  0.066
N  N62  1  0.74999889  0.92172404  0.95415803  1  -0.523578  0.05751  2.880054  0.095  -0.582013  0.028928  3.251262  0.052  -0.621494  0.012738  3.254871  0.033  -0.309384  -0.551039  0.042689  3.248391  0.066
N  N63  1  0.25000053  0.57827865  0.45415885  1  -0.523472  0.057508  2.88008  0.095  -0.581918  0.028927  3.251312  0.052  -0.621396  0.012737  3.254921  0.033  -0.309343  -0.550947  0.042686  3.248442  0.066
N  N64  1  0.74999835  0.33556617  0.60206799  1  0.417759  -0.045451  4.158034  -0.042  0.466106  -0.007507  4.470751  -0.006  0.487942  -0.014189  4.499553  -0.011  0.088508  0.450526  -0.001353  4.448721  -0.001
N  N65  1  0.24999939  0.16443342  0.10206776  1  0.41773  -0.045458  4.157981  -0.042  0.466095  -0.00751  4.470708  -0.006  0.48793  -0.014193  4.499513  -0.011  0.088521  0.450512  -0.001354  4.448684  -0.001
N  N66  1  0.75000038  0.83557098  0.89793289  1  0.417847  -0.045469  4.157948  -0.042  0.46619  -0.007514  4.470652  -0.006  0.488025  -0.014198  4.499453  -0.011  0.08865  0.45061  -0.001358  4.448622  -0.001
N  N67  1  0.25000143  0.66442881  0.39793377  1  0.417778  -0.04547  4.158164  -0.042  0.466116  -0.007517  4.470883  -0.006  0.48795  -0.014198  4.499686  -0.011  0.088592  0.450533  -0.001358  4.448859  -0.001
N  N68  1  0.74999883  0.25110938  0.65670246  1  -0.411244  0.100137  2.367564  0.14  -0.425547  0.059146  2.60604  0.082  -0.438363  0.051042  2.616308  0.074  -0.199987  -0.41442  0.067916  2.598181  0.09
N  N69  1  0.24999928  0.24889176  0.15670283  1  -0.411248  0.100145  2.367432  0.14  -0.425561  0.059149  2.605909  0.082  -0.438377  0.051046  2.616179  0.074  -0.200026  -0.414439  0.067919  2.598064  0.09
N  N70  1  0.75000049  0.75110591  0.84329727  1  -0.411372  0.100168  2.367221  0.14  -0.425693  0.059157  2.605704  0.082  -0.438509  0.051055  2.615971  0.074  -0.200141  -0.414564  0.067928  2.597855  0.09
N  N71  1  0.25000233  0.74889099  0.34329709  1  -0.411361  0.100172  2.367277  0.14  -0.425676  0.059159  2.605766  0.082  -0.438495  0.051055  2.616033  0.074  -0.200128  -0.414549  0.067929  2.597919  0.09
N  N72  1  0.74999609  0.51993746  0.13044695  1  0.038684  -0.0063  3.536427  -0.006  0.132381  -0.001594  3.744716  -0.001  0.121804  -0.001511  3.768456  -0.001  -0.201195  0.137827  -0.001609  3.730353  -0.001
N  N73  1  0.24999973  0.98006405  0.63044719  1  0.038748  -0.006302  3.536313  -0.006  0.132453  -0.001594  3.744597  -0.001  0.121876  -0.001512  3.768336  -0.001  -0.201155  0.137897  -0.001609  3.730231  -0.001
N  N74  1  0.75000004  0.01993228  0.36955291  1  0.038641  -0.006306  3.536552  -0.006  0.132328  -0.001594  3.744828  -0.001  0.121754  -0.001512  3.768566  -0.001  -0.201216  0.137774  -0.001609  3.730464  -0.001
N  N75  1  0.25000230  0.48006560  0.86955260  1  0.0387  -0.006293  3.536481  -0.006  0.13239  -0.001594  3.744768  -0.001  0.121817  -0.001511  3.768508  -0.001  -0.201186  0.137838  -0.001608  3.7304  -0.001
O  O76  1  0.90904658  0.44876495  0.39480700  1  -0.588098  0.038021  2.105607  0.064  -0.56619  0.026122  2.37364  0.045  -0.600633  0.019119  2.364302  0.035  -0.301453  -0.538809  0.033435  2.378996  0.055
O  O77  1  0.09092405  0.05127339  0.89480347  1  -0.587799  0.038023  2.105448  0.064  -0.565945  0.02612  2.373448  0.045  -0.600396  0.019117  2.364113  0.035  -0.301292  -0.538557  0.033434  2.378799  0.055
O  O78  1  0.59095487  0.94875762  0.10519256  1  -0.588091  0.038019  2.105715  0.064  -0.566188  0.026121  2.373726  0.045  -0.600633  0.019118  2.364387  0.035  -0.301475  -0.538802  0.033433  2.379086  0.055
O  O79  1  0.40907266  0.55128418  0.60519606  1  -0.587818  0.03802  2.105468  0.064  -0.565913  0.026118  2.373445  0.045  -0.600369  0.019115  2.36411  0.035  -0.301232  -0.538526  0.033431  2.378795  0.055
O  O80  1  0.09095181  0.55123272  0.60519310  1  -0.588073  0.038022  2.10567  0.064  -0.566188  0.026123  2.373698  0.045  -0.600631  0.01912  2.364362  0.035  -0.301463  -0.538806  0.033436  2.379053  0.055
O  O81  1  0.90907572  0.94873101  0.10519608  1  -0.587843  0.038023  2.105441  0.064  -0.565968  0.02612  2.373423  0.045  -0.60042  0.019117  2.364088  0.035  -0.301255  -0.538578  0.033433  2.378775  0.055
O  O82  1  0.40904490  0.05124947  0.89480754  1  -0.587922  0.038018  2.105574  0.064  -0.566038  0.02612  2.373587  0.045  -0.600481  0.019117  2.364254  0.035  -0.301386  -0.538651  0.033433  2.378939  0.055
O  O83  1  0.59092573  0.44870946  0.39480349  1  -0.587904  0.03802  2.105417  0.064  -0.56596  0.026118  2.373383  0.045  -0.600417  0.019115  2.364049  0.035  -0.301238  -0.538573  0.033431  2.378734  0.055
O  O84  1  0.90861768  0.26074560  0.01270959  1  -0.594598  0.037403  2.128544  0.064  -0.565077  0.02561  2.395942  0.045  -0.601515  0.018997  2.387746  0.035  -0.29524  -0.535846  0.0322  2.399899  0.054
O  O85  1  0.09138083  0.23924425  0.51270010  1  -0.594597  0.037399  2.12853  0.064  -0.565037  0.025609  2.39592  0.045  -0.601464  0.018996  2.387729  0.035  -0.295196  -0.535817  0.0322  2.399881  0.054
O  O86  1  0.59138370  0.76073831  0.48728710  1  -0.594574  0.037403  2.128678  0.064  -0.565011  0.025609  2.396054  0.045  -0.601454  0.018997  2.387861  0.035  -0.295177  -0.535784  0.032199  2.400013  0.054
O  O87  1  0.40862011  0.73925239  0.98729347  1  -0.594576  0.037401  2.128732  0.064  -0.565026  0.02561  2.396132  0.045  -0.601458  0.018997  2.387938  0.035  -0.295238  -0.535803  0.032201  2.400096  0.054
O  O88  1  0.09138209  0.73926015  0.98729051  1  -0.594628  0.037404  2.128586  0.064  -0.565097  0.02561  2.395985  0.045  -0.601536  0.018997  2.387786  0.035  -0.295233  -0.535869  0.032201  2.399943  0.054
O  O89  1  0.90862033  0.76074804  0.48729890  1  -0.594562  0.037403  2.128742  0.064  -0.565006  0.02561  2.396165  0.045  -0.601435  0.018997  2.387973  0.035  -0.295218  -0.535781  0.032201  2.40012  0.054
O  O90  1  0.40861746  0.23925668  0.51271245  1  -0.5946  0.037405  2.128529  0.064  -0.565059  0.02561  2.395893  0.045  -0.601504  0.018997  2.387703  0.035  -0.295215  -0.535832  0.032201  2.399852  0.054
O  O91  1  0.59138105  0.26075336  0.01270663  1  -0.594532  0.0374  2.128686  0.064  -0.564981  0.025609  2.39609  0.045  -0.601411  0.018997  2.387898  0.035  -0.295214  -0.535758  0.032199  2.400056  0.054
