# generated using pymatgen
data_Cu3H12C17S2N7F4
_symmetry_space_group_name_H-M   'P 1'
_cell_length_a   8.74510487
_cell_length_b   11.55528571
_cell_length_c   11.70977802
_cell_angle_alpha   95.10865813
_cell_angle_beta   105.01744789
_cell_angle_gamma   107.10003050
_symmetry_Int_Tables_number   1
_chemical_formula_structural   Cu3H12C17S2N7F4
_chemical_formula_sum   'Cu6 H24 C34 S4 N14 F8'
_cell_volume   1074.72103037
_cell_formula_units_Z   2
loop_
 _symmetry_equiv_pos_site_id
 _symmetry_equiv_pos_as_xyz
  1  'x, y, z'
loop_
 _atom_site_type_symbol
 _atom_site_label
 _atom_site_symmetry_multiplicity
 _atom_site_fract_x
 _atom_site_fract_y
 _atom_site_fract_z
 _atom_site_occupancy
 _atom_site_hle17_bader_spin_density
 _atom_site_hle17_ddec_charge
 _atom_site_hle17_ddec_spin_density
 _atom_site_hle17_ddec_sum_bond_order
 _atom_site_hle17_magmom
 _atom_site_hse06_10hf_bader_spin_density
 _atom_site_hse06_10hf_ddec_charge
 _atom_site_hse06_10hf_ddec_spin_density
 _atom_site_hse06_10hf_ddec_sum_bond_order
 _atom_site_hse06_10hf_magmom
 _atom_site_hse06_bader_spin_density
 _atom_site_hse06_ddec_charge
 _atom_site_hse06_ddec_spin_density
 _atom_site_hse06_ddec_sum_bond_order
 _atom_site_hse06_magmom
 _atom_site_pbe_bader_spin_density
 _atom_site_pbe_cm5_charge
 _atom_site_pbe_ddec_charge
 _atom_site_pbe_ddec_spin_density
 _atom_site_pbe_ddec_sum_bond_order
 _atom_site_pbe_magmom
Cu  Cu0  1  0.02224157  0.08506140  0.27335865  1  0  0.269425  0  2.462287  0  0  0.202504  0  2.957186  0  0  0.193108  0  2.914681  0  0  0.356039  0.210213  0  2.98522  0
Cu  Cu1  1  0.97775814  0.91493879  0.72664093  1  0  0.269399  0  2.462135  0  0  0.20246  0  2.957011  0  0  0.193068  0  2.914511  0  0  0.356024  0.21017  0  2.985029  0
Cu  Cu2  1  0.64186857  0.82170361  0.30392169  1  0  0.384385  0  2.253446  0  0  0.31134  0  2.726322  0  0  0.306097  0  2.688628  0  0  0.438983  0.316814  0  2.750285  0
Cu  Cu3  1  0.35813249  0.17829933  0.69607582  1  0  0.384371  0  2.253407  0  0  0.311314  0  2.726287  0  0  0.306073  0  2.688599  0  0  0.438965  0.316788  0  2.750252  0
Cu  Cu4  1  0.90196368  0.37341836  0.00825235  1  0  0.45625  0  2.303635  0  0  0.382814  0  2.81196  0  0  0.374539  0  2.771287  0  0  0.492931  0.391365  0  2.836804  0
Cu  Cu5  1  0.09803802  0.62658089  0.99174586  1  0  0.45621  0  2.30358  0  0  0.382762  0  2.811905  0  0  0.374497  0  2.771221  0  0  0.492922  0.391314  0  2.836769  0
H  H6  1  0.60751019  0.03167415  0.63246765  1  0  0.165213  0  0.921595  0  0  0.170222  0  0.984378  0  0  0.174859  0  0.980782  0  0  0.117843  0.166929  0  0.987074  0
H  H7  1  0.39248199  0.96832517  0.36753113  1  0  0.165235  0  0.921603  0  0  0.170234  0  0.984384  0  0  0.174873  0  0.980783  0  0  0.117843  0.166939  0  0.987079  0
H  H8  1  0.20786395  0.75200226  0.70281288  1  0  0.133571  0  0.956842  0  0  0.137296  0  1.025122  0  0  0.141452  0  1.022283  0  0  0.104038  0.134225  0  1.027429  0
H  H9  1  0.79213595  0.24799332  0.29718808  1  0  0.133593  0  0.956846  0  0  0.137319  0  1.025112  0  0  0.141474  0  1.022274  0  0  0.104026  0.134248  0  1.027419  0
H  H10  1  0.38330092  0.78207212  0.91616750  1  0  0.125758  0  0.942675  0  0  0.1299  0  1.008446  0  0  0.133908  0  1.005908  0  0  0.109346  0.126857  0  1.010504  0
H  H11  1  0.61669873  0.21792530  0.08383099  1  0  0.125765  0  0.942611  0  0  0.129883  0  1.008411  0  0  0.133889  0  1.005877  0  0  0.109337  0.126845  0  1.010463  0
H  H12  1  0.24366385  0.39950884  0.67044598  1  0  0.155066  0  0.939999  0  0  0.157134  0  1.013584  0  0  0.162454  0  1.008823  0  0  0.109782  0.152924  0  1.01771  0
H  H13  1  0.75633423  0.60049044  0.32955404  1  0  0.155071  0  0.940013  0  0  0.157141  0  1.013595  0  0  0.162458  0  1.008837  0  0  0.10978  0.152931  0  1.017721  0
H  H14  1  0.60708175  0.71126902  0.60505013  1  0  0.128178  0  0.957539  0  0  0.132345  0  1.027732  0  0  0.135397  0  1.026911  0  0  0.104853  0.130219  0  1.028274  0
H  H15  1  0.39291870  0.28873302  0.39495316  1  0  0.12822  0  0.957543  0  0  0.132398  0  1.027732  0  0  0.135449  0  1.026909  0  0  0.104862  0.130272  0  1.028273  0
H  H16  1  0.42082714  0.68286506  0.39635723  1  0  0.105468  0  0.97619  0  0  0.104778  0  1.057006  0  0  0.110068  0  1.051432  0  0  0.097528  0.100967  0  1.060917  0
H  H17  1  0.57917577  0.31713696  0.60364316  1  0  0.105445  0  0.9762  0  0  0.104766  0  1.057002  0  0  0.110056  0  1.051428  0  0  0.097508  0.100951  0  1.060909  0
H  H18  1  0.07400734  0.42611580  0.24407110  1  0  0.300817  0  0.913524  0  0  0.278269  0  0.98419  0  0  0.285984  0  0.978128  0  0  0.303046  0.272941  0  0.988199  0
H  H19  1  0.92598993  0.57388441  0.75593053  1  0  0.300791  0  0.913518  0  0  0.278243  0  0.984192  0  0  0.28596  0  0.978125  0  0  0.303046  0.272914  0  0.988205  0
H  H20  1  0.15541106  0.72859208  0.40316257  1  0  0.335566  0  0.900337  0  0  0.314977  0  0.96916  0  0  0.322598  0  0.9624  0  0  0.303803  0.309592  0  0.974166  0
H  H21  1  0.84459387  0.27140899  0.59683560  1  0  0.335591  0  0.900317  0  0  0.314976  0  0.969153  0  0  0.322606  0  0.962382  0  0  0.303789  0.309576  0  0.974178  0
H  H22  1  0.02608297  0.76347310  0.27858017  1  0  0.32788  0  0.919842  0  0  0.309935  0  0.985587  0  0  0.3167  0  0.981259  0  0  0.284664  0.305462  0  0.988088  0
H  H23  1  0.97391954  0.23653077  0.72142284  1  0  0.327894  0  0.919876  0  0  0.309927  0  0.985618  0  0  0.316692  0  0.98129  0  0  0.284659  0.305453  0  0.988121  0
H  H24  1  0.76486707  0.02705668  0.05856571  1  0  0.298988  0  0.899928  0  0  0.278781  0  0.969727  0  0  0.28579  0  0.964673  0  0  0.305344  0.273827  0  0.973322  0
H  H25  1  0.23512839  0.97294446  0.94143134  1  0  0.299053  0  0.899856  0  0  0.278796  0  0.969722  0  0  0.285805  0  0.964663  0  0  0.305338  0.273851  0  0.973312  0
H  H26  1  0.63259936  0.71209089  0.91891392  1  0  0.336639  0  0.886081  0  0  0.318584  0  0.949609  0  0  0.326345  0  0.943013  0  0  0.309314  0.313354  0  0.954109  0
H  H27  1  0.36740265  0.28790651  0.08108507  1  0  0.336622  0  0.886066  0  0  0.318532  0  0.949621  0  0  0.326287  0  0.943038  0  0  0.30932  0.313303  0  0.954119  0
H  H28  1  0.74283691  0.67480480  0.05003169  1  0  0.332437  0  0.91622  0  0  0.316494  0  0.977899  0  0  0.323336  0  0.973649  0  0  0.286312  0.311902  0  0.980469  0
H  H29  1  0.25716669  0.32519629  0.94997134  1  0  0.332455  0  0.916277  0  0  0.31648  0  0.978002  0  0  0.323323  0  0.973744  0  0  0.286297  0.311884  0  0.980572  0
C  C30  1  0.00693783  0.19553584  0.16742466  1  0  -0.093031  0  3.498827  0  0  -0.100623  0  3.868894  0  0  -0.084038  0  3.858849  0  0  -0.067678  -0.112441  0  3.876343  0
C  C31  1  0.99306790  0.80445971  0.83258008  1  0  -0.093055  0  3.499301  0  0  -0.100626  0  3.869328  0  0  -0.084055  0  3.859293  0  0  -0.067702  -0.112437  0  3.876776  0
C  C32  1  0.43895762  0.74389875  0.18756848  1  0  -0.12267  0  3.552217  0  0  -0.121865  0  3.92196  0  0  -0.110472  0  3.920067  0  0  -0.07384  -0.129621  0  3.922794  0
C  C33  1  0.56104528  0.25610049  0.81242913  1  0  -0.122678  0  3.55226  0  0  -0.121875  0  3.922006  0  0  -0.11048  0  3.920107  0  0  -0.073847  -0.129633  0  3.92284  0
C  C34  1  0.15587305  0.11169675  0.43286991  1  0  -0.05126  0  3.461125  0  0  -0.054058  0  3.810904  0  0  -0.038913  0  3.807631  0  0  -0.051839  -0.065128  0  3.813839  0
C  C35  1  0.84412318  0.88830623  0.56713001  1  0  -0.051253  0  3.461072  0  0  -0.054043  0  3.810836  0  0  -0.038898  0  3.807556  0  0  -0.051853  -0.065113  0  3.813765  0
C  C36  1  0.04572974  0.59307897  0.25207372  1  0  0.544827  0  3.795822  0  0  0.501606  0  4.090314  0  0  0.527826  0  4.097491  0  0  0.253815  0.483703  0  4.085009  0
C  C37  1  0.95427391  0.40692212  0.74792760  1  0  0.544889  0  3.795839  0  0  0.501675  0  4.090301  0  0  0.527895  0  4.097477  0  0  0.253842  0.483771  0  4.084995  0
C  C38  1  0.74280811  0.85042672  0.06673626  1  0  0.537779  0  3.777132  0  0  0.495742  0  4.067731  0  0  0.522051  0  4.074062  0  0  0.261727  0.477779  0  4.062906  0
C  C39  1  0.25719247  0.14957531  0.93326278  1  0  0.537616  0  3.777246  0  0  0.495651  0  4.067693  0  0  0.521959  0  4.074029  0  0  0.261719  0.477713  0  4.062867  0
C  C40  1  0.59528504  0.92100618  0.89346184  1  0  0.115562  0  3.79333  0  0  0.098347  0  4.048107  0  0  0.100196  0  4.070812  0  0  0.074161  0.09699  0  4.032895  0
C  C41  1  0.40471590  0.07899399  0.10653629  1  0  0.11551  0  3.793374  0  0  0.09832  0  4.048105  0  0  0.10017  0  4.070799  0  0  0.074148  0.096987  0  4.032897  0
C  C42  1  0.65366717  0.99126698  0.81263510  1  0  0.263183  0  3.772598  0  0  0.246344  0  4.056103  0  0  0.256821  0  4.066434  0  0  0.104949  0.239128  0  4.049463  0
C  C43  1  0.34633254  0.00873321  0.18736448  1  0  0.263233  0  3.772533  0  0  0.246385  0  4.056035  0  0  0.256868  0  4.066357  0  0  0.104994  0.239167  0  4.049384  0
C  C44  1  0.55824788  0.97774980  0.69426471  1  0  -0.292079  0  3.759873  0  0  -0.331199  0  4.033848  0  0  -0.33637  0  4.045815  0  0  -0.105035  -0.328044  0  4.026473  0
C  C45  1  0.44174824  0.02225042  0.30573582  1  0  -0.292113  0  3.759938  0  0  -0.331203  0  4.033886  0  0  -0.336377  0  4.04585  0  0  -0.105036  -0.328058  0  4.026545  0
C  C46  1  0.39957517  0.88980640  0.65854220  1  0  0.334777  0  3.780955  0  0  0.31812  0  4.072316  0  0  0.331173  0  4.080003  0  0  0.098652  0.308629  0  4.068027  0
C  C47  1  0.60042050  0.11019290  0.34145902  1  0  0.334771  0  3.78096  0  0  0.318126  0  4.072306  0  0  0.331178  0  4.079996  0  0  0.098635  0.308632  0  4.068015  0
C  C48  1  0.33370289  0.81858466  0.73493944  1  0  -0.192469  0  3.773867  0  0  -0.226643  0  4.047621  0  0  -0.231608  0  4.065219  0  0  -0.107907  -0.223409  0  4.036286  0
C  C49  1  0.66629516  0.18141462  0.26506143  1  0  -0.192503  0  3.773784  0  0  -0.226681  0  4.047531  0  0  -0.231644  0  4.065131  0  0  -0.107905  -0.223448  0  4.036196  0
C  C50  1  0.43266460  0.83541441  0.85348293  1  0  -0.102032  0  3.715055  0  0  -0.118837  0  3.971561  0  0  -0.119369  0  3.99069  0  0  -0.084131  -0.118476  0  3.958901  0
C  C51  1  0.56733264  0.16458303  0.14651677  1  0  -0.101967  0  3.715018  0  0  -0.118755  0  3.971503  0  0  -0.119285  0  3.990632  0  0  -0.084084  -0.118395  0  3.958831  0
C  C52  1  0.22436771  0.52890305  0.41609891  1  0  0.109736  0  3.787109  0  0  0.090514  0  4.044917  0  0  0.092848  0  4.066515  0  0  0.072577  0.088688  0  4.030417  0
C  C53  1  0.77563369  0.47109804  0.58389852  1  0  0.109644  0  3.787088  0  0  0.090423  0  4.044906  0  0  0.09276  0  4.066504  0  0  0.072533  0.088603  0  4.030403  0
C  C54  1  0.17911623  0.45036333  0.49512296  1  0  0.264823  0  3.74639  0  0  0.245906  0  4.035051  0  0  0.256023  0  4.046042  0  0  0.103889  0.23915  0  4.027547  0
C  C55  1  0.82088624  0.54963777  0.50487812  1  0  0.264831  0  3.746511  0  0  0.245891  0  4.03519  0  0  0.256006  0  4.04618  0  0  0.103908  0.239133  0  4.027686  0
C  C56  1  0.28122379  0.46210012  0.61104411  1  0  -0.282957  0  3.73349  0  0  -0.324474  0  4.0056  0  0  -0.330693  0  4.020056  0  0  -0.109548  -0.320247  0  3.996218  0
C  C57  1  0.71877472  0.53790008  0.38895607  1  0  -0.282967  0  3.733589  0  0  -0.32451  0  4.005689  0  0  -0.330736  0  4.020156  0  0  -0.109567  -0.320286  0  3.996307  0
C  C58  1  0.43324576  0.55780143  0.64735816  1  0  0.336883  0  3.782332  0  0  0.324456  0  4.064986  0  0  0.337223  0  4.074326  0  0  0.099931  0.315905  0  4.058015  0
C  C59  1  0.56675592  0.44220060  0.35264368  1  0  0.336883  0  3.782359  0  0  0.324543  0  4.064894  0  0  0.337304  0  4.074245  0  0  0.099993  0.315995  0  4.057924  0
C  C60  1  0.48563436  0.63863350  0.57365229  1  0  -0.189506  0  3.768295  0  0  -0.218679  0  4.026926  0  0  -0.225472  0  4.050352  0  0  -0.1065  -0.21402  0  4.011217  0
C  C61  1  0.51436443  0.36136486  0.42634951  1  0  -0.189539  0  3.768291  0  0  -0.218748  0  4.026885  0  0  -0.22554  0  4.050308  0  0  -0.106491  -0.214087  0  4.011173  0
C  C62  1  0.38025486  0.62270838  0.45731870  1  0  -0.092352  0  3.725626  0  0  -0.109921  0  3.982398  0  0  -0.110667  0  4.001526  0  0  -0.083484  -0.109528  0  3.97004  0
C  C63  1  0.61974749  0.37728995  0.54268299  1  0  -0.092332  0  3.725568  0  0  -0.109896  0  3.982337  0  0  -0.110643  0  4.001462  0  0  -0.083507  -0.1095  0  3.969984  0
S  S64  1  0.90601902  0.55357684  0.10953989  1  0  -0.459667  0  2.472515  0  0  -0.448136  0  2.911653  0  0  -0.45151  0  2.882661  0  0  -0.217746  -0.445195  0  2.929394  0
S  S65  1  0.09398105  0.44642150  0.89045877  1  0  -0.459606  0  2.472589  0  0  -0.448068  0  2.911738  0  0  -0.451444  0  2.882742  0  0  -0.217701  -0.445126  0  2.929481  0
S  S66  1  0.85800158  0.88568391  0.21734348  1  0  -0.40409  0  2.650717  0  0  -0.385847  0  3.126786  0  0  -0.388535  0  3.091994  0  0  -0.217242  -0.383549  0  3.148502  0
S  S67  1  0.14199903  0.11431812  0.78265472  1  0  -0.404063  0  2.650772  0  0  -0.385819  0  3.126747  0  0  -0.388509  0  3.091955  0  0  -0.217229  -0.38352  0  3.148449  0
N  N68  1  0.98686341  0.27004589  0.10773837  1  0  -0.407811  0  3.323278  0  0  -0.349188  0  3.654841  0  0  -0.359036  0  3.654443  0  0  -0.44149  -0.343724  0  3.654975  0
N  N69  1  0.01313103  0.72995524  0.89225333  1  0  -0.407724  0  3.32378  0  0  -0.349088  0  3.655287  0  0  -0.358934  0  3.654886  0  0  -0.441409  -0.343627  0  3.655434  0
N  N70  1  0.31240102  0.69835885  0.10968639  1  0  -0.388677  0  3.324853  0  0  -0.330823  0  3.653055  0  0  -0.343186  0  3.659182  0  0  -0.439055  -0.323342  0  3.648603  0
N  N71  1  0.68759775  0.30163673  0.89031263  1  0  -0.388639  0  3.324883  0  0  -0.330783  0  3.653067  0  0  -0.343143  0  3.659195  0  0  -0.439016  -0.323299  0  3.648604  0
N  N72  1  0.24044493  0.13482729  0.53344723  1  0  -0.392565  0  3.358971  0  0  -0.324319  0  3.685173  0  0  -0.339688  0  3.6905  0  0  -0.452899  -0.314641  0  3.681497  0
N  N73  1  0.75955455  0.86517474  0.46654902  1  0  -0.39258  0  3.358983  0  0  -0.324341  0  3.685207  0  0  -0.339707  0  3.69053  0  0  -0.452897  -0.314655  0  3.681507  0
N  N74  1  0.11374537  0.51054130  0.29849588  1  0  -0.419124  0  3.36265  0  0  -0.352992  0  3.595907  0  0  -0.372489  0  3.605669  0  0  -0.395749  -0.339675  0  3.589023  0
N  N75  1  0.88625589  0.48945981  0.70150580  1  0  -0.419131  0  3.362464  0  0  -0.353014  0  3.595722  0  0  -0.372509  0  3.605481  0  0  -0.395782  -0.339698  0  3.588843  0
N  N76  1  0.08250401  0.70402594  0.31606562  1  0  -0.626695  0  3.138778  0  0  -0.583161  0  3.368034  0  0  -0.603908  0  3.367142  0  0  -0.557587  -0.569416  0  3.368676  0
N  N77  1  0.91749890  0.29597607  0.68393477  1  0  -0.626774  0  3.138861  0  0  -0.583189  0  3.368172  0  0  -0.603948  0  3.367262  0  0  -0.557578  -0.569431  0  3.36884  0
N  N78  1  0.70004195  0.93925501  0.01258511  1  0  -0.418546  0  3.384003  0  0  -0.356009  0  3.618627  0  0  -0.375715  0  3.629332  0  0  -0.395097  -0.34282  0  3.611351  0
N  N79  1  0.29995338  0.06074337  0.98741340  1  0  -0.418516  0  3.383951  0  0  -0.355967  0  3.61855  0  0  -0.375669  0  3.629252  0  0  -0.39512  -0.342842  0  3.61133  0
N  N80  1  0.69278054  0.73566957  0.00868966  1  0  -0.608594  0  3.141665  0  0  -0.561993  0  3.358071  0  0  -0.583043  0  3.358152  0  0  -0.546148  -0.54779  0  3.357586  0
N  N81  1  0.30722291  0.26433335  0.99130750  1  0  -0.608541  0  3.141767  0  0  -0.56188  0  3.358124  0  0  -0.58293  0  3.358214  0  0  -0.546106  -0.547671  0  3.357631  0
F  F82  1  0.02762463  0.35897892  0.45650622  1  0  -0.203687  0  1.250003  0  0  -0.140354  0  1.412091  0  0  -0.150934  0  1.404053  0  0  -0.085351  -0.132636  0  1.417458  0
F  F83  1  0.97237427  0.64102221  0.54349497  1  0  -0.203665  0  1.250081  0  0  -0.140308  0  1.41216  0  0  -0.150887  0  1.40412  0  0  -0.085361  -0.13259  0  1.417528  0
F  F84  1  0.30439980  0.87313666  0.54145404  1  0  -0.217359  0  1.222626  0  0  -0.154003  0  1.383052  0  0  -0.165737  0  1.373929  0  0  -0.083582  -0.145692  0  1.389465  0
F  F85  1  0.69559306  0.12686174  0.45854737  1  0  -0.217393  0  1.222693  0  0  -0.154037  0  1.383115  0  0  -0.16577  0  1.373995  0  0  -0.083593  -0.145726  0  1.389526  0
F  F86  1  0.80952787  0.07535574  0.85243187  1  0  -0.180987  0  1.280213  0  0  -0.118105  0  1.443789  0  0  -0.128819  0  1.435692  0  0  -0.080131  -0.110432  0  1.449195  0
F  F87  1  0.19046802  0.92464632  0.14756534  1  0  -0.181017  0  1.280184  0  0  -0.118151  0  1.443777  0  0  -0.128866  0  1.435678  0  0  -0.080153  -0.110478  0  1.449184  0
F  F88  1  0.53630341  0.57152766  0.76144591  1  0  -0.217047  0  1.189712  0  0  -0.155189  0  1.338491  0  0  -0.166613  0  1.330314  0  0  -0.091508  -0.147746  0  1.344246  0
F  F89  1  0.46369545  0.42847069  0.23855334  1  0  -0.217045  0  1.189697  0  0  -0.155252  0  1.338468  0  0  -0.166651  0  1.330279  0  0  -0.091529  -0.147806  0  1.344226  0
