# generated using pymatgen
data_NiH42C36(N10O3)2
_symmetry_space_group_name_H-M   'P 1'
_cell_length_a   8.47742078
_cell_length_b   9.21849521
_cell_length_c   13.16214183
_cell_angle_alpha   96.59374078
_cell_angle_beta   104.42029385
_cell_angle_gamma   106.99683135
_symmetry_Int_Tables_number   1
_chemical_formula_structural   NiH42C36(N10O3)2
_chemical_formula_sum   'Ni1 H42 C36 N20 O6'
_cell_volume   932.93668448
_cell_formula_units_Z   1
loop_
 _symmetry_equiv_pos_site_id
 _symmetry_equiv_pos_as_xyz
  1  'x, y, z'
loop_
 _atom_site_type_symbol
 _atom_site_label
 _atom_site_symmetry_multiplicity
 _atom_site_fract_x
 _atom_site_fract_y
 _atom_site_fract_z
 _atom_site_occupancy
 _atom_site_hle17_bader_spin_density
 _atom_site_hle17_ddec_charge
 _atom_site_hle17_ddec_spin_density
 _atom_site_hle17_ddec_sum_bond_order
 _atom_site_hle17_magmom
 _atom_site_hse06_10hf_bader_spin_density
 _atom_site_hse06_10hf_ddec_charge
 _atom_site_hse06_10hf_ddec_spin_density
 _atom_site_hse06_10hf_ddec_sum_bond_order
 _atom_site_hse06_10hf_magmom
 _atom_site_hse06_bader_spin_density
 _atom_site_hse06_ddec_charge
 _atom_site_hse06_ddec_spin_density
 _atom_site_hse06_ddec_sum_bond_order
 _atom_site_hse06_magmom
 _atom_site_pbe_bader_spin_density
 _atom_site_pbe_cm5_charge
 _atom_site_pbe_ddec_charge
 _atom_site_pbe_ddec_spin_density
 _atom_site_pbe_ddec_sum_bond_order
 _atom_site_pbe_magmom
Ni  Ni0  1  0.50000106  0.49999788  0.49999935  1  0  0.491062  0  2.317719  0  0  0.441155  0  2.744879  0  0  0.503351  0  2.684512  0  0  0.655277  0.412363  0  2.781076  0
H  H1  1  0.33372486  0.52118250  0.82629729  1  0  0.087003  0  0.960808  0  0  0.105808  0  1.018194  0  0  0.105512  0  1.019062  0  0  0.11351  0.10591  0  1.017695  0
H  H2  1  0.66626442  0.47880793  0.17370524  1  0  0.087024  0  0.960753  0  0  0.105856  0  1.018101  0  0  0.105572  0  1.018966  0  0  0.113519  0.105956  0  1.017607  0
H  H3  1  0.48725257  0.68157348  0.92694481  1  0  0.06703  0  0.954421  0  0  0.070723  0  1.038745  0  0  0.07253  0  1.036453  0  0  0.096669  0.069487  0  1.040222  0
H  H4  1  0.51273516  0.31841591  0.07305971  1  0  0.066931  0  0.95455  0  0  0.070697  0  1.038807  0  0  0.072492  0  1.036536  0  0  0.096628  0.069464  0  1.040279  0
H  H5  1  0.76236454  0.43764734  0.01182658  1  0  0.079018  0  0.954474  0  0  0.093159  0  1.019709  0  0  0.093636  0  1.019123  0  0  0.112622  0.092693  0  1.020206  0
H  H6  1  0.23762156  0.56234094  0.98817838  1  0  0.079002  0  0.954414  0  0  0.093131  0  1.019673  0  0  0.093607  0  1.019089  0  0  0.112633  0.092662  0  1.020176  0
H  H7  1  0.75421932  0.62641642  0.04644966  1  0  0.073419  0  0.953917  0  0  0.082747  0  1.027097  0  0  0.084118  0  1.02558  0  0  0.102783  0.081614  0  1.028368  0
H  H8  1  0.24576870  0.37357063  0.95355473  1  0  0.07347  0  0.953804  0  0  0.082767  0  1.02706  0  0  0.084148  0  1.02554  0  0  0.102794  0.081635  0  1.02833  0
H  H9  1  0.93257018  0.35950317  0.76609206  1  0  0.099545  0  0.944292  0  0  0.102282  0  1.009836  0  0  0.105616  0  1.006566  0  0  0.119069  0.100142  0  1.01169  0
H  H10  1  0.06745959  0.64054013  0.23392160  1  0  0.099408  0  0.944554  0  0  0.102201  0  1.01004  0  0  0.105532  0  1.006782  0  0  0.119062  0.100061  0  1.011894  0
H  H11  1  0.79217432  0.40117686  0.58622147  1  0  0.108067  0  0.97314  0  0  0.109091  0  1.045985  0  0  0.11104  0  1.045001  0  0  0.122015  0.107582  0  1.047037  0
H  H12  1  0.20784561  0.59886653  0.41378696  1  0  0.108106  0  0.973289  0  0  0.109123  0  1.04613  0  0  0.111077  0  1.045142  0  0  0.121999  0.107598  0  1.04719  0
H  H13  1  0.41646611  0.50691212  0.70268965  1  0  0.09813  0  1.020999  0  0  0.098038  0  1.097464  0  0  0.101222  0  1.094185  0  0  0.118743  0.095691  0  1.100202  0
H  H14  1  0.58351787  0.49306203  0.29730945  1  0  0.098064  0  1.020961  0  0  0.09789  0  1.09754  0  0  0.101067  0  1.094273  0  0  0.118722  0.095543  0  1.10028  0
H  H15  1  0.83659434  0.32622798  0.30906040  1  0  0.087432  0  0.965403  0  0  0.102941  0  1.02723  0  0  0.10306  0  1.027409  0  0  0.112611  0.102775  0  1.027205  0
H  H16  1  0.16341156  0.67377373  0.69094459  1  0  0.087345  0  0.96547  0  0  0.102939  0  1.027203  0  0  0.103058  0  1.027384  0  0  0.112585  0.102769  0  1.027191  0
H  H17  1  0.74174806  0.22058142  0.17478185  1  0  0.054934  0  0.936196  0  0  0.071578  0  1.003506  0  0  0.071052  0  1.004122  0  0  0.099681  0.071722  0  1.003314  0
H  H18  1  0.25825073  0.77942393  0.82522160  1  0  0.054972  0  0.936105  0  0  0.07159  0  1.003447  0  0  0.071066  0  1.004064  0  0  0.099705  0.071738  0  1.00325  0
H  H19  1  0.04683255  0.27066182  0.22461558  1  0  0.066025  0  0.952239  0  0  0.084601  0  1.013672  0  0  0.083421  0  1.016258  0  0  0.106574  0.085346  0  1.011854  0
H  H20  1  0.95316597  0.72933741  0.77537979  1  0  0.066087  0  0.952248  0  0  0.084647  0  1.013655  0  0  0.083467  0  1.016243  0  0  0.106608  0.085395  0  1.011836  0
H  H21  1  0.05124719  0.20716637  0.34756635  1  0  0.069026  0  0.972528  0  0  0.076851  0  1.051331  0  0  0.077194  0  1.050674  0  0  0.099607  0.076433  0  1.051851  0
H  H22  1  0.94875774  0.79283382  0.65242851  1  0  0.069034  0  0.972516  0  0  0.076819  0  1.051342  0  0  0.077163  0  1.050682  0  0  0.099567  0.076407  0  1.051859  0
H  H23  1  0.89148687  0.90665590  0.32619114  1  0  0.07466  0  0.929284  0  0  0.087524  0  0.99543  0  0  0.087353  0  0.995463  0  0  0.102445  0.087551  0  0.995485  0
H  H24  1  0.10851381  0.09333633  0.67380558  1  0  0.074661  0  0.929402  0  0  0.087484  0  0.99554  0  0  0.087314  0  0.995572  0  0  0.102431  0.087514  0  0.995597  0
H  H25  1  0.80719849  0.79676275  0.19276253  1  0  0.084331  0  0.957253  0  0  0.094715  0  1.028677  0  0  0.096033  0  1.02718  0  0  0.111751  0.093633  0  1.029894  0
H  H26  1  0.19279030  0.20323664  0.80722992  1  0  0.084339  0  0.957302  0  0  0.094705  0  1.028682  0  0  0.096018  0  1.027195  0  0  0.111763  0.093631  0  1.029893  0
H  H27  1  0.58687700  0.92097429  0.14746238  1  0  0.062114  0  0.925501  0  0  0.077952  0  0.993715  0  0  0.077443  0  0.994181  0  0  0.101525  0.078185  0  0.993345  0
H  H28  1  0.41311659  0.07903346  0.85253895  1  0  0.061987  0  0.925434  0  0  0.077874  0  0.993666  0  0  0.077369  0  0.994127  0  0  0.101458  0.078106  0  0.993297  0
H  H29  1  0.57778894  0.85188057  0.26723819  1  0  0.081135  0  0.956365  0  0  0.092466  0  1.026522  0  0  0.09272  0  1.026916  0  0  0.110159  0.092094  0  1.026433  0
H  H30  1  0.42221011  0.14812579  0.73276156  1  0  0.081048  0  0.956343  0  0  0.092413  0  1.026505  0  0  0.092664  0  1.026905  0  0  0.110142  0.092041  0  1.026411  0
H  H31  1  0.23588231  0.92222877  0.40729475  1  0  0.096771  0  0.962495  0  0  0.102447  0  1.02636  0  0  0.105048  0  1.023849  0  0  0.115825  0.100586  0  1.028235  0
H  H32  1  0.76411282  0.07777153  0.59269565  1  0  0.096743  0  0.962521  0  0  0.10248  0  1.0263  0  0  0.105082  0  1.023788  0  0  0.115838  0.100615  0  1.028174  0
H  H33  1  0.25717762  0.19217395  0.48453417  1  0  0.106072  0  0.964337  0  0  0.109007  0  1.033725  0  0  0.111575  0  1.031512  0  0  0.12117  0.10688  0  1.03587  0
H  H34  1  0.74282119  0.80782294  0.51546108  1  0  0.106107  0  0.96426  0  0  0.109058  0  1.033634  0  0  0.111622  0  1.031427  0  0  0.121174  0.106931  0  1.03578  0
H  H35  1  0.69545339  0.37182356  0.39081327  1  0  0.100786  0  1.021976  0  0  0.098843  0  1.099051  0  0  0.102608  0  1.094258  0  0  0.119914  0.09594  0  1.102849  0
H  H36  1  0.30455196  0.62817947  0.60919552  1  0  0.100757  0  1.022003  0  0  0.098821  0  1.099099  0  0  0.102581  0  1.094324  0  0  0.11992  0.095926  0  1.10288  0
H  H37  1  0.07135716  0.69849449  0.00099380  1  0  0.070114  0  0.948315  0  0  0.07653  0  1.017671  0  0  0.07991  0  1.013969  0  0  0.107421  0.073702  0  1.020834  0
H  H38  1  0.92863304  0.30150840  0.99899986  1  0  0.070125  0  0.948312  0  0  0.076534  0  1.017681  0  0  0.079914  0  1.013977  0  0  0.107404  0.073683  0  1.020864  0
H  H39  1  0.34109215  0.90316065  0.99302312  1  0  0.067373  0  0.965332  0  0  0.075874  0  1.034554  0  0  0.079606  0  1.031574  0  0  0.103017  0.073134  0  1.036834  0
H  H40  1  0.65890971  0.09683409  0.00697927  1  0  0.067344  0  0.965421  0  0  0.075849  0  1.034643  0  0  0.079574  0  1.031673  0  0  0.102998  0.07311  0  1.036921  0
H  H41  1  0.25109377  0.22844627  0.19474794  1  0  0.070467  0  0.983162  0  0  0.075975  0  1.05417  0  0  0.07828  0  1.054505  0  0  0.10152  0.074603  0  1.053627  0
H  H42  1  0.74890097  0.77155292  0.80524384  1  0  0.070485  0  0.983074  0  0  0.075927  0  1.054152  0  0  0.078232  0  1.054488  0  0  0.101514  0.074558  0  1.053605  0
C  C43  1  0.42626106  0.55408162  0.90660827  1  0  -0.031097  0  3.652606  0  0  -0.092395  0  3.912265  0  0  -0.088584  0  3.925  0  0  -0.064368  -0.094774  0  3.903248  0
C  C44  1  0.57372455  0.44590887  0.09339297  1  0  -0.030944  0  3.652607  0  0  -0.092329  0  3.912268  0  0  -0.088539  0  3.925069  0  0  -0.06435  -0.09471  0  3.903245  0
C  C45  1  0.67456991  0.50284930  0.01672100  1  0  -0.011958  0  3.63356  0  0  -0.074149  0  3.894662  0  0  -0.069461  0  3.905892  0  0  -0.060934  -0.077105  0  3.886785  0
C  C46  1  0.32542005  0.49714246  0.98328629  1  0  -0.01193  0  3.63344  0  0  -0.074142  0  3.894556  0  0  -0.069476  0  3.905787  0  0  -0.061008  -0.077096  0  3.886674  0
C  C47  1  0.61972381  0.46184782  0.82280984  1  0  0.310573  0  3.814447  0  0  0.286958  0  4.076893  0  0  0.301989  0  4.090503  0  0  0.231258  0.276988  0  4.06692  0
C  C48  1  0.38027726  0.53815993  0.17719714  1  0  0.310409  0  3.814486  0  0  0.286782  0  4.076913  0  0  0.301816  0  4.090518  0  0  0.23117  0.276811  0  4.066945  0
C  C49  1  0.81928994  0.39631816  0.75412295  1  0  0.10889  0  3.727295  0  0  0.084279  0  3.994218  0  0  0.089875  0  4.006244  0  0  0.054795  0.080806  0  3.985026  0
C  C50  1  0.18074179  0.60372393  0.24589091  1  0  0.108869  0  3.727469  0  0  0.084203  0  3.994408  0  0  0.089794  0  4.006439  0  0  0.054686  0.080727  0  3.985219  0
C  C51  1  0.74106193  0.41603211  0.65288813  1  0  0.022889  0  3.639305  0  0  -0.017386  0  3.912206  0  0  -0.013662  0  3.928517  0  0  0.024757  -0.019883  0  3.901734  0
C  C52  1  0.25896703  0.58400558  0.34713034  1  0  0.022888  0  3.638972  0  0  -0.017368  0  3.911871  0  0  -0.013641  0  3.928175  0  0  0.024794  -0.019848  0  3.90139  0
C  C53  1  0.53517762  0.47928598  0.71928878  1  0  -0.039711  0  3.604995  0  0  -0.075448  0  3.869221  0  0  -0.072272  0  3.882481  0  0  0.037186  -0.078299  0  3.861488  0
C  C54  1  0.46481666  0.52070785  0.28071472  1  0  -0.039507  0  3.60487  0  0  -0.075227  0  3.869211  0  0  -0.072051  0  3.882476  0  0  0.037224  -0.078079  0  3.861481  0
C  C55  1  0.80503646  0.21361456  0.25744995  1  0  -0.010105  0  3.636356  0  0  -0.073201  0  3.894677  0  0  -0.068704  0  3.907804  0  0  -0.057926  -0.076095  0  3.885702  0
C  C56  1  0.19497012  0.78638929  0.74255072  1  0  -0.010039  0  3.636517  0  0  -0.073178  0  3.89469  0  0  -0.068692  0  3.907835  0  0  -0.057966  -0.076075  0  3.885713  0
C  C57  1  0.97567539  0.18530644  0.26288051  1  0  -0.021789  0  3.671486  0  0  -0.08527  0  3.932858  0  0  -0.081027  0  3.946566  0  0  -0.064105  -0.087777  0  3.923235  0
C  C58  1  0.02432525  0.81469507  0.73711534  1  0  -0.02195  0  3.671603  0  0  -0.085286  0  3.932793  0  0  -0.081046  0  3.94651  0  0  -0.064103  -0.087793  0  3.923169  0
C  C59  1  0.82935367  0.90860017  0.24222855  1  0  -0.015068  0  3.642879  0  0  -0.076641  0  3.906281  0  0  -0.071696  0  3.916886  0  0  -0.062806  -0.079975  0  3.899161  0
C  C60  1  0.17063935  0.09140041  0.75776764  1  0  -0.015301  0  3.643062  0  0  -0.076691  0  3.906362  0  0  -0.071748  0  3.916967  0  0  -0.06286  -0.080041  0  3.899256  0
C  C61  1  0.65817494  0.93563996  0.23260312  1  0  -0.006381  0  3.646717  0  0  -0.074143  0  3.915338  0  0  -0.068764  0  3.926619  0  0  -0.061234  -0.077497  0  3.907694  0
C  C62  1  0.34182170  0.06436054  0.76739359  1  0  -0.00596  0  3.646379  0  0  -0.073923  0  3.915122  0  0  -0.068538  0  3.926389  0  0  -0.061154  -0.077271  0  3.907478  0
C  C63  1  0.57454300  0.11690729  0.34182548  1  0  0.330409  0  3.800461  0  0  0.30356  0  4.064411  0  0  0.319194  0  4.078625  0  0  0.237356  0.293044  0  4.055072  0
C  C64  1  0.42546445  0.88308954  0.65817484  1  0  0.330548  0  3.800341  0  0  0.303648  0  4.064326  0  0  0.319283  0  4.078539  0  0  0.237377  0.293135  0  4.054984  0
C  C65  1  0.33842579  0.02185654  0.40079525  1  0  0.107497  0  3.729463  0  0  0.083543  0  3.993721  0  0  0.08871  0  4.008787  0  0  0.049505  0.079907  0  3.984077  0
C  C66  1  0.66157170  0.97814028  0.59919753  1  0  0.107455  0  3.729568  0  0  0.083475  0  3.9938  0  0  0.08864  0  4.008872  0  0  0.049475  0.079839  0  3.984157  0
C  C67  1  0.34818149  0.17019744  0.44482564  1  0  0.004857  0  3.654816  0  0  -0.03405  0  3.928364  0  0  -0.031089  0  3.945105  0  0  0.01828  -0.036208  0  3.918523  0
C  C68  1  0.65181935  0.82979828  0.55517135  1  0  0.004734  0  3.654739  0  0  -0.034184  0  3.928314  0  0  -0.031247  0  3.945044  0  0  0.018203  -0.036346  0  3.918478  0
C  C69  1  0.59002205  0.26933908  0.38898867  1  0  -0.042511  0  3.60813  0  0  -0.076636  0  3.871535  0  0  -0.074895  0  3.886033  0  0  0.038407  -0.078911  0  3.863769  0
C  C70  1  0.40998460  0.73065552  0.61101365  1  0  -0.042466  0  3.608176  0  0  -0.076618  0  3.871667  0  0  -0.074899  0  3.886148  0  0  0.038398  -0.078893  0  3.863894  0
C  C71  1  0.05422590  0.99674663  0.15327833  1  0  0.307219  0  3.820613  0  0  0.281468  0  4.08277  0  0  0.297223  0  4.098849  0  0  0.225959  0.270852  0  4.071853  0
C  C72  1  0.94576507  0.00325171  0.84671892  1  0  0.307265  0  3.820599  0  0  0.281434  0  4.082901  0  0  0.297186  0  4.098985  0  0  0.22596  0.270819  0  4.071985  0
C  C73  1  0.11122871  0.81827970  0.04378521  1  0  0.092906  0  3.780755  0  0  0.067391  0  4.04628  0  0  0.072931  0  4.062751  0  0  0.042626  0.063688  0  4.035223  0
C  C74  1  0.88876383  0.18172307  0.95620726  1  0  0.092829  0  3.780603  0  0  0.067321  0  4.046111  0  0  0.07286  0  4.062577  0  0  0.042622  0.063637  0  4.035049  0
C  C75  1  0.25925076  0.93027601  0.03924874  1  0  0.000182  0  3.781429  0  0  -0.033823  0  4.064076  0  0  -0.034717  0  4.080489  0  0  0.007196  -0.03339  0  4.052922  0
C  C76  1  0.74074117  0.06971875  0.96074688  1  0  0.000275  0  3.781405  0  0  -0.033744  0  4.06405  0  0  -0.034631  0  4.080464  0  0  0.007279  -0.03331  0  4.052883  0
C  C77  1  0.20766622  0.11002592  0.14948412  1  0  -0.031432  0  3.702005  0  0  -0.059674  0  3.972482  0  0  -0.062473  0  3.989383  0  0  0.026932  -0.058367  0  3.961251  0
C  C78  1  0.79233075  0.88997226  0.85051323  1  0  -0.031454  0  3.701919  0  0  -0.05961  0  3.972425  0  0  -0.062411  0  3.98933  0  0  0.026964  -0.058303  0  3.961197  0
N  N79  1  0.56001019  0.48303310  0.90876929  1  0  -0.192068  0  3.352805  0  0  -0.103515  0  3.584233  0  0  -0.125235  0  3.609368  0  0  -0.280259  -0.08832  0  3.566064  0
N  N80  1  0.43997889  0.51696312  0.09123210  1  0  -0.192138  0  3.352847  0  0  -0.103503  0  3.58423  0  0  -0.125212  0  3.609376  0  0  -0.280215  -0.088307  0  3.566064  0
N  N81  1  0.76459972  0.42288967  0.83864246  1  0  -0.356927  0  3.062628  0  0  -0.325981  0  3.334769  0  0  -0.335739  0  3.34526  0  0  -0.310968  -0.318531  0  3.326386  0
N  N82  1  0.23540563  0.57712861  0.16136893  1  0  -0.356766  0  3.062793  0  0  -0.325832  0  3.334948  0  0  -0.335588  0  3.345438  0  0  -0.310839  -0.318384  0  3.32657  0
N  N83  1  0.59962070  0.46016472  0.63747836  1  0  -0.166533  0  3.422532  0  0  -0.110635  0  3.705973  0  0  -0.131574  0  3.72541  0  0  -0.323182  -0.099109  0  3.694065  0
N  N84  1  0.40038820  0.53984157  0.36252663  1  0  -0.16655  0  3.422283  0  0  -0.110646  0  3.7057  0  0  -0.131584  0  3.725133  0  0  -0.323225  -0.099118  0  3.69379  0
N  N85  1  0.68635397  0.09091068  0.28937256  1  0  -0.185344  0  3.38557  0  0  -0.097206  0  3.617843  0  0  -0.119113  0  3.642734  0  0  -0.273188  -0.082575  0  3.600698  0
N  N86  1  0.31365502  0.90909312  0.71062847  1  0  -0.185577  0  3.385629  0  0  -0.097349  0  3.61789  0  0  -0.119254  0  3.642781  0  0  -0.273132  -0.082718  0  3.60074  0
N  N87  1  0.94674045  0.02980243  0.20767811  1  0  -0.211374  0  3.416174  0  0  -0.123327  0  3.649877  0  0  -0.145288  0  3.675518  0  0  -0.287087  -0.108345  0  3.632009  0
N  N88  1  0.05325331  0.97019696  0.79231810  1  0  -0.21117  0  3.416106  0  0  -0.12325  0  3.649874  0  0  -0.145207  0  3.675509  0  0  -0.28703  -0.108268  0  3.632019  0
N  N89  1  0.44746819  0.99369983  0.34987924  1  0  -0.360184  0  3.042261  0  0  -0.331098  0  3.314193  0  0  -0.342314  0  3.328107  0  0  -0.315504  -0.323395  0  3.30492  0
N  N90  1  0.55253723  0.00629816  0.65011934  1  0  -0.360138  0  3.042278  0  0  -0.331049  0  3.314237  0  0  -0.342266  0  3.328153  0  0  -0.315475  -0.323346  0  3.304959  0
N  N91  1  0.47644043  0.29311983  0.43770247  1  0  -0.174889  0  3.460335  0  0  -0.117442  0  3.739717  0  0  -0.139287  0  3.762235  0  0  -0.32847  -0.105347  0  3.726364  0
N  N92  1  0.52356103  0.70687717  0.56229774  1  0  -0.174808  0  3.460195  0  0  -0.117396  0  3.739625  0  0  -0.139171  0  3.762072  0  0  -0.328417  -0.105298  0  3.726273  0
N  N93  1  0.01048443  0.84928211  0.10056076  1  0  -0.365288  0  3.072693  0  0  -0.325227  0  3.336341  0  0  -0.338636  0  3.350506  0  0  -0.315974  -0.316038  0  3.326564  0
N  N94  1  0.98950938  0.15071731  0.89943622  1  0  -0.365306  0  3.072703  0  0  -0.325183  0  3.336353  0  0  -0.338593  0  3.350525  0  0  -0.315999  -0.315993  0  3.32656  0
N  N95  1  0.30777544  0.07663224  0.09369090  1  0  -0.248903  0  3.134308  0  0  -0.213541  0  3.413553  0  0  -0.216489  0  3.426989  0  0  -0.315746  -0.211064  0  3.404382  0
N  N96  1  0.69221795  0.92336605  0.90630670  1  0  -0.248956  0  3.134425  0  0  -0.213577  0  3.413633  0  0  -0.216524  0  3.427073  0  0  -0.31579  -0.211101  0  3.404464  0
N  N97  1  0.91563641  0.65823945  0.43064708  1  0  0.687088  0  4.158255  0  0  0.735678  0  4.433641  0  0  0.764065  0  4.43793  0  0  0.091386  0.716719  0  4.429903  0
N  N98  1  0.08436648  0.34173733  0.56934356  1  0  0.687233  0  4.157725  0  0  0.73595  0  4.432926  0  0  0.764341  0  4.437194  0  0  0.091348  0.716968  0  4.42922  0
O  O99  1  0.83851267  0.59620462  0.49443625  1  0  -0.497201  0  1.817029  0  0  -0.492579  0  2.047587  0  0  -0.508262  0  2.037289  0  0  -0.197971  -0.482337  0  2.054705  0
O  O100  1  0.16148996  0.40380756  0.50556595  1  0  -0.497162  0  1.816831  0  0  -0.492632  0  2.047442  0  0  -0.508346  0  2.037182  0  0  -0.198038  -0.482382  0  2.054562  0
O  O101  1  0.87157457  0.58756084  0.33371524  1  0  -0.496367  0  1.778921  0  0  -0.48454  0  1.989014  0  0  -0.499381  0  1.983321  0  0  -0.200035  -0.473996  0  1.992491  0
O  O102  1  0.12839759  0.41239936  0.66627584  1  0  -0.496329  0  1.778834  0  0  -0.48457  0  1.988941  0  0  -0.4994  0  1.983237  0  0  -0.199941  -0.474055  0  1.992504  0
O  O103  1  0.03300713  0.78856979  0.46370756  1  0  -0.456391  0  1.738769  0  0  -0.454674  0  1.941774  0  0  -0.465939  0  1.935013  0  0  -0.192095  -0.446529  0  1.945983  0
O  O104  1  0.96702906  0.21138808  0.53626990  1  0  -0.456596  0  1.738429  0  0  -0.454929  0  1.94134  0  0  -0.466191  0  1.934568  0  0  -0.192119  -0.446751  0  1.945546  0
