# generated using pymatgen
data_H8PbC10O7
_symmetry_space_group_name_H-M   'P 1'
_cell_length_a   6.58693090
_cell_length_b   8.18684279
_cell_length_c   10.74447429
_cell_angle_alpha   80.52191251
_cell_angle_beta   76.70832439
_cell_angle_gamma   81.19445739
_symmetry_Int_Tables_number   1
_chemical_formula_structural   H8PbC10O7
_chemical_formula_sum   'H16 Pb2 C20 O14'
_cell_volume   552.16820988
_cell_formula_units_Z   2
loop_
 _symmetry_equiv_pos_site_id
 _symmetry_equiv_pos_as_xyz
  1  'x, y, z'
loop_
 _atom_site_type_symbol
 _atom_site_label
 _atom_site_symmetry_multiplicity
 _atom_site_fract_x
 _atom_site_fract_y
 _atom_site_fract_z
 _atom_site_occupancy
 _atom_site_hle17_bader_spin_density
 _atom_site_hle17_ddec_charge
 _atom_site_hle17_ddec_spin_density
 _atom_site_hle17_ddec_sum_bond_order
 _atom_site_hle17_magmom
 _atom_site_hse06_10hf_bader_spin_density
 _atom_site_hse06_10hf_ddec_charge
 _atom_site_hse06_10hf_ddec_spin_density
 _atom_site_hse06_10hf_ddec_sum_bond_order
 _atom_site_hse06_10hf_magmom
 _atom_site_hse06_bader_spin_density
 _atom_site_hse06_ddec_charge
 _atom_site_hse06_ddec_spin_density
 _atom_site_hse06_ddec_sum_bond_order
 _atom_site_hse06_magmom
 _atom_site_pbe_bader_spin_density
 _atom_site_pbe_cm5_charge
 _atom_site_pbe_ddec_charge
 _atom_site_pbe_ddec_spin_density
 _atom_site_pbe_ddec_sum_bond_order
 _atom_site_pbe_magmom
H  H0  1  0.65397953  0.22291881  0.29338532  1  0  0.14949  0  0.960618  0  0  0.155069  0  1.022611  0  0  0.159275  0  1.019891  0  0  0.11358  0.151982  0  1.024777  0
H  H1  1  0.34601158  0.77707520  0.70660416  1  0  0.149577  0  0.960445  0  0  0.155175  0  1.022433  0  0  0.159391  0  1.019717  0  0  0.113648  0.152085  0  1.024605  0
H  H2  1  0.68512595  0.99947156  0.11931297  1  0  0.109899  0  0.949133  0  0  0.1142  0  1.011701  0  0  0.117262  0  1.009363  0  0  0.121749  0.112058  0  1.013344  0
H  H3  1  0.31488063  0.00052348  0.88067330  1  0  0.109926  0  0.949183  0  0  0.114225  0  1.011741  0  0  0.117284  0  1.009411  0  0  0.121797  0.112079  0  1.013389  0
H  H4  1  0.25118677  0.90148089  0.23718569  1  0  0.106241  0  0.978263  0  0  0.108977  0  1.049988  0  0  0.112013  0  1.04668  0  0  0.121179  0.106638  0  1.052483  0
H  H5  1  0.74881150  0.09852931  0.76281466  1  0  0.106398  0  0.978203  0  0  0.109086  0  1.049973  0  0  0.112147  0  1.046644  0  0  0.121258  0.106747  0  1.052465  0
H  H6  1  0.84862385  0.52789426  0.16998767  1  0  0.125953  0  0.971415  0  0  0.135713  0  1.034717  0  0  0.138858  0  1.033222  0  0  0.111327  0.133528  0  1.035726  0
H  H7  1  0.15139252  0.47208462  0.83001980  1  0  0.12598  0  0.971552  0  0  0.135716  0  1.03488  0  0  0.138867  0  1.033369  0  0  0.111305  0.133527  0  1.03589  0
H  H8  1  0.91226954  0.70549322  0.92555367  1  0  0.097185  0  0.975365  0  0  0.102397  0  1.041954  0  0  0.104076  0  1.041785  0  0  0.115647  0.101161  0  1.042145  0
H  H9  1  0.08774567  0.29449440  0.07445470  1  0  0.097152  0  0.97528  0  0  0.102343  0  1.041902  0  0  0.104021  0  1.041732  0  0  0.115647  0.101097  0  1.042113  0
H  H10  1  0.26691255  0.72703806  0.04160366  1  0  0.106218  0  0.959924  0  0  0.10708  0  1.0343  0  0  0.110201  0  1.031046  0  0  0.122031  0.104865  0  1.036551  0
H  H11  1  0.73310895  0.27297314  0.95840078  1  0  0.106056  0  0.960133  0  0  0.106928  0  1.03457  0  0  0.110043  0  1.031326  0  0  0.121999  0.104739  0  1.03678  0
H  H12  1  0.60151224  0.04397746  0.59470226  1  0  0.433086  0  0.863586  0  0  0.403102  0  0.925418  0  0  0.414095  0  0.909654  0  0  0.294303  0.395292  0  0.936589  0
H  H13  1  0.39849036  0.95602391  0.40529026  1  0  0.433193  0  0.863413  0  0  0.403188  0  0.925289  0  0  0.414186  0  0.909518  0  0  0.294315  0.395372  0  0.936475  0
H  H14  1  0.68930152  0.21506318  0.53497438  1  0  0.426933  0  0.881496  0  0  0.394754  0  0.947667  0  0  0.405642  0  0.932168  0  0  0.290525  0.387059  0  0.958588  0
H  H15  1  0.31068997  0.78493958  0.46501950  1  0  0.426888  0  0.881565  0  0  0.394712  0  0.947733  0  0  0.4056  0  0.932234  0  0  0.290482  0.387017  0  0.958653  0
Pb  Pb16  1  0.23986145  0.35775760  0.56074884  1  0  1.384712  0  1.383793  0  0  1.202545  0  1.780087  0  0  1.261965  0  1.735777  0  0  0.652923  1.159595  0  1.81094  0
Pb  Pb17  1  0.76013282  0.64224764  0.43924806  1  0  1.384722  0  1.383767  0  0  1.202528  0  1.780064  0  0  1.261962  0  1.735737  0  0  0.652934  1.159582  0  1.810919  0
C  C18  1  0.04853084  0.18096844  0.39363581  1  0  0.683743  0  3.900739  0  0  0.627055  0  4.193134  0  0  0.66333  0  4.184946  0  0  0.215103  0.602457  0  4.19781  0
C  C19  1  0.95145512  0.81904065  0.60636174  1  0  0.683783  0  3.900885  0  0  0.627099  0  4.193241  0  0  0.66337  0  4.185048  0  0  0.215232  0.602499  0  4.197915  0
C  C20  1  0.98192867  0.09649174  0.30133110  1  0  -0.151815  0  3.814865  0  0  -0.136777  0  4.069619  0  0  -0.147534  0  4.089657  0  0  -0.047377  -0.129752  0  4.055945  0
C  C21  1  0.01805828  0.90350985  0.69866542  1  0  -0.151973  0  3.815019  0  0  -0.136904  0  4.069768  0  0  -0.147661  0  4.089812  0  0  -0.047416  -0.129857  0  4.05606  0
C  C22  1  0.78370108  0.13047013  0.26085353  1  0  -0.167585  0  3.735345  0  0  -0.19444  0  3.992006  0  0  -0.196712  0  4.01004  0  0  -0.113913  -0.192787  0  3.979947  0
C  C23  1  0.21628814  0.86952638  0.73913496  1  0  -0.167477  0  3.73496  0  0  -0.194383  0  3.991636  0  0  -0.196669  0  4.009678  0  0  -0.113941  -0.192733  0  3.979562  0
C  C24  1  0.79292025  0.02346305  0.17470791  1  0  0.050806  0  3.634289  0  0  0.01973  0  3.906704  0  0  0.02605  0  3.919473  0  0  -0.015935  0.015191  0  3.898509  0
C  C25  1  0.20708944  0.97653196  0.82527979  1  0  0.050714  0  3.634042  0  0  0.019618  0  3.906506  0  0  0.025944  0  3.919244  0  0  -0.015984  0.015077  0  3.898315  0
C  C26  1  0.09718842  0.97016201  0.23623775  1  0  0.083063  0  3.580425  0  0  0.035829  0  3.850658  0  0  0.048457  0  3.859839  0  0  0.005059  0.027897  0  3.844237  0
C  C27  1  0.90280115  0.02984330  0.76376072  1  0  0.082966  0  3.580317  0  0  0.03574  0  3.850554  0  0  0.048336  0  3.859711  0  0  0.004933  0.027802  0  3.844129  0
C  C28  1  0.37915459  0.53103104  0.28143130  1  0  0.682191  0  3.907734  0  0  0.62823  0  4.198496  0  0  0.665335  0  4.188852  0  0  0.212437  0.60293  0  4.204406  0
C  C29  1  0.62083235  0.46897056  0.71856616  1  0  0.68228  0  3.907737  0  0  0.628442  0  4.198321  0  0  0.665544  0  4.188662  0  0  0.21253  0.60314  0  4.204223  0
C  C30  1  0.50605713  0.59856955  0.15676665  1  0  -0.145574  0  3.82771  0  0  -0.131644  0  4.081178  0  0  -0.142207  0  4.102456  0  0  -0.04714  -0.124733  0  4.06679  0
C  C31  1  0.49393959  0.40142828  0.84324297  1  0  -0.145726  0  3.827675  0  0  -0.131802  0  4.081101  0  0  -0.14236  0  4.102368  0  0  -0.047224  -0.124893  0  4.066716  0
C  C32  1  0.73138084  0.59095944  0.11647535  1  0  -0.20595  0  3.807359  0  0  -0.234824  0  4.069041  0  0  -0.239345  0  4.090857  0  0  -0.119393  -0.23152  0  4.053953  0
C  C33  1  0.26861449  0.40903715  0.88353368  1  0  -0.206112  0  3.807776  0  0  -0.234957  0  4.069405  0  0  -0.239482  0  4.091221  0  0  -0.1195  -0.231656  0  4.054314  0
C  C34  1  0.77075875  0.67701197  0.99538082  1  0  0.07682  0  3.615336  0  0  0.04264  0  3.881632  0  0  0.050218  0  3.89518  0  0  -0.013814  0.037384  0  3.872755  0
C  C35  1  0.22925785  0.32297690  0.00462906  1  0  0.077001  0  3.615759  0  0  0.042848  0  3.882028  0  0  0.050431  0  3.895576  0  0  -0.013685  0.037632  0  3.873077  0
C  C36  1  0.42570295  0.68886638  0.05578123  1  0  0.081155  0  3.57859  0  0  0.03573  0  3.847102  0  0  0.04726  0  3.857777  0  0  0.002869  0.028255  0  3.83971  0
C  C37  1  0.57432152  0.31113364  0.94423263  1  0  0.081331  0  3.578351  0  0  0.035833  0  3.846898  0  0  0.047368  0  3.857568  0  0  0.002934  0.02834  0  3.839496  0
O  O38  1  0.91353521  0.28329334  0.45691590  1  0  -0.701042  0  2.06294  0  0  -0.626237  0  2.295895  0  0  -0.656768  0  2.2885  0  0  -0.298488  -0.604683  0  2.300108  0
O  O39  1  0.08645045  0.71671822  0.54307858  1  0  -0.701101  0  2.062957  0  0  -0.626335  0  2.295946  0  0  -0.656881  0  2.288591  0  0  -0.29859  -0.604781  0  2.300159  0
O  O40  1  0.23895787  0.15003103  0.40859370  1  0  -0.652964  0  1.984608  0  0  -0.578498  0  2.211564  0  0  -0.608488  0  2.203253  0  0  -0.294022  -0.557619  0  2.216626  0
O  O41  1  0.76102416  0.84998432  0.59140266  1  0  -0.652958  0  1.984698  0  0  -0.578469  0  2.211614  0  0  -0.608445  0  2.203298  0  0  -0.294079  -0.5576  0  2.216681  0
O  O42  1  0.98436056  0.92388234  0.15905711  1  0  -0.189404  0  2.465846  0  0  -0.116783  0  2.707219  0  0  -0.134889  0  2.715799  0  0  -0.131508  -0.104324  0  2.700678  0
O  O43  1  0.01564252  0.07611530  0.84093675  1  0  -0.189361  0  2.465768  0  0  -0.116688  0  2.707103  0  0  -0.134777  0  2.715677  0  0  -0.131445  -0.104234  0  2.700569  0
O  O44  1  0.18389330  0.53498137  0.29659305  1  0  -0.660801  0  1.962843  0  0  -0.605198  0  2.200126  0  0  -0.633655  0  2.194184  0  0  -0.305619  -0.585591  0  2.203621  0
O  O45  1  0.81610844  0.46501389  0.70341433  1  0  -0.660875  0  1.962524  0  0  -0.605304  0  2.199713  0  0  -0.633762  0  2.193774  0  0  -0.305654  -0.58569  0  2.203204  0
O  O46  1  0.48197613  0.46932208  0.37237790  1  0  -0.689807  0  2.009618  0  0  -0.596051  0  2.244415  0  0  -0.629615  0  2.235417  0  0  -0.291465  -0.572237  0  2.249585  0
O  O47  1  0.51801655  0.53067084  0.62763384  1  0  -0.689806  0  2.009992  0  0  -0.596058  0  2.244664  0  0  -0.629678  0  2.235806  0  0  -0.291486  -0.572266  0  2.249881  0
O  O48  1  0.58430845  0.73870209  0.95722263  1  0  -0.162498  0  2.409337  0  0  -0.088105  0  2.641687  0  0  -0.104994  0  2.648312  0  0  -0.129368  -0.076685  0  2.636747  0
O  O49  1  0.41569614  0.26130689  0.04279096  1  0  -0.162457  0  2.409338  0  0  -0.088066  0  2.641708  0  0  -0.104956  0  2.648329  0  0  -0.129429  -0.076658  0  2.636777  0
O  O50  1  0.56246564  0.16652021  0.59041536  1  0  -0.870072  0  1.866735  0  0  -0.804507  0  2.05919  0  0  -0.829825  0  2.02992  0  0  -0.570656  -0.786365  0  2.079429  0
O  O51  1  0.43753116  0.83347753  0.40958308  1  0  -0.870099  0  1.866639  0  0  -0.804505  0  2.059057  0  0  -0.829828  0  2.029791  0  0  -0.570616  -0.786365  0  2.079303  0
