# generated using pymatgen
data_Cd5H42C68(N2O9)2
_symmetry_space_group_name_H-M   'P 1'
_cell_length_a   7.86770397
_cell_length_b   13.51530427
_cell_length_c   14.83847862
_cell_angle_alpha   66.60392567
_cell_angle_beta   78.89813808
_cell_angle_gamma   86.89798751
_symmetry_Int_Tables_number   1
_chemical_formula_structural   Cd5H42C68(N2O9)2
_chemical_formula_sum   'Cd5 H42 C68 N4 O18'
_cell_volume   1420.57681882
_cell_formula_units_Z   1
loop_
 _symmetry_equiv_pos_site_id
 _symmetry_equiv_pos_as_xyz
  1  'x, y, z'
loop_
 _atom_site_type_symbol
 _atom_site_label
 _atom_site_symmetry_multiplicity
 _atom_site_fract_x
 _atom_site_fract_y
 _atom_site_fract_z
 _atom_site_occupancy
 _atom_site_hle17_bader_spin_density
 _atom_site_hle17_ddec_charge
 _atom_site_hle17_ddec_spin_density
 _atom_site_hle17_ddec_sum_bond_order
 _atom_site_hle17_magmom
 _atom_site_hse06_10hf_bader_spin_density
 _atom_site_hse06_10hf_ddec_charge
 _atom_site_hse06_10hf_ddec_spin_density
 _atom_site_hse06_10hf_ddec_sum_bond_order
 _atom_site_hse06_10hf_magmom
 _atom_site_hse06_bader_spin_density
 _atom_site_hse06_ddec_charge
 _atom_site_hse06_ddec_spin_density
 _atom_site_hse06_ddec_sum_bond_order
 _atom_site_hse06_magmom
 _atom_site_pbe_bader_spin_density
 _atom_site_pbe_cm5_charge
 _atom_site_pbe_ddec_charge
 _atom_site_pbe_ddec_spin_density
 _atom_site_pbe_ddec_sum_bond_order
 _atom_site_pbe_magmom
Cd  Cd0  1  0.58366412  0.11356309  0.11214102  1  0  1.212313  0  1.574751  0  0  1.021227  0  2.019625  0  0  1.081882  0  1.961371  0  0  0.76571  0.977805  0  2.059703  0
Cd  Cd1  1  0.41633483  0.88643672  0.88785490  1  0  1.212288  0  1.574767  0  0  1.02121  0  2.019634  0  0  1.081866  0  1.96138  0  0  0.765702  0.977778  0  2.05971  0
Cd  Cd2  1  0.26494661  0.86019285  0.16651148  1  0  1.222124  0  1.669839  0  0  1.039955  0  2.121094  0  0  1.096215  0  2.065792  0  0  0.769998  0.99949  0  2.159145  0
Cd  Cd3  1  0.73505878  0.13980701  0.83348715  1  0  1.222143  0  1.669867  0  0  1.039971  0  2.121141  0  0  1.09623  0  2.065838  0  0  0.769997  0.9995  0  2.159195  0
Cd  Cd4  1  0.99999987  0.99999756  0.00000026  1  0  1.270505  0  1.698939  0  0  1.10253  0  2.153095  0  0  1.159667  0  2.090939  0  0  0.739677  1.061499  0  2.195952  0
H  H5  1  0.65677772  0.97470117  0.02588405  1  0  0.411041  0  0.895427  0  0  0.380117  0  0.960138  0  0  0.391402  0  0.944028  0  0  0.271753  0.37201  0  0.971683  0
H  H6  1  0.34322377  0.02529784  0.97411259  1  0  0.411081  0  0.89536  0  0  0.380194  0  0.960024  0  0  0.391479  0  0.943916  0  0  0.271781  0.372079  0  0.971583  0
H  H7  1  0.02677050  0.45188286  0.71242798  1  0  0.092367  0  0.976359  0  0  0.102558  0  1.039202  0  0  0.105612  0  1.037402  0  0  0.099499  0.100405  0  1.040479  0
H  H8  1  0.97321803  0.54811807  0.28757865  1  0  0.092389  0  0.976363  0  0  0.102627  0  1.039134  0  0  0.105683  0  1.037331  0  0  0.099554  0.100475  0  1.040411  0
H  H9  1  0.22799089  0.61174275  0.64079125  1  0  0.096827  0  0.953624  0  0  0.108239  0  1.012551  0  0  0.110737  0  1.012604  0  0  0.099271  0.106481  0  1.012556  0
H  H10  1  0.77200026  0.38825810  0.35921246  1  0  0.096833  0  0.953677  0  0  0.108248  0  1.012596  0  0  0.11075  0  1.012645  0  0  0.099272  0.106497  0  1.0126  0
H  H11  1  0.65607829  0.35300533  0.89647243  1  0  0.088689  0  0.980614  0  0  0.098374  0  1.045593  0  0  0.100832  0  1.044981  0  0  0.09792  0.096547  0  1.046187  0
H  H12  1  0.34392448  0.64699459  0.10352846  1  0  0.088726  0  0.980631  0  0  0.09842  0  1.045596  0  0  0.100877  0  1.044984  0  0  0.097943  0.096601  0  1.046187  0
H  H13  1  0.85164047  0.51214597  0.82825340  1  0  0.085011  0  0.969533  0  0  0.096599  0  1.028645  0  0  0.09862  0  1.029227  0  0  0.096235  0.095154  0  1.028315  0
H  H14  1  0.14835345  0.48785810  0.17174949  1  0  0.08506  0  0.969454  0  0  0.096565  0  1.028645  0  0  0.098582  0  1.029236  0  0  0.096239  0.095136  0  1.028317  0
H  H15  1  0.77823051  0.68222341  0.69715752  1  0  0.087672  0  0.982855  0  0  0.099506  0  1.042838  0  0  0.102193  0  1.041054  0  0  0.098975  0.097497  0  1.044206  0
H  H16  1  0.22176598  0.31777980  0.30284342  1  0  0.087731  0  0.982775  0  0  0.099504  0  1.042832  0  0  0.10219  0  1.041049  0  0  0.098939  0.097506  0  1.044177  0
H  H17  1  0.50605191  0.69278974  0.63179247  1  0  0.088203  0  0.986177  0  0  0.099742  0  1.049802  0  0  0.101945  0  1.049944  0  0  0.097382  0.098135  0  1.0498  0
H  H18  1  0.49394461  0.30721338  0.36820513  1  0  0.088255  0  0.986157  0  0  0.099745  0  1.049832  0  0  0.101949  0  1.049972  0  0  0.097392  0.098129  0  1.049832  0
H  H19  1  0.71110973  0.88567064  0.40919452  1  0  0.093435  0  0.972908  0  0  0.103395  0  1.037588  0  0  0.106256  0  1.036267  0  0  0.100582  0.101371  0  1.038461  0
H  H20  1  0.28889251  0.11431867  0.59080504  1  0  0.093453  0  0.972931  0  0  0.103384  0  1.037637  0  0  0.106249  0  1.036306  0  0  0.100582  0.101356  0  1.038534  0
H  H21  1  0.77618426  0.82036373  0.58069736  1  0  0.093549  0  0.977378  0  0  0.105115  0  1.041031  0  0  0.108249  0  1.038668  0  0  0.100285  0.102793  0  1.042911  0
H  H22  1  0.22381194  0.17963375  0.41930240  1  0  0.093535  0  0.977403  0  0  0.105098  0  1.041055  0  0  0.108241  0  1.03868  0  0  0.100281  0.102784  0  1.042945  0
H  H23  1  0.45561392  0.95847993  0.39485671  1  0  0.098381  0  0.965874  0  0  0.107798  0  1.031308  0  0  0.110926  0  1.029281  0  0  0.102405  0.105475  0  1.032954  0
H  H24  1  0.54438016  0.04152650  0.60514257  1  0  0.09839  0  0.965802  0  0  0.107797  0  1.031265  0  0  0.110925  0  1.029238  0  0  0.102411  0.105479  0  1.032905  0
H  H25  1  0.52019293  0.88861131  0.56496411  1  0  0.086847  0  0.977709  0  0  0.09932  0  1.038022  0  0  0.101494  0  1.037819  0  0  0.099782  0.097742  0  1.038282  0
H  H26  1  0.47980613  0.11139099  0.43503355  1  0  0.086876  0  0.977692  0  0  0.099335  0  1.038003  0  0  0.10151  0  1.037802  0  0  0.099751  0.097752  0  1.038265  0
H  H27  1  0.28805598  0.80639233  0.71330355  1  0  0.088526  0  0.971881  0  0  0.096169  0  1.037311  0  0  0.098788  0  1.036778  0  0  0.096784  0.094314  0  1.037743  0
H  H28  1  0.71194772  0.19360025  0.28669666  1  0  0.088577  0  0.971957  0  0  0.096234  0  1.037369  0  0  0.098865  0  1.036803  0  0  0.096812  0.094392  0  1.037803  0
H  H29  1  0.98588302  0.79138651  0.69150210  1  0  0.096811  0  0.960611  0  0  0.105472  0  1.025802  0  0  0.108819  0  1.024165  0  0  0.098732  0.103091  0  1.026994  0
H  H30  1  0.01412085  0.20860931  0.30849754  1  0  0.096739  0  0.960649  0  0  0.105382  0  1.025865  0  0  0.108735  0  1.02422  0  0  0.098713  0.103003  0  1.027067  0
H  H31  1  0.96707607  0.17695187  0.10710952  1  0  0.094938  0  0.957558  0  0  0.102305  0  1.020561  0  0  0.10462  0  1.018577  0  0  0.121039  0.100524  0  1.022097  0
H  H32  1  0.03292278  0.82304634  0.89288768  1  0  0.094927  0  0.95763  0  0  0.102275  0  1.020651  0  0  0.104592  0  1.018662  0  0  0.121019  0.100501  0  1.022187  0
H  H33  1  0.15733391  0.33513805  0.04459552  1  0  0.121446  0  0.967704  0  0  0.129807  0  1.029838  0  0  0.133771  0  1.027846  0  0  0.110148  0.126899  0  1.031556  0
H  H34  1  0.84266361  0.66486026  0.95540515  1  0  0.121419  0  0.96773  0  0  0.129779  0  1.029872  0  0  0.133743  0  1.02788  0  0  0.11013  0.126858  0  1.031588  0
H  H35  1  0.69639833  0.52970096  0.02236293  1  0  0.108712  0  0.965276  0  0  0.11824  0  1.028177  0  0  0.121223  0  1.027373  0  0  0.109877  0.116088  0  1.028927  0
H  H36  1  0.30359783  0.47029752  0.97764456  1  0  0.108653  0  0.965318  0  0  0.118263  0  1.028119  0  0  0.12125  0  1.027307  0  0  0.109861  0.1161  0  1.028894  0
H  H37  1  0.52427611  0.35979522  0.08653283  1  0  0.087176  0  0.932591  0  0  0.097039  0  0.994133  0  0  0.099282  0  0.992356  0  0  0.119657  0.095374  0  0.995462  0
H  H38  1  0.47572396  0.64020227  0.91346790  1  0  0.087127  0  0.932561  0  0  0.096995  0  0.994089  0  0  0.099237  0  0.99231  0  0  0.119648  0.095336  0  0.995416  0
H  H39  1  0.11090449  0.63361614  0.35221068  1  0  0.083095  0  0.961264  0  0  0.090342  0  1.026339  0  0  0.093539  0  1.022756  0  0  0.11283  0.08787  0  1.029052  0
H  H40  1  0.88910759  0.36638773  0.64778712  1  0  0.08309  0  0.961173  0  0  0.090315  0  1.026273  0  0  0.093524  0  1.022674  0  0  0.112803  0.087841  0  1.028997  0
H  H41  1  0.21435107  0.47287200  0.48114534  1  0  0.100846  0  0.954469  0  0  0.114437  0  1.009252  0  0  0.11734  0  1.008671  0  0  0.107564  0.112372  0  1.009802  0
H  H42  1  0.78565724  0.52713437  0.51885390  1  0  0.100856  0  0.95446  0  0  0.114444  0  1.009244  0  0  0.117344  0  1.008661  0  0  0.107529  0.112362  0  1.0098  0
H  H43  1  0.68537829  0.65726212  0.42445513  1  0  0.104786  0  0.949803  0  0  0.117538  0  1.005471  0  0  0.12043  0  1.004825  0  0  0.108994  0.115422  0  1.006115  0
H  H44  1  0.31462891  0.34274748  0.57554300  1  0  0.104783  0  0.94988  0  0  0.117562  0  1.005513  0  0  0.120454  0  1.004867  0  0  0.109038  0.115428  0  1.006157  0
H  H45  1  0.56101670  0.80799987  0.29787560  1  0  0.095122  0  0.925663  0  0  0.101704  0  0.990804  0  0  0.10439  0  0.988266  0  0  0.119814  0.099643  0  0.992819  0
H  H46  1  0.43898368  0.19200327  0.70212363  1  0  0.09506  0  0.925474  0  0  0.101658  0  0.990622  0  0  0.104343  0  0.988084  0  0  0.119739  0.099557  0  0.992635  0
C  C47  1  0.39563156  0.23861611  0.92582723  1  0  0.685236  0  3.898739  0  0  0.626157  0  4.205153  0  0  0.662926  0  4.193367  0  0  0.212641  0.600902  0  4.212507  0
C  C48  1  0.60436844  0.76137970  0.07417145  1  0  0.685253  0  3.89849  0  0  0.626095  0  4.205035  0  0  0.662871  0  4.193237  0  0  0.212608  0.600835  0  4.212387  0
C  C49  1  0.06170810  0.25658471  0.85330803  1  0  0.668801  0  3.900877  0  0  0.616697  0  4.192662  0  0  0.652712  0  4.184739  0  0  0.208317  0.592216  0  4.197149  0
C  C50  1  0.93829205  0.74341442  0.14669342  1  0  0.668958  0  3.90065  0  0  0.616882  0  4.19242  0  0  0.652898  0  4.184492  0  0  0.2084  0.592396  0  4.1969  0
C  C51  1  0.34207879  0.34178557  0.84824955  1  0  -0.086481  0  3.662851  0  0  -0.079679  0  3.901514  0  0  -0.081979  0  3.919075  0  0  -0.002232  -0.07813  0  3.889768  0
C  C52  1  0.65792277  0.65821510  0.15174848  1  0  -0.086475  0  3.662936  0  0  -0.079651  0  3.901619  0  0  -0.081948  0  3.919178  0  0  -0.002236  -0.078103  0  3.889856  0
C  C53  1  0.18824641  0.35018068  0.81285523  1  0  -0.079787  0  3.738282  0  0  -0.067129  0  3.977806  0  0  -0.074049  0  3.999097  0  0  -0.020452  -0.062722  0  3.963626  0
C  C54  1  0.81175223  0.64981530  0.18715026  1  0  -0.07985  0  3.738185  0  0  -0.067193  0  3.977716  0  0  -0.074114  0  3.999005  0  0  -0.020441  -0.06278  0  3.963514  0
C  C55  1  0.14916033  0.44816028  0.73735188  1  0  -0.086328  0  3.784699  0  0  -0.110522  0  4.042167  0  0  -0.110857  0  4.061622  0  0  -0.095674  -0.110119  0  4.028942  0
C  C56  1  0.85083461  0.55183895  0.26265274  1  0  -0.086409  0  3.784823  0  0  -0.110645  0  4.04232  0  0  -0.11098  0  4.061771  0  0  -0.095798  -0.110243  0  4.029095  0
C  C57  1  0.26045106  0.53622378  0.69769973  1  0  -0.115471  0  3.75862  0  0  -0.136657  0  4.01188  0  0  -0.139006  0  4.031967  0  0  -0.093873  -0.135085  0  3.99821  0
C  C58  1  0.73955035  0.46377541  0.30230427  1  0  -0.115473  0  3.758637  0  0  -0.136671  0  4.01187  0  0  -0.139013  0  4.031966  0  0  -0.093861  -0.135095  0  3.998204  0
C  C59  1  0.41964404  0.53022290  0.73082071  1  0  0.060558  0  3.798489  0  0  0.076929  0  4.024279  0  0  0.077722  0  4.048433  0  0  -0.008129  0.076475  0  4.007861  0
C  C60  1  0.58035068  0.46977226  0.26918412  1  0  0.060588  0  3.798256  0  0  0.07702  0  4.023982  0  0  0.077784  0  4.04818  0  0  -0.008124  0.07656  0  4.007571  0
C  C61  1  0.46137082  0.43171856  0.80732065  1  0  0.025177  0  3.754795  0  0  0.037862  0  3.978363  0  0  0.036484  0  4.002998  0  0  -0.007846  0.038728  0  3.961726  0
C  C62  1  0.53862956  0.56828459  0.19267858  1  0  0.025103  0  3.754822  0  0  0.037771  0  3.978384  0  0  0.036391  0  4.003045  0  0  -0.00786  0.038639  0  3.961743  0
C  C63  1  0.62113408  0.42733674  0.83964049  1  0  -0.108313  0  3.745685  0  0  -0.131777  0  3.999847  0  0  -0.133919  0  4.021314  0  0  -0.093743  -0.130225  0  3.985299  0
C  C64  1  0.37886621  0.57266480  0.16035936  1  0  -0.108354  0  3.74585  0  0  -0.131814  0  3.999977  0  0  -0.133951  0  4.021443  0  0  -0.09376  -0.130257  0  3.985435  0
C  C65  1  0.73119097  0.51630974  0.80119185  1  0  -0.073436  0  3.791577  0  0  -0.084424  0  4.039889  0  0  -0.086494  0  4.061301  0  0  -0.095892  -0.082975  0  4.025226  0
C  C66  1  0.26880690  0.48369508  0.19880901  1  0  -0.073533  0  3.791499  0  0  -0.084447  0  4.039806  0  0  -0.086518  0  4.061216  0  0  -0.095895  -0.083003  0  4.025166  0
C  C67  1  0.68993102  0.61284277  0.72607843  1  0  -0.066703  0  3.779588  0  0  -0.081039  0  4.02616  0  0  -0.081938  0  4.046382  0  0  -0.092978  -0.080201  0  4.01225  0
C  C68  1  0.31006528  0.38715721  0.27392375  1  0  -0.066735  0  3.779457  0  0  -0.081014  0  4.025997  0  0  -0.081911  0  4.046216  0  0  -0.092928  -0.080169  0  4.012076  0
C  C69  1  0.53845925  0.61905489  0.69055692  1  0  -0.117881  0  3.743331  0  0  -0.137706  0  3.99072  0  0  -0.141125  0  4.012502  0  0  -0.092139  -0.135291  0  3.975823  0
C  C70  1  0.46153430  0.38094183  0.30944474  1  0  -0.117836  0  3.743351  0  0  -0.13765  0  3.99072  0  0  -0.14106  0  4.012509  0  0  -0.092094  -0.135222  0  3.975821  0
C  C71  1  0.91518321  0.98421404  0.23560328  1  0  0.672881  0  3.888854  0  0  0.620505  0  4.183936  0  0  0.656247  0  4.17499  0  0  0.210151  0.596133  0  4.189273  0
C  C72  1  0.08481795  0.01577934  0.76439620  1  0  0.672809  0  3.888873  0  0  0.62044  0  4.183946  0  0  0.656183  0  4.174998  0  0  0.210102  0.596062  0  4.189274  0
C  C73  1  0.27913552  0.02733316  0.26363437  1  0  0.667223  0  3.887209  0  0  0.611244  0  4.186433  0  0  0.64591  0  4.179477  0  0  0.20829  0.587502  0  4.19038  0
C  C74  1  0.72086076  0.97266593  0.73636478  1  0  0.667301  0  3.887002  0  0  0.611319  0  4.186239  0  0  0.646  0  4.179261  0  0  0.208375  0.587582  0  4.190184  0
C  C75  1  0.13859065  0.95761704  0.34657977  1  0  -0.099797  0  3.672308  0  0  -0.090878  0  3.912263  0  0  -0.093462  0  3.930558  0  0  -0.00562  -0.089158  0  3.900005  0
C  C76  1  0.86140590  0.04238690  0.65341819  1  0  -0.099633  0  3.67226  0  0  -0.090757  0  3.912246  0  0  -0.093343  0  3.930537  0  0  -0.005595  -0.089039  0  3.899986  0
C  C77  1  0.97106175  0.94354496  0.33509149  1  0  -0.087167  0  3.748339  0  0  -0.07542  0  3.988093  0  0  -0.081976  0  4.009429  0  0  -0.021447  -0.071174  0  3.973798  0
C  C78  1  0.02893700  0.05645166  0.66490700  1  0  -0.087256  0  3.748368  0  0  -0.075456  0  3.988054  0  0  -0.082014  0  4.009392  0  0  -0.021442  -0.071199  0  3.973741  0
C  C79  1  0.84191676  0.89164486  0.42090259  1  0  -0.074738  0  3.771802  0  0  -0.096829  0  4.024227  0  0  -0.097853  0  4.045421  0  0  -0.092407  -0.095944  0  4.009844  0
C  C80  1  0.15808449  0.10835014  0.57909627  1  0  -0.074719  0  3.771925  0  0  -0.096799  0  4.024337  0  0  -0.097823  0  4.045537  0  0  -0.092416  -0.095899  0  4.009949  0
C  C81  1  0.87848637  0.85418275  0.51535001  1  0  -0.116194  0  3.761188  0  0  -0.141872  0  4.017714  0  0  -0.143574  0  4.03715  0  0  -0.092396  -0.140695  0  4.004541  0
C  C82  1  0.12151112  0.14581472  0.48464964  1  0  -0.116174  0  3.761202  0  0  -0.141833  0  4.017706  0  0  -0.143543  0  4.037139  0  0  -0.092305  -0.140643  0  4.004538  0
C  C83  1  0.04912996  0.86246511  0.52987689  1  0  0.067653  0  3.785822  0  0  0.085554  0  4.009864  0  0  0.086276  0  4.033695  0  0  -0.004938  0.08512  0  3.993688  0
C  C84  1  0.95086771  0.13753560  0.47012218  1  0  0.067686  0  3.785712  0  0  0.085578  0  4.009774  0  0  0.086301  0  4.033606  0  0  -0.004921  0.085147  0  3.993599  0
C  C85  1  0.18193365  0.91347981  0.44409840  1  0  0.04172  0  3.749144  0  0  0.051197  0  3.974715  0  0  0.049987  0  3.999476  0  0  -0.005515  0.051938  0  3.958006  0
C  C86  1  0.81806661  0.08652089  0.55590042  1  0  0.041558  0  3.749174  0  0  0.051039  0  3.974782  0  0  0.049827  0  3.999543  0  0  -0.005586  0.051789  0  3.958067  0
C  C87  1  0.35282133  0.92026720  0.45925679  1  0  -0.119667  0  3.745478  0  0  -0.141777  0  4.000168  0  0  -0.144128  0  4.021502  0  0  -0.093886  -0.140067  0  3.985713  0
C  C88  1  0.64717911  0.07973673  0.54074146  1  0  -0.119557  0  3.745302  0  0  -0.141658  0  3.999982  0  0  -0.14401  0  4.021318  0  0  -0.093837  -0.139943  0  3.985519  0
C  C89  1  0.38923787  0.88069992  0.55436903  1  0  -0.077936  0  3.780869  0  0  -0.090598  0  4.030627  0  0  -0.092649  0  4.051458  0  0  -0.09547  -0.089148  0  4.016427  0
C  C90  1  0.61076115  0.11930157  0.44562894  1  0  -0.078024  0  3.780844  0  0  -0.090661  0  4.030599  0  0  -0.092717  0  4.051437  0  0  -0.095475  -0.089194  0  4.016389  0
C  C91  1  0.25712143  0.83370733  0.63890733  1  0  -0.054913  0  3.768524  0  0  -0.071379  0  4.024195  0  0  -0.071688  0  4.04357  0  0  -0.09313  -0.071077  0  4.011007  0
C  C92  1  0.74287861  0.16628929  0.36109104  1  0  -0.054992  0  3.768589  0  0  -0.07146  0  4.024224  0  0  -0.071769  0  4.043611  0  0  -0.093115  -0.071169  0  4.011046  0
C  C93  1  0.09023145  0.82457294  0.62682319  1  0  -0.120941  0  3.736074  0  0  -0.140067  0  3.986134  0  0  -0.14331  0  4.00623  0  0  -0.09142  -0.137844  0  3.972526  0
C  C94  1  0.90976466  0.17542291  0.37317653  1  0  -0.120847  0  3.736014  0  0  -0.139953  0  3.986089  0  0  -0.143201  0  4.006194  0  0  -0.0914  -0.137727  0  3.97248  0
C  C95  1  0.91118958  0.25638520  0.08828479  1  0  0.15175  0  3.679218  0  0  0.120565  0  3.929302  0  0  0.128751  0  3.94742  0  0  0.051593  0.115165  0  3.917059  0
C  C96  1  0.08880806  0.74361465  0.91171259  1  0  0.151794  0  3.679293  0  0  0.120604  0  3.929362  0  0  0.128791  0  3.947477  0  0  0.051627  0.115201  0  3.91711  0
C  C97  1  0.01817112  0.34756663  0.05230911  1  0  -0.141764  0  3.654609  0  0  -0.160683  0  3.899861  0  0  -0.168588  0  3.920216  0  0  -0.07571  -0.155599  0  3.886373  0
C  C98  1  0.98182903  0.65243250  0.94769233  1  0  -0.141766  0  3.65454  0  0  -0.160637  0  3.899807  0  0  -0.168542  0  3.920161  0  0  -0.075726  -0.155559  0  3.886307  0
C  C99  1  0.94531161  0.45011980  0.02330676  1  0  0.090573  0  3.741012  0  0  0.102185  0  3.972787  0  0  0.106359  0  3.993632  0  0  0.014137  0.099568  0  3.958517  0
C  C100  1  0.05468579  0.54987698  0.97669787  1  0  0.090617  0  3.740782  0  0  0.102081  0  3.972708  0  0  0.106252  0  3.993555  0  0  0.014105  0.099462  0  3.958432  0
C  C101  1  0.76336113  0.45372193  0.03953570  1  0  -0.151464  0  3.696578  0  0  -0.170639  0  3.945641  0  0  -0.178519  0  3.967827  0  0  -0.077114  -0.165539  0  3.930769  0
C  C102  1  0.23663765  0.54627645  0.96046819  1  0  -0.151403  0  3.696613  0  0  -0.170617  0  3.945692  0  0  -0.178496  0  3.967875  0  0  -0.077074  -0.165503  0  3.930836  0
C  C103  1  0.66513681  0.35896122  0.07602048  1  0  0.135583  0  3.713354  0  0  0.10386  0  3.967162  0  0  0.111351  0  3.986186  0  0  0.0493  0.098977  0  3.954181  0
C  C104  1  0.33485811  0.64103714  0.92398177  1  0  0.135661  0  3.713437  0  0  0.103948  0  3.967237  0  0  0.111444  0  3.986254  0  0  0.049302  0.099062  0  3.954254  0
C  C105  1  0.23700509  0.63457008  0.37187129  1  0  0.129622  0  3.717591  0  0  0.100903  0  3.970005  0  0  0.10783  0  3.988561  0  0  0.043565  0.096465  0  3.957356  0
C  C106  1  0.76299848  0.36544353  0.62812366  1  0  0.1296  0  3.717159  0  0  0.100913  0  3.969544  0  0  0.107832  0  3.988098  0  0  0.043564  0.09648  0  3.956909  0
C  C107  1  0.29715351  0.54506772  0.44365549  1  0  -0.156931  0  3.712944  0  0  -0.176471  0  3.960573  0  0  -0.184268  0  3.982415  0  0  -0.082095  -0.171445  0  3.945853  0
C  C108  1  0.70285358  0.45493941  0.55634156  1  0  -0.156921  0  3.713012  0  0  -0.176462  0  3.960612  0  0  -0.184256  0  3.982452  0  0  -0.082062  -0.171447  0  3.945907  0
C  C109  1  0.46350928  0.54795071  0.46418971  1  0  0.095074  0  3.745149  0  0  0.107264  0  3.975583  0  0  0.111381  0  3.996967  0  0  0.015974  0.104682  0  3.960943  0
C  C110  1  0.53649483  0.45205094  0.53581578  1  0  0.095176  0  3.745341  0  0  0.107389  0  3.975735  0  0  0.111507  0  3.997116  0  0  0.016051  0.104783  0  3.961101  0
C  C111  1  0.55681255  0.64634134  0.41239355  1  0  -0.147968  0  3.682819  0  0  -0.167075  0  3.931908  0  0  -0.174997  0  3.953781  0  0  -0.077143  -0.161995  0  3.917296  0
C  C112  1  0.44318694  0.35366910  0.58760435  1  0  -0.148035  0  3.683019  0  0  -0.167179  0  3.932164  0  0  -0.175104  0  3.95404  0  0  -0.077266  -0.162115  0  3.917551  0
C  C113  1  0.48793630  0.73227423  0.34114459  1  0  0.140445  0  3.695221  0  0  0.107145  0  3.957946  0  0  0.114467  0  3.976466  0  0  0.049901  0.102299  0  3.945451  0
C  C114  1  0.51206328  0.26773691  0.65884832  1  0  0.140572  0  3.694733  0  0  0.107236  0  3.95752  0  0  0.114559  0  3.976041  0  0  0.049934  0.102393  0  3.945006  0
N  N115  1  0.73744256  0.26141326  0.09773215  1  0  -0.361642  0  3.26481  0  0  -0.278532  0  3.532214  0  0  -0.300574  0  3.550025  0  0  -0.33228  -0.263432  0  3.519787  0
N  N116  1  0.26255370  0.73858500  0.90226597  1  0  -0.3617  0  3.264822  0  0  -0.278559  0  3.532172  0  0  -0.300603  0  3.549988  0  0  -0.332256  -0.263451  0  3.519738  0
N  N117  1  0.33147141  0.72651104  0.31941632  1  0  -0.338833  0  3.226831  0  0  -0.268524  0  3.497634  0  0  -0.288924  0  3.517808  0  0  -0.322732  -0.254548  0  3.483634  0
N  N118  1  0.66853557  0.27349451  0.68058269  1  0  -0.338889  0  3.22614  0  0  -0.26857  0  3.496947  0  0  -0.288972  0  3.517126  0  0  -0.32274  -0.25461  0  3.482961  0
O  O119  1  0.40284516  0.23894985  0.01052724  1  0  -0.640642  0  1.976461  0  0  -0.577394  0  2.22992  0  0  -0.606463  0  2.216666  0  0  -0.316659  -0.556722  0  2.23832  0
O  O120  1  0.59714949  0.76104273  0.98947184  1  0  -0.640564  0  1.976205  0  0  -0.577328  0  2.229754  0  0  -0.606399  0  2.216491  0  0  -0.316631  -0.556648  0  2.238151  0
O  O121  1  0.44391444  0.16234444  0.89742972  1  0  -0.673711  0  2.065846  0  0  -0.602743  0  2.318993  0  0  -0.631834  0  2.306059  0  0  -0.328616  -0.581915  0  2.32721  0
O  O122  1  0.55609354  0.83765446  0.10256363  1  0  -0.673746  0  2.065843  0  0  -0.602716  0  2.318979  0  0  -0.631811  0  2.306046  0  0  -0.328603  -0.581891  0  2.327193  0
O  O123  1  0.07674708  0.18094435  0.93550587  1  0  -0.638573  0  2.077444  0  0  -0.57059  0  2.330963  0  0  -0.600701  0  2.321142  0  0  -0.31215  -0.54944  0  2.337014  0
O  O124  1  0.92325690  0.81905304  0.06449181  1  0  -0.638573  0  2.077306  0  0  -0.570598  0  2.330803  0  0  -0.60071  0  2.320979  0  0  -0.312113  -0.549449  0  2.336852  0
O  O125  1  0.94699636  0.26203413  0.80108447  1  0  -0.669945  0  2.050164  0  0  -0.600518  0  2.309696  0  0  -0.631081  0  2.298377  0  0  -0.331847  -0.578834  0  2.31653  0
O  O126  1  0.05299732  0.73796594  0.19892131  1  0  -0.670053  0  2.050123  0  0  -0.600667  0  2.309682  0  0  -0.631226  0  2.298353  0  0  -0.331974  -0.578985  0  2.316521  0
O  O127  1  0.03150511  0.98981809  0.15951368  1  0  -0.699611  0  2.093591  0  0  -0.620764  0  2.357205  0  0  -0.651761  0  2.34227  0  0  -0.332763  -0.598757  0  2.366562  0
O  O128  1  0.96849483  0.01017696  0.84048731  1  0  -0.699623  0  2.093484  0  0  -0.620798  0  2.357138  0  0  -0.651797  0  2.342204  0  0  -0.332785  -0.598781  0  2.366475  0
O  O129  1  0.75885900  0.00968249  0.23302996  1  0  -0.633282  0  1.980497  0  0  -0.57413  0  2.238539  0  0  -0.601637  0  2.226089  0  0  -0.319211  -0.554636  0  2.246379  0
O  O130  1  0.24113673  0.99030604  0.76696988  1  0  -0.633195  0  1.980635  0  0  -0.574057  0  2.238687  0  0  -0.601561  0  2.226234  0  0  -0.31916  -0.554582  0  2.246537  0
O  O131  1  0.37920216  0.98289082  0.21011398  1  0  -0.683156  0  2.111006  0  0  -0.592257  0  2.384833  0  0  -0.627117  0  2.370004  0  0  -0.334107  -0.567585  0  2.394181  0
O  O132  1  0.62079796  0.01710836  0.78988947  1  0  -0.683269  0  2.110928  0  0  -0.592361  0  2.384763  0  0  -0.627227  0  2.369927  0  0  -0.334165  -0.567651  0  2.394092  0
O  O133  1  0.30571679  0.12148352  0.25409037  1  0  -0.583165  0  1.861357  0  0  -0.528653  0  2.075726  0  0  -0.554801  0  2.06841  0  0  -0.303402  -0.510023  0  2.080092  0
O  O134  1  0.69428221  0.87851799  0.74590827  1  0  -0.583192  0  1.86144  0  0  -0.528658  0  2.075789  0  0  -0.554809  0  2.068462  0  0  -0.303381  -0.510016  0  2.080147  0
O  O135  1  0.71868628  0.04481999  0.00275012  1  0  -0.999066  0  1.843357  0  0  -0.887629  0  2.114741  0  0  -0.927564  0  2.07839  0  0  -0.593952  -0.859109  0  2.139363  0
O  O136  1  0.28131519  0.95517903  0.99724719  1  0  -0.999084  0  1.843307  0  0  -0.887691  0  2.114629  0  0  -0.927627  0  2.078275  0  0  -0.593992  -0.859199  0  2.139263  0
