# generated using pymatgen
data_CuH10C16N5O2
_symmetry_space_group_name_H-M   'P 1'
_cell_length_a   5.57903052
_cell_length_b   11.65203146
_cell_length_c   11.31734495
_cell_angle_alpha   108.09524048
_cell_angle_beta   95.57379305
_cell_angle_gamma   91.59253235
_symmetry_Int_Tables_number   1
_chemical_formula_structural   CuH10C16N5O2
_chemical_formula_sum   'Cu2 H20 C32 N10 O4'
_cell_volume   694.70630023
_cell_formula_units_Z   2
loop_
 _symmetry_equiv_pos_site_id
 _symmetry_equiv_pos_as_xyz
  1  'x, y, z'
loop_
 _atom_site_type_symbol
 _atom_site_label
 _atom_site_symmetry_multiplicity
 _atom_site_fract_x
 _atom_site_fract_y
 _atom_site_fract_z
 _atom_site_occupancy
 _atom_site_hle17_ddec_charge
 _atom_site_hle17_ddec_spin_density
 _atom_site_hle17_ddec_sum_bond_order
 _atom_site_hle17_magmom
 _atom_site_hse06_10hf_ddec_charge
 _atom_site_hse06_10hf_ddec_spin_density
 _atom_site_hse06_10hf_ddec_sum_bond_order
 _atom_site_hse06_10hf_magmom
 _atom_site_hse06_ddec_charge
 _atom_site_hse06_ddec_spin_density
 _atom_site_hse06_ddec_sum_bond_order
 _atom_site_hse06_magmom
 _atom_site_pbe_cm5_charge
 _atom_site_pbe_ddec_charge
 _atom_site_pbe_ddec_spin_density
 _atom_site_pbe_ddec_sum_bond_order
 _atom_site_pbe_magmom
Cu  Cu0  1  0.09826462  0.19092099  0.04880621  1  0.774508  -0.615434  1.845998  -0.427  0.752838  -0.727651  2.257177  -0.558  0.847522  -0.805352  2.180902  -0.647  0.744011  0.700121  -0.677067  2.307027  -0.504
Cu  Cu1  1  0.90169556  0.80910947  0.95119985  1  0.774482  -0.615415  1.845968  -0.427  0.752816  -0.72764  2.257114  -0.558  0.847482  -0.805338  2.180866  -0.647  0.744015  0.700102  -0.677071  2.306933  -0.504
H  H2  1  0.11014560  0.20218557  0.50057515  1  0.110966  -0.001301  0.952769  0.0  0.120771  -0.001143  1.014796  0.0  0.124217  -0.000874  1.013701  0.0  0.1076  0.118207  -0.001365  1.015883  0.0
H  H3  1  0.88995665  0.79773058  0.49940097  1  0.11099  -0.001307  0.952457  0.0  0.120759  -0.001144  1.014566  0.0  0.124203  -0.000874  1.013476  0.0  0.10765  0.118196  -0.001365  1.015649  0.0
H  H4  1  0.60222424  0.34549327  0.13852694  1  0.096245  -0.000783  0.940981  -0.002  0.105122  -0.000879  1.002484  -0.002  0.107902  -0.000644  0.999878  -0.001  0.123503  0.102989  -0.001075  1.004556  -0.002
H  H5  1  0.39772893  0.65454559  0.86148150  1  0.096446  -0.000753  0.94102  -0.002  0.105106  -0.000879  1.002704  -0.002  0.10789  -0.000644  1.000096  -0.001  0.123594  0.102963  -0.001075  1.004779  -0.002
H  H6  1  0.67016605  0.02817441  0.87707793  1  0.092446  -0.000468  0.929854  -0.002  0.1016  -0.000333  0.995164  -0.002  0.104537  2e-05  0.991553  -0.001  0.122578  0.099201  -0.00069  0.998095  -0.002
H  H7  1  0.32978898  0.97185794  0.12293465  1  0.092404  -0.000478  0.930009  -0.002  0.101608  -0.000332  0.995261  -0.002  0.104544  2e-05  0.991658  -0.001  0.122557  0.099204  -0.000689  0.998192  -0.002
H  H8  1  0.76801119  0.42675866  0.80697372  1  0.115518  -0.000188  0.95614  0.0  0.126227  5e-06  1.016015  0.0  0.129733  2.1e-05  1.013358  0.0  0.109523  0.123684  -1.6e-05  1.017926  0.0
H  H9  1  0.23199958  0.57323398  0.19301732  1  0.115514  -0.000187  0.956049  0.0  0.126173  5e-06  1.015961  0.0  0.129673  2.1e-05  1.013315  0.0  0.109485  0.123644  -1.6e-05  1.017873  0.0
H  H10  1  0.87166446  0.44406351  0.03477296  1  0.115361  -0.000405  0.956566  0.0  0.125764  -0.000461  1.017444  -0.001  0.128917  -0.000335  1.016872  0.0  0.109327  0.123456  -0.000569  1.018206  -0.001
H  H11  1  0.12829911  0.55596595  0.96523207  1  0.115483  -0.000406  0.956455  0.0  0.125828  -0.000462  1.017425  -0.001  0.12898  -0.000335  1.01685  0.0  0.109382  0.123517  -0.000569  1.018181  -0.001
H  H12  1  0.47541625  0.33271345  0.60705442  1  0.096602  -6.1e-05  0.993487  0.0  0.10989  -7e-05  1.05121  0.0  0.111447  -4e-05  1.053154  0.0  0.101983  0.108686  -9.9e-05  1.050021  0.0
H  H13  1  0.52467714  0.66721760  0.39291994  1  0.09659  -7.2e-05  0.993364  0.0  0.109658  -7e-05  1.051331  0.0  0.11128  -4.1e-05  1.053207  0.0  0.101877  0.108461  -9.9e-05  1.050142  0.0
H  H14  1  0.75742611  0.06465453  0.51307395  1  0.103998  0.000106  0.952281  0.0  0.116505  0.000148  1.01172  0.0  0.119307  0.000164  1.009649  0.0  0.111477  0.11446  0.000122  1.013316  0.0
H  H15  1  0.24265128  0.93528599  0.48691062  1  0.10404  0.000101  0.952287  0.0  0.116599  0.000148  1.011632  0.0  0.119353  0.000164  1.009622  0.0  0.111515  0.114552  0.000122  1.013227  0.0
H  H16  1  0.53014225  0.97236994  0.64886259  1  0.106865  -0.001364  0.981321  0.0  0.115494  -0.001131  1.046054  -0.001  0.119249  -0.000907  1.04441  0.0  0.106318  0.112831  -0.001319  1.047369  -0.001
H  H17  1  0.46986588  0.02762079  0.35114005  1  0.106775  -0.001371  0.981417  0.0  0.115421  -0.001131  1.046161  -0.001  0.119175  -0.000907  1.044522  0.0  0.10629  0.112753  -0.00132  1.047476  -0.001
H  H18  1  0.64855516  0.31088647  0.36242051  1  0.100286  -0.000283  0.985716  0.0  0.106109  -0.000392  1.054441  0.0  0.109987  -0.000269  1.051941  0.0  0.099237  0.103447  -0.000497  1.056045  0.0
H  H19  1  0.35141012  0.68912913  0.63759241  1  0.100169  -0.000276  0.985617  0.0  0.105979  -0.000392  1.054372  0.0  0.109855  -0.000269  1.051877  0.0  0.099188  0.103326  -0.000496  1.055985  0.0
H  H20  1  0.09875756  0.56712040  0.44176395  1  0.097  7e-06  0.961518  0.0  0.103627  -1.2e-05  1.028984  0.0  0.106454  -1e-05  1.028381  0.0  0.100303  0.101623  -1.8e-05  1.02949  0.0
H  H21  1  0.90120716  0.43289252  0.55824540  1  0.097088  7e-06  0.961344  0.0  0.103837  -1.3e-05  1.028699  0.0  0.10667  -9e-06  1.028086  0.0  0.100387  0.101829  -1.7e-05  1.029201  0.0
C  C22  1  0.20720863  0.36349747  0.27036651  1  0.615968  0.007396  3.919931  0.008  0.574362  0.002426  4.215966  0.004  0.610753  0.002975  4.211366  0.003  0.19483  0.550034  0.001732  4.218426  0.003
C  C23  1  0.79275997  0.63652358  0.72964132  1  0.615678  0.0074  3.919924  0.008  0.574077  0.002426  4.215951  0.004  0.610463  0.002976  4.211341  0.003  0.194595  0.549751  0.001732  4.218397  0.003
C  C24  1  0.30019784  0.25872154  0.85746826  1  0.121389  0.002035  3.772133  0.001  0.118035  9.3e-05  4.005517  0.0  0.122921  0.001065  4.029331  0.001  0.111871  0.115045  -0.0006  3.989801  -0.001
C  C25  1  0.69980361  0.74127771  0.14252711  1  0.121537  0.002115  3.771945  0.001  0.118307  9.3e-05  4.005505  0.0  0.123195  0.001065  4.029313  0.001  0.111929  0.115326  -0.000599  3.989758  -0.001
C  C26  1  0.35768230  0.43193325  0.39021810  1  -0.058232  -0.008036  3.745795  -0.008  -0.0355  -0.005135  3.973987  -0.006  -0.042194  -0.003616  3.995413  -0.004  -0.017015  -0.031034  -0.006222  3.959324  -0.007
C  C27  1  0.64228791  0.56808686  0.60978862  1  -0.058375  -0.008041  3.745732  -0.008  -0.035635  -0.005135  3.973984  -0.006  -0.042321  -0.003617  3.9954  -0.004  -0.017097  -0.031155  -0.006222  3.959289  -0.007
C  C28  1  0.16452438  0.21885926  0.60007233  1  -0.100992  -0.000537  3.710642  -0.001  -0.117335  -0.000568  3.954289  -0.001  -0.120825  -0.000516  3.975769  -0.001  -0.078903  -0.115044  -0.000613  3.940009  -0.001
C  C29  1  0.83556411  0.78107459  0.39990799  1  -0.100834  -0.00061  3.710548  -0.001  -0.117238  -0.000567  3.954028  -0.001  -0.120732  -0.000519  3.97553  -0.001  -0.079056  -0.114942  -0.000613  3.93975  -0.001
C  C30  1  0.58480077  0.39424118  0.42214176  1  -0.071552  -0.00075  3.717598  -0.001  -0.092623  -0.000731  3.963567  -0.001  -0.092569  -0.000376  3.981341  0.0  -0.085853  -0.092473  -0.001076  3.951308  -0.001
C  C31  1  0.41516530  0.60577719  0.57786769  1  -0.07137  -0.000729  3.717428  -0.001  -0.092415  -0.000731  3.963304  -0.001  -0.09236  -0.000376  3.981075  0.0  -0.085815  -0.092283  -0.001076  3.951065  -0.001
C  C32  1  0.55765564  0.33765444  0.04046860  1  0.1573  0.008759  3.665627  0.006  0.126111  0.003209  3.927257  0.002  0.13811  0.004663  3.942698  0.003  0.061726  0.118431  0.002114  3.917734  0.001
C  C33  1  0.44231178  0.66237583  0.95953514  1  0.157125  0.008759  3.665902  0.006  0.126126  0.003205  3.927559  0.002  0.138132  0.004669  3.942981  0.003  0.061631  0.118448  0.002115  3.918017  0.001
C  C34  1  0.08865596  0.18383598  0.79623902  1  0.122791  0.001979  3.781238  0.001  0.115356  -0.000186  4.019233  0.0  0.119918  0.000805  4.043198  0.0  0.112811  0.11248  -0.000893  4.003384  -0.001
C  C35  1  0.91135747  0.81615374  0.20375916  1  0.122833  0.001892  3.781129  0.001  0.115151  -0.000186  4.019279  0.0  0.119714  0.000807  4.04324  0.0  0.112674  0.112276  -0.000892  4.003412  -0.001
C  C36  1  0.76580100  0.06345144  0.81483857  1  0.162466  0.010045  3.651079  0.007  0.133187  0.003974  3.901873  0.003  0.145641  0.005594  3.916399  0.004  0.064173  0.125335  0.002708  3.892407  0.002
C  C37  1  0.23417708  0.93656388  0.18516700  1  0.162378  0.010002  3.651069  0.007  0.133033  0.003976  3.901923  0.003  0.145479  0.005595  3.916461  0.004  0.064179  0.125176  0.002709  3.892445  0.002
C  C38  1  0.27419820  0.53813947  0.46864274  1  -0.0821  -9e-05  3.744497  0.0  -0.102444  -0.000582  3.992633  -0.001  -0.103907  -0.000301  4.012591  -0.001  -0.08507  -0.101367  -0.000855  3.979079  -0.001
C  C39  1  0.72576969  0.46187885  0.53136591  1  -0.081988  -5.7e-05  3.74424  0.0  -0.102486  -0.000582  3.992431  -0.001  -0.103943  -0.000301  4.012374  -0.001  -0.085051  -0.101407  -0.000855  3.978854  -0.001
C  C40  1  0.44188109  0.31234257  0.78917525  1  0.031778  -0.003149  3.779963  -0.003  0.05225  -0.001964  4.002605  -0.002  0.049361  -0.001727  4.025803  -0.002  0.001267  0.054109  -0.002142  3.986929  -0.002
C  C41  1  0.55814986  0.68763670  0.21081426  1  0.031805  -0.003198  3.779857  -0.003  0.051863  -0.001963  4.003004  -0.002  0.048966  -0.001728  4.026227  -0.002  0.001236  0.053717  -0.002142  3.987334  -0.002
C  C42  1  0.65296984  0.38225106  0.85473842  1  -0.040753  0.009001  3.644159  0.006  -0.064321  0.004749  3.890236  0.003  -0.05924  0.005249  3.905558  0.003  -0.062672  -0.067534  0.004403  3.879802  0.002
C  C43  1  0.34703503  0.61774719  0.14525504  1  -0.041048  0.00908  3.644118  0.006  -0.064361  0.004747  3.890224  0.003  -0.059284  0.005254  3.905556  0.003  -0.062766  -0.067603  0.004403  3.879822  0.002
C  C44  1  0.70991242  0.39349228  0.97971418  1  -0.117937  -0.006367  3.717224  -0.007  -0.140265  -0.00354  3.985174  -0.005  -0.149254  -0.003149  4.005096  -0.004  -0.084511  -0.134865  -0.003841  3.972547  -0.005
C  C45  1  0.29006197  0.60652960  0.02028806  1  -0.117916  -0.006426  3.717083  -0.007  -0.140252  -0.003538  3.984991  -0.005  -0.149232  -0.003152  4.004901  -0.004  -0.084475  -0.134842  -0.003842  3.972348  -0.005
C  C46  1  0.02032996  0.16234884  0.66707620  1  0.032439  -0.003554  3.791821  -0.004  0.049954  -0.002055  4.019117  -0.002  0.047983  -0.001843  4.041777  -0.002  0.002004  0.051286  -0.002184  4.003614  -0.002
C  C47  1  0.97972136  0.83761066  0.33291232  1  0.032269  -0.003496  3.79193  -0.004  0.050192  -0.002055  4.018783  -0.002  0.048222  -0.001842  4.041432  -0.002  0.00226  0.051517  -0.002183  4.003281  -0.002
C  C48  1  0.36637173  0.29095877  0.65909123  1  -0.084355  -0.000784  3.717407  -0.001  -0.106901  -0.000458  3.960305  -0.001  -0.109618  -0.000417  3.983535  -0.001  -0.079946  -0.10507  -0.00051  3.944907  -0.001
C  C49  1  0.63370611  0.70898274  0.34088661  1  -0.084314  -0.000681  3.71729  -0.001  -0.106554  -0.000459  3.960309  -0.001  -0.109316  -0.000414  3.983502  -0.001  -0.079785  -0.104734  -0.000509  3.944924  -0.001
C  C50  1  0.81346516  0.08434125  0.61264683  1  -0.042519  0.009789  3.671791  0.006  -0.065745  0.00457  3.915852  0.002  -0.061549  0.005211  3.93111  0.003  -0.057482  -0.068431  0.004092  3.905507  0.002
C  C51  1  0.18658634  0.91561915  0.38734288  1  -0.042929  0.00971  3.671963  0.006  -0.066304  0.00457  3.916044  0.002  -0.062083  0.005212  3.931335  0.003  -0.057682  -0.068979  0.004093  3.90568  0.002
C  C52  1  0.68891353  0.03413743  0.68635572  1  -0.110146  -0.008619  3.71359  -0.009  -0.125113  -0.004626  3.96678  -0.005  -0.131784  -0.004108  3.984714  -0.005  -0.078855  -0.120842  -0.004971  3.95478  -0.006
C  C53  1  0.31109470  0.96585333  0.31364428  1  -0.109671  -0.008552  3.713278  -0.009  -0.124667  -0.004625  3.966544  -0.005  -0.131331  -0.004108  3.984462  -0.005  -0.078722  -0.120396  -0.004971  3.954534  -0.006
N  N54  1  0.35637288  0.27280963  0.98097110  1  -0.331315  -0.055805  3.311109  -0.067  -0.281126  -0.049745  3.60084  -0.065  -0.309402  -0.043019  3.618307  -0.061  -0.339646  -0.265068  -0.053415  3.591374  -0.067
N  N55  1  0.64359880  0.72721596  0.01903221  1  -0.33137  -0.05585  3.311383  -0.067  -0.28111  -0.049743  3.600953  -0.065  -0.309381  -0.043021  3.618412  -0.061  -0.339668  -0.265055  -0.053419  3.591463  -0.067
N  N56  1  0.96096222  0.13612275  0.86786917  1  -0.343073  -0.05522  3.37819  -0.067  -0.288314  -0.047868  3.663812  -0.063  -0.318103  -0.042377  3.684186  -0.06  -0.344815  -0.271143  -0.050345  3.65247  -0.063
N  N57  1  0.03902218  0.86388876  0.13213461  1  -0.343013  -0.055177  3.378004  -0.067  -0.28821  -0.047872  3.663726  -0.063  -0.317993  -0.042381  3.684109  -0.06  -0.344788  -0.271032  -0.050353  3.652346  -0.063
N  N58  1  0.17319300  0.89034569  0.90390178  1  -0.503574  -0.08796  2.676523  -0.108  -0.564038  -0.038275  3.047401  -0.054  -0.610328  -0.018136  3.061456  -0.036  -0.318556  -0.537013  -0.050373  3.04066  -0.063
N  N59  1  0.82677945  0.10968430  0.09611275  1  -0.503624  -0.087975  2.67649  -0.108  -0.564091  -0.038289  3.047398  -0.054  -0.610386  -0.018144  3.061429  -0.036  -0.318552  -0.537067  -0.050392  3.040678  -0.063
N  N60  1  0.18213470  0.88428007  0.79631022  1  0.395462  0.05266  4.170981  0.052  0.446313  0.009097  4.485241  0.011  0.467254  0.01433  4.522751  0.014  0.086158  0.433126  0.003734  4.460464  0.007
N  N61  1  0.81785576  0.11574294  0.20370830  1  0.395537  0.052643  4.171214  0.052  0.446375  0.009092  4.48543  0.011  0.467316  0.014322  4.522942  0.014  0.086003  0.433188  0.003731  4.460669  0.007
N  N62  1  0.19642673  0.88151224  0.69301501  1  -0.357833  -0.148248  2.391513  -0.162  -0.383846  -0.069931  2.634678  -0.079  -0.399346  -0.058618  2.648485  -0.071  -0.181474  -0.373415  -0.077471  2.625168  -0.084
N  N63  1  0.80357863  0.11850490  0.30699975  1  -0.357923  -0.148211  2.391926  -0.162  -0.383891  -0.069918  2.635045  -0.079  -0.399393  -0.058608  2.648856  -0.071  -0.181322  -0.373453  -0.077466  2.625532  -0.084
O  O64  1  0.26367162  0.25293193  0.21835120  1  -0.589549  -0.104043  2.042797  -0.134  -0.551977  -0.071933  2.316169  -0.103  -0.596936  -0.055986  2.309923  -0.086  -0.332969  -0.523304  -0.081069  2.320518  -0.11
O  O65  1  0.73630172  0.74709273  0.78164925  1  -0.589469  -0.10405  2.042631  -0.134  -0.551886  -0.071933  2.315951  -0.103  -0.596835  -0.055986  2.309707  -0.086  -0.332857  -0.523201  -0.081069  2.32024  -0.11
O  O66  1  0.04463843  0.41445060  0.22453929  1  -0.615438  0.001644  1.926585  0.0  -0.579967  0.001396  2.160878  0.0  -0.60613  0.002517  2.153334  0.001  -0.322942  -0.561954  0.000404  2.165587  -0.001
O  O67  1  0.95531901  0.58556980  0.77547389  1  -0.615315  0.001642  1.926955  0.0  -0.57981  0.001396  2.161159  0.0  -0.606024  0.002517  2.153731  0.001  -0.322802  -0.561791  0.000404  2.165843  -0.001
