# generated using pymatgen
data_CoH15C24N2(O2F3)2
_symmetry_space_group_name_H-M   'P 1'
_cell_length_a   7.26584885
_cell_length_b   14.04360160
_cell_length_c   24.96034042
_cell_angle_alpha   106.20149732
_cell_angle_beta   90.01651528
_cell_angle_gamma   104.99441499
_symmetry_Int_Tables_number   1
_chemical_formula_structural   CoH15C24N2(O2F3)2
_chemical_formula_sum   'Co4 H60 C96 N8 O16 F24'
_cell_volume   2355.27441452
_cell_formula_units_Z   4
loop_
 _symmetry_equiv_pos_site_id
 _symmetry_equiv_pos_as_xyz
  1  'x, y, z'
loop_
 _atom_site_type_symbol
 _atom_site_label
 _atom_site_symmetry_multiplicity
 _atom_site_fract_x
 _atom_site_fract_y
 _atom_site_fract_z
 _atom_site_occupancy
 _atom_site_pbe_bader_charge
 _atom_site_pbe_bader_spin_density
 _atom_site_pbe_cm5_charge
 _atom_site_pbe_ddec_charge
 _atom_site_pbe_ddec_spin_density
 _atom_site_pbe_ddec_sum_bond_order
 _atom_site_pbe_magmom
Co  Co0  1  0.09374628  0.94162305  0.98986416  1  1.201679  2.6109  0.615479  0.772503  2.825823  2.71085  2.596
Co  Co1  1  0.15213356  0.05819313  0.51019301  1  1.197809  2.610789  0.615156  0.771366  2.826758  2.711846  2.596
Co  Co2  1  0.90627272  0.05825118  0.01009784  1  1.195753  2.610352  0.615469  0.772294  2.825459  2.710436  2.596
Co  Co3  1  0.84784319  0.94181672  0.48982582  1  1.197271  2.610551  0.615876  0.772834  2.826786  2.714158  2.596
H  H4  1  0.58408666  0.08079082  0.12611560  1  0.13677  0.000482  0.108136  0.118208  0.000257  1.032427  0.0
H  H5  1  0.50356464  0.91950797  0.37381559  1  0.137272  0.000486  0.107934  0.118005  0.000255  1.032499  0.0
H  H6  1  0.41581501  0.91911574  0.87385023  1  0.137179  0.000482  0.108191  0.11833  0.000257  1.032339  0.0
H  H7  1  0.49668711  0.08058949  0.62615684  1  0.138758  0.000487  0.108037  0.11793  0.000256  1.03256  0.0
H  H8  1  0.06805768  0.34985287  0.34203315  1  0.065903  0.00013  0.090388  0.094593  7e-05  1.050237  0.0
H  H9  1  0.71728917  0.65016027  0.15774292  1  0.07466  0.000122  0.090775  0.095759  6.6e-05  1.050402  0.0
H  H10  1  0.93197104  0.65021144  0.65792487  1  0.067334  0.000129  0.090618  0.094889  7e-05  1.049935  0.0
H  H11  1  0.28270284  0.34981955  0.84227243  1  0.075574  0.000122  0.090789  0.095669  6.6e-05  1.050022  0.0
H  H12  1  0.76331220  0.17694684  0.21773990  1  0.083925  0.000125  0.102944  0.111809  4.7e-05  0.995048  0.0
H  H13  1  0.58621194  0.82328000  0.28217147  1  0.071739  0.000127  0.10341  0.112314  4.7e-05  0.994431  0.0
H  H14  1  0.23656235  0.82294127  0.78223227  1  0.083756  0.000125  0.103132  0.112036  4.7e-05  0.995136  0.0
H  H15  1  0.41381044  0.17670280  0.71780668  1  0.071956  0.000127  0.103555  0.112613  4.7e-05  0.994127  0.0
H  H16  1  0.47669203  0.17291343  0.32253693  1  0.066814  0.000128  0.103844  0.113119  5.4e-05  0.994627  0.0
H  H17  1  0.30320767  0.82725960  0.17749304  1  0.089847  0.000125  0.103866  0.113582  5.5e-05  0.995261  0.0
H  H18  1  0.52336896  0.82701717  0.67748916  1  0.065863  0.000128  0.103772  0.112971  5.5e-05  0.994876  0.0
H  H19  1  0.69679028  0.17271013  0.82249308  1  0.089237  0.000125  0.103794  0.113473  5.5e-05  0.995443  0.0
H  H20  1  0.99459431  0.71557968  0.89252449  1  0.109562  0.000577  0.111976  0.108066  0.000162  1.042924  0.001
H  H21  1  0.27932473  0.28421922  0.60757057  1  0.125165  0.000573  0.112044  0.107518  0.000164  1.043726  0.001
H  H22  1  0.00534397  0.28436156  0.10745599  1  0.109858  0.000577  0.111976  0.108115  0.000162  1.042631  0.001
H  H23  1  0.72086842  0.71589309  0.39247990  1  0.124673  0.000574  0.111939  0.107588  0.000163  1.043908  0.001
H  H24  1  0.47263058  0.85727595  0.00921510  1  0.181321  0.000282  0.135948  0.110829  -7.3e-05  1.030191  0.0
H  H25  1  0.61515017  0.14257430  0.49076544  1  0.176748  0.000286  0.135872  0.111151  -7.1e-05  1.029607  0.0
H  H26  1  0.52728958  0.14268684  0.99076673  1  0.180479  0.000282  0.135978  0.110782  -7.3e-05  1.030351  0.0
H  H27  1  0.38495478  0.85751573  0.50929877  1  0.174915  0.000286  0.135879  0.110874  -7.1e-05  1.03071  0.0
H  H28  1  0.14548581  0.24502585  0.39843112  1  0.07612  0.000404  0.105632  0.112648  0.00022  1.005329  0.0
H  H29  1  0.89919202  0.75500922  0.10135211  1  0.083198  0.000397  0.105133  0.11153  0.000218  1.005684  0.0
H  H30  1  0.85473342  0.75517720  0.60158985  1  0.079455  0.000405  0.105474  0.112423  0.00022  1.005281  0.0
H  H31  1  0.10079706  0.24494824  0.89864852  1  0.083491  0.000397  0.105122  0.111454  0.000219  1.005865  0.0
H  H32  1  0.34811738  0.35283210  0.25749565  1  0.101213  0.000119  0.08771  0.095636  6.4e-05  1.059942  0.0
H  H33  1  0.99525924  0.64695497  0.24263645  1  0.103674  0.000119  0.087385  0.094261  6.5e-05  1.061457  0.0
H  H34  1  0.65179359  0.64705451  0.74248791  1  0.101422  0.000119  0.087749  0.095591  6.4e-05  1.060248  0.0
H  H35  1  0.00474309  0.35316658  0.75741546  1  0.102976  0.00012  0.087444  0.094663  6.5e-05  1.060581  0.0
H  H36  1  0.68366953  0.73530701  0.97509193  1  0.129298  3e-05  0.117837  0.113448  -0.000102  1.003649  0.0
H  H37  1  0.94821997  0.26454142  0.52479159  1  0.117668  3.4e-05  0.117374  0.112699  -0.000101  1.003877  0.0
H  H38  1  0.31627977  0.26465348  0.02489315  1  0.128583  3.1e-05  0.117761  0.113246  -0.000102  1.003984  0.0
H  H39  1  0.05188913  0.73550465  0.47524091  1  0.117082  3.4e-05  0.117309  0.112565  -0.000101  1.003593  0.0
H  H40  1  0.61510735  0.64520698  0.90891934  1  0.08705  0.000199  0.109107  0.100904  8.1e-05  0.980489  0.0
H  H41  1  0.97004991  0.35462511  0.59096887  1  0.057255  0.000203  0.109378  0.10152  7.9e-05  0.979912  0.0
H  H42  1  0.38478322  0.35472966  0.09106802  1  0.087042  0.000199  0.10909  0.100962  8.1e-05  0.9803  0.0
H  H43  1  0.03012537  0.64546250  0.40905731  1  0.058504  0.000203  0.10969  0.102085  7.9e-05  0.979178  0.0
H  H44  1  0.24433858  0.59066634  0.87362019  1  0.134295  0.000447  0.112334  0.119358  0.000184  1.030822  0.0
H  H45  1  0.65393470  0.40929366  0.62631750  1  0.137165  0.000457  0.11236  0.119225  0.000188  1.031259  0.0
H  H46  1  0.75559253  0.40926878  0.12637174  1  0.134602  0.000447  0.112321  0.119351  0.000184  1.030852  0.0
H  H47  1  0.34631639  0.59084644  0.37375614  1  0.137045  0.000456  0.112496  0.119299  0.000188  1.031243  0.0
H  H48  1  0.82286080  0.61864536  0.00558123  1  0.071148  4.6e-05  0.102699  0.10655  1.7e-05  0.993719  0.0
H  H49  1  0.20432045  0.38138743  0.49441965  1  0.072179  5.5e-05  0.102891  0.107121  2.1e-05  0.992146  0.0
H  H50  1  0.17711141  0.38130591  0.99440722  1  0.071712  4.6e-05  0.102726  0.10676  1.7e-05  0.993603  0.0
H  H51  1  0.79573828  0.61863777  0.50558355  1  0.071987  5.4e-05  0.102857  0.107027  2.1e-05  0.992075  0.0
H  H52  1  0.16091302  0.24831261  0.16944267  1  0.086469  0.000193  0.102489  0.107312  9.9e-05  1.024666  0.0
H  H53  1  0.91286737  0.75154453  0.33069100  1  0.099605  0.000191  0.102433  0.107242  9.8e-05  1.024833  0.0
H  H54  1  0.83900729  0.75160093  0.83054149  1  0.086344  0.000192  0.102496  0.107338  9.8e-05  1.024263  0.0
H  H55  1  0.08726605  0.24866855  0.66934155  1  0.100912  0.000194  0.102383  0.107197  0.0001  1.024984  0.0
H  H56  1  0.22102988  0.52779244  0.95517631  1  0.064856  3.3e-05  0.094117  0.093146  1.8e-05  1.037971  0.0
H  H57  1  0.69312856  0.47196925  0.54465577  1  0.06311  3.8e-05  0.094118  0.092971  2e-05  1.038217  0.0
H  H58  1  0.77893441  0.47216500  0.04481952  1  0.065112  3.3e-05  0.094094  0.093187  1.8e-05  1.038006  0.0
H  H59  1  0.30692576  0.52804438  0.45533882  1  0.063042  3.8e-05  0.094125  0.093099  2e-05  1.037958  0.0
H  H60  1  0.55451075  0.07503952  0.38351590  1  0.118605  0.000432  0.108043  0.113483  0.000231  1.029294  0.0
H  H61  1  0.47851116  0.92518519  0.11650799  1  0.116143  0.000422  0.107507  0.111671  0.000229  1.028872  0.0
H  H62  1  0.44580825  0.92506295  0.61658272  1  0.12056  0.000432  0.108029  0.113546  0.00023  1.02888  0.0
H  H63  1  0.52142969  0.07473367  0.88345417  1  0.115743  0.000423  0.107491  0.111941  0.000229  1.028634  0.0
C  C64  1  0.24367499  0.09889001  0.08797270  1  1.550808  -0.010703  0.21147  0.552512  -0.01387  4.187395  -0.01
C  C65  1  0.14483648  0.90125615  0.41202975  1  1.543327  -0.010641  0.21261  0.553672  -0.013859  4.18415  -0.01
C  C66  1  0.75620894  0.90105813  0.91200204  1  1.550609  -0.010696  0.211335  0.552077  -0.013851  4.188299  -0.01
C  C67  1  0.85529906  0.09886758  0.58798123  1  1.542517  -0.010657  0.211756  0.552896  -0.013881  4.18433  -0.01
C  C68  1  0.52936815  0.13777646  0.15603310  1  0.006757  -0.001829  -0.077699  -0.076018  -0.002284  3.935731  -0.001
C  C69  1  0.39171277  0.86243553  0.34395363  1  -0.021196  -0.001851  -0.07802  -0.076522  -0.002299  3.936462  -0.001
C  C70  1  0.47050854  0.86211316  0.84393049  1  0.005219  -0.001824  -0.077535  -0.07589  -0.00228  3.935789  -0.001
C  C71  1  0.60838984  0.13767741  0.65605126  1  -0.013191  -0.001861  -0.078113  -0.075978  -0.002304  3.936333  -0.001
C  C72  1  0.59929592  0.40594985  0.34169755  1  1.711502  -0.000219  0.304407  0.671916  -0.000251  3.971926  0.0
C  C73  1  0.19286504  0.59409344  0.15828864  1  1.709528  -0.000219  0.304212  0.674009  -0.000252  3.968819  0.0
C  C74  1  0.40049975  0.59390437  0.65826933  1  1.711762  -0.000219  0.304302  0.672123  -0.000252  3.971564  0.0
C  C75  1  0.80704576  0.40593868  0.84171604  1  1.707984  -0.000219  0.304192  0.674106  -0.000252  3.970638  0.0
C  C76  1  0.69999487  0.33735642  0.29769736  1  0.044878  -5.6e-05  -0.010791  -0.270348  -0.000282  3.864438  0.0
C  C77  1  0.36228204  0.66271760  0.20227538  1  0.053867  -5.3e-05  -0.009765  -0.268074  -0.000282  3.858572  0.0
C  C78  1  0.29992772  0.66256170  0.70227228  1  0.048348  -5.4e-05  -0.010875  -0.270227  -0.000282  3.863807  0.0
C  C79  1  0.63766645  0.33728528  0.79773115  1  0.053365  -5.3e-05  -0.009978  -0.268794  -0.000283  3.860297  0.0
C  C80  1  0.95428182  0.28845805  0.34936917  1  0.037487  0.001649  -0.099155  -0.139335  0.000671  3.991062  0.001
C  C81  1  0.66487063  0.71159230  0.15047674  1  0.003888  0.001648  -0.098848  -0.14043  0.00067  3.991887  0.001
C  C82  1  0.04582294  0.71159867  0.65062293  1  0.036752  0.00165  -0.099299  -0.139638  0.00067  3.992009  0.001
C  C83  1  0.33511953  0.28837285  0.84952149  1  0.00294  0.001649  -0.09889  -0.14018  0.000671  3.991469  0.001
C  C84  1  0.63184238  0.19365084  0.20719488  1  -0.043176  0.001481  -0.089182  -0.125613  0.000597  3.957937  0.001
C  C85  1  0.43811787  0.80654044  0.29277687  1  0.026353  0.001489  -0.089806  -0.126371  0.000603  3.958123  0.001
C  C86  1  0.36804515  0.80623570  0.79277024  1  -0.040011  0.001479  -0.089557  -0.126313  0.000597  3.958307  0.001
C  C87  1  0.56192801  0.19352786  0.70722786  1  0.026219  0.001489  -0.089786  -0.126894  0.000603  3.958032  0.001
C  C88  1  0.62364219  0.18966410  0.33937039  1  0.037345  0.001674  -0.091123  -0.124186  0.000685  3.961937  0.001
C  C89  1  0.43327386  0.81048668  0.16060130  1  0.003705  0.001674  -0.091151  -0.126663  0.000682  3.962229  0.001
C  C90  1  0.37645412  0.81034266  0.66064236  1  0.024692  0.001679  -0.090986  -0.124088  0.000687  3.961579  0.001
C  C91  1  0.56669977  0.18945918  0.83938150  1  0.007618  0.001674  -0.091082  -0.126731  0.000682  3.961903  0.001
C  C92  1  0.56995353  0.27215636  0.24457206  1  -0.04492  -0.003713  -0.01934  0.079918  -0.003973  3.959751  -0.002
C  C93  1  0.29768452  0.72788829  0.25545038  1  -0.112674  -0.003731  -0.019853  0.079384  -0.003988  3.958954  -0.002
C  C94  1  0.42996140  0.72772714  0.75540500  1  -0.047696  -0.003708  -0.019148  0.080381  -0.003968  3.959442  -0.002
C  C95  1  0.70235284  0.27216848  0.74455936  1  -0.112654  -0.003736  -0.019671  0.079974  -0.003993  3.958617  -0.002
C  C96  1  0.76564187  0.26945687  0.32826829  1  -0.127269  -0.004366  -0.01706  0.083124  -0.00467  3.956189  -0.003
C  C97  1  0.49546791  0.73065286  0.17166674  1  -0.117333  -0.00437  -0.017065  0.083852  -0.004673  3.955347  -0.003
C  C98  1  0.23442664  0.73053286  0.67171575  1  -0.122708  -0.004378  -0.017025  0.083142  -0.004681  3.956558  -0.003
C  C99  1  0.50452087  0.26931229  0.82832909  1  -0.119172  -0.004371  -0.01691  0.084346  -0.004674  3.954823  -0.003
C  C100  1  0.35871137  0.15725090  0.14216912  1  -0.041221  0.010063  -0.01596  -0.026971  0.005315  3.971031  0.008
C  C101  1  0.20164984  0.84285787  0.35787321  1  -0.093114  0.01009  -0.01609  -0.027231  0.005325  3.967565  0.008
C  C102  1  0.64118386  0.84267030  0.85780542  1  -0.040727  0.010062  -0.016035  -0.02685  0.005313  3.970621  0.008
C  C103  1  0.79845078  0.15727588  0.64214054  1  -0.10106  0.010109  -0.016514  -0.028069  0.005335  3.968433  0.008
C  C104  1  0.12993367  0.72530923  0.91426879  1  0.473524  -0.000573  -0.006217  -0.03284  -0.001261  4.010609  0.0
C  C105  1  0.40482621  0.27451761  0.58578100  1  0.460132  -0.000577  -0.006367  -0.032297  -0.001279  4.010343  0.0
C  C106  1  0.86999833  0.27463046  0.08570863  1  0.470008  -0.000572  -0.006532  -0.033242  -0.001258  4.010695  0.0
C  C107  1  0.59539498  0.72560398  0.41428013  1  0.458599  -0.00058  -0.006596  -0.033273  -0.001285  4.012055  0.0
C  C108  1  0.37273574  0.80113692  0.97596870  1  0.948878  0.002809  0.14538  0.098823  0.001817  3.867628  0.003
C  C109  1  0.57148283  0.19871334  0.52402190  1  0.95619  0.002839  0.145004  0.098149  0.00182  3.867012  0.003
C  C110  1  0.62720320  0.19881663  0.02401209  1  0.949145  0.002785  0.145301  0.098925  0.001802  3.867904  0.003
C  C111  1  0.42865629  0.80139824  0.47604127  1  0.959912  0.002871  0.145083  0.098206  0.001845  3.867264  0.003
C  C112  1  0.52592617  0.58397273  0.97746688  1  -0.053072  0.000167  -0.016616  0.085946  9.2e-05  3.967493  0.0
C  C113  1  0.94191221  0.41589204  0.52244272  1  -0.007507  0.000153  -0.016717  0.086518  8.5e-05  3.968971  0.0
C  C114  1  0.47403641  0.41599781  0.02253019  1  -0.053329  0.000166  -0.01664  0.085642  9.1e-05  3.967268  0.0
C  C115  1  0.05816596  0.58413626  0.47756658  1  -0.007788  0.000154  -0.016776  0.086409  8.5e-05  3.968738  0.0
C  C116  1  0.99906581  0.23007265  0.38170945  1  0.011928  -0.002739  -0.080035  -0.074983  -0.003117  3.958618  -0.002
C  C117  1  0.76782508  0.76996538  0.11810992  1  0.000435  -0.002742  -0.079827  -0.072524  -0.003114  3.959873  -0.002
C  C118  1  0.00109507  0.77003573  0.61831115  1  0.013319  -0.002752  -0.07972  -0.074414  -0.003128  3.958724  -0.002
C  C119  1  0.23215968  0.22998897  0.88187981  1  0.000417  -0.00274  -0.079813  -0.072515  -0.003113  3.960723  -0.002
C  C120  1  0.40021912  0.29204189  0.23023386  1  -0.074517  0.001429  -0.105071  -0.147645  0.000585  4.00817  0.001
C  C121  1  0.10820242  0.70782577  0.26985876  1  -0.038653  0.001436  -0.104375  -0.145854  0.000586  4.007255  0.001
C  C122  1  0.59969355  0.70785087  0.76975066  1  -0.073815  0.001427  -0.105314  -0.148362  0.000584  4.00889  0.001
C  C123  1  0.89185413  0.29229414  0.73015963  1  -0.037785  0.001439  -0.10494  -0.146987  0.000587  4.006618  0.001
C  C124  1  0.86839807  0.41100694  0.27811443  1  1.704662  -0.000187  0.304461  0.677575  -0.000214  3.956422  0.0
C  C125  1  0.45713655  0.58902053  0.22182650  1  1.713592  -0.000189  0.304238  0.675554  -0.000217  3.958752  0.0
C  C126  1  0.13143325  0.58894886  0.72184788  1  1.706275  -0.000187  0.304492  0.677271  -0.000214  3.956749  0.0
C  C127  1  0.54265933  0.41090840  0.77815966  1  1.712776  -0.00019  0.304224  0.675564  -0.000217  3.959425  0.0
C  C128  1  0.56616017  0.67126075  0.95091541  1  0.257631  0.000909  -0.044698  -0.109751  0.000494  3.886045  0.001
C  C129  1  0.89489587  0.32860142  0.54898348  1  0.302137  0.000898  -0.045194  -0.11043  0.000494  3.886674  0.001
C  C130  1  0.43377835  0.32869745  0.04907612  1  0.258683  0.000909  -0.044722  -0.109477  0.000494  3.885964  0.001
C  C131  1  0.10527162  0.67146235  0.45104659  1  0.301863  0.000898  -0.045319  -0.110844  0.000494  3.886509  0.001
C  C132  1  0.25064782  0.66266754  0.90488560  1  0.236139  0.003419  -0.01075  -0.129473  0.001748  3.971712  0.002
C  C133  1  0.58814657  0.33721958  0.59509349  1  0.229358  0.003415  -0.010026  -0.127895  0.001748  3.969773  0.002
C  C134  1  0.74928894  0.33727063  0.09510121  1  0.238054  0.00341  -0.0108  -0.12933  0.001743  3.97161  0.002
C  C135  1  0.41209288  0.66288897  0.40498163  1  0.231684  0.003423  -0.010124  -0.127909  0.001753  3.969572  0.002
C  C136  1  0.68043426  0.56661012  0.00316495  1  -0.019069  7.2e-05  -0.094462  -0.122237  2.5e-05  3.99419  0.0
C  C137  1  0.11384771  0.43337013  0.49681950  1  -0.032316  6.6e-05  -0.094463  -0.122713  1.8e-05  3.994521  0.0
C  C138  1  0.31952842  0.43334962  0.99682683  1  -0.019636  7.2e-05  -0.094503  -0.122504  2.5e-05  3.994362  0.0
C  C139  1  0.88620364  0.56664582  0.50317945  1  -0.032352  6.6e-05  -0.094544  -0.122709  1.8e-05  3.993911  0.0
C  C140  1  0.29475438  0.23407519  0.17994270  1  -0.032527  -0.002303  -0.087355  -0.084353  -0.002648  3.969367  -0.001
C  C141  1  0.06088475  0.76582993  0.32015533  1  0.017517  -0.00237  -0.087309  -0.084472  -0.00268  3.967007  -0.001
C  C142  1  0.70516670  0.76583989  0.82004089  1  -0.033456  -0.002301  -0.087173  -0.083792  -0.002647  3.968622  -0.001
C  C143  1  0.93921763  0.23432383  0.67985954  1  0.014417  -0.00237  -0.086555  -0.083517  -0.002679  3.966674  -0.001
C  C144  1  0.34468549  0.51627160  0.97467937  1  -0.03359  0.0001  -0.099565  -0.135155  5.4e-05  3.991658  0.0
C  C145  1  0.82839600  0.48359071  0.52522421  1  -0.064851  9.8e-05  -0.09969  -0.135544  5.2e-05  3.993957  0.0
C  C146  1  0.65528540  0.48369354  0.02531565  1  -0.03412  9.9e-05  -0.099612  -0.135256  5.4e-05  3.991429  0.0
C  C147  1  0.17165992  0.51642062  0.47477402  1  -0.064916  9.8e-05  -0.099595  -0.13552  5.2e-05  3.993928  0.0
C  C148  1  0.85597854  0.15365456  0.39477960  1  -0.012175  0.010131  -0.017467  -0.030906  0.005409  3.975083  0.008
C  C149  1  0.70131100  0.84651226  0.10514279  1  -0.030155  0.01013  -0.017748  -0.034255  0.005405  3.978111  0.008
C  C150  1  0.14419900  0.84646234  0.60525996  1  -0.015359  0.010131  -0.017548  -0.031097  0.005409  3.974929  0.008
C  C151  1  0.29865432  0.15343900  0.89484286  1  -0.030969  0.01013  -0.017965  -0.034752  0.005406  3.978757  0.008
C  C152  1  0.90441673  0.09804319  0.43338812  1  1.529843  -0.011474  0.210794  0.546678  -0.015192  4.190758  -0.01
C  C153  1  0.80579048  0.90221892  0.06664976  1  1.517801  -0.011514  0.210476  0.546532  -0.015207  4.191887  -0.01
C  C154  1  0.09578235  0.90210301  0.56666885  1  1.530351  -0.011492  0.210328  0.545777  -0.015204  4.191473  -0.01
C  C155  1  0.19414296  0.09773464  0.93333264  1  1.518453  -0.011513  0.210202  0.546391  -0.015207  4.192081  -0.01
C  C156  1  0.66742904  0.13337063  0.37299964  1  -0.08491  -0.002397  -0.079456  -0.082626  -0.002804  3.953303  -0.001
C  C157  1  0.53316712  0.86682085  0.12697004  1  -0.032639  -0.002412  -0.079343  -0.078524  -0.00281  3.950613  -0.001
C  C158  1  0.33275113  0.86670471  0.62704024  1  -0.085912  -0.002404  -0.079621  -0.082604  -0.00281  3.952653  -0.001
C  C159  1  0.46677364  0.13310882  0.87300422  1  -0.032924  -0.002413  -0.079142  -0.078414  -0.002812  3.94993  -0.001
N  N160  1  0.20806720  0.81167495  0.95843940  1  -1.211296  0.051673  -0.342816  -0.255218  0.02914  3.485824  0.04
N  N161  1  0.39641718  0.18812372  0.54161975  1  -1.216083  0.051787  -0.34301  -0.255436  0.029274  3.486482  0.04
N  N162  1  0.79186572  0.18826934  0.04153313  1  -1.209714  0.051639  -0.342593  -0.255329  0.029114  3.485352  0.04
N  N163  1  0.60371141  0.81197784  0.45843465  1  -1.216856  0.051814  -0.342767  -0.25467  0.029293  3.486925  0.04
N  N164  1  0.40382503  0.71127589  0.94449707  1  -1.228525  0.003149  -0.24328  0.04113  0.0013  3.78615  0.002
N  N165  1  0.69254571  0.28862525  0.55544059  1  -1.22852  0.003123  -0.242739  0.041224  0.001291  3.783055  0.002
N  N166  1  0.59610689  0.28867462  0.05549326  1  -1.229182  0.003137  -0.243059  0.041162  0.001295  3.785846  0.002
N  N167  1  0.30764214  0.71147094  0.44462218  1  -1.230108  0.003145  -0.242465  0.041792  0.0013  3.782987  0.002
O  O168  1  0.07045723  0.13239203  0.45920678  1  -1.13086  0.08467  -0.302102  -0.518837  0.043982  2.386392  0.076
O  O169  1  0.93756077  0.86783129  0.04091680  1  -1.131794  0.084795  -0.301481  -0.518838  0.043937  2.389954  0.077
O  O170  1  0.92974471  0.86785345  0.54085086  1  -1.129688  0.084566  -0.302175  -0.518944  0.043929  2.388035  0.076
O  O171  1  0.06238985  0.13211534  0.95906612  1  -1.132431  0.08482  -0.301371  -0.518592  0.043955  2.390492  0.077
O  O172  1  0.28416046  0.01906163  0.05685069  1  -1.129603  0.092383  -0.297475  -0.495519  0.048331  2.325516  0.08
O  O173  1  0.26530017  0.98098054  0.44318879  1  -1.134497  0.092307  -0.29834  -0.496027  0.048321  2.325653  0.08
O  O174  1  0.71575305  0.98089339  0.94311070  1  -1.128357  0.092279  -0.29757  -0.495372  0.048288  2.32618  0.08
O  O175  1  0.73494387  0.01915382  0.55677098  1  -1.133214  0.092406  -0.298053  -0.496045  0.048387  2.326111  0.08
O  O176  1  0.77645697  0.02132974  0.44012199  1  -1.135438  0.084501  -0.297085  -0.511224  0.044027  2.376272  0.075
O  O177  1  0.75492730  0.97904511  0.05993396  1  -1.127799  0.084501  -0.297089  -0.510082  0.044059  2.373668  0.075
O  O178  1  0.22390952  0.97875491  0.55993859  1  -1.136121  0.084492  -0.296521  -0.51028  0.04403  2.375096  0.075
O  O179  1  0.24497723  0.02088918  0.94004142  1  -1.128296  0.084542  -0.296857  -0.510056  0.044073  2.373766  0.075
O  O180  1  0.10769121  0.13324768  0.07578100  1  -1.137479  0.076211  -0.299643  -0.535155  0.038914  2.43766  0.071
O  O181  1  0.97435506  0.86703317  0.42413994  1  -1.141128  0.075941  -0.299721  -0.535395  0.038818  2.436085  0.071
O  O182  1  0.89219818  0.86668661  0.92419438  1  -1.137519  0.076122  -0.299479  -0.535182  0.038863  2.437435  0.071
O  O183  1  0.02585946  0.13310537  0.57592784  1  -1.141046  0.076167  -0.299106  -0.534316  0.038917  2.435509  0.071
F  F184  1  0.42667889  0.35019982  0.35235956  1  -0.627736  2.2e-05  -0.084329  -0.1928  1.7e-05  1.351362  0.0
F  F185  1  0.07574882  0.64978065  0.14770195  1  -0.625263  2e-05  -0.084916  -0.194253  1.6e-05  1.350156  0.0
F  F186  1  0.57313385  0.64960047  0.64759049  1  -0.627035  2.2e-05  -0.084104  -0.192935  1.7e-05  1.351098  0.0
F  F187  1  0.92415853  0.35026382  0.85231347  1  -0.624892  2e-05  -0.084725  -0.194101  1.6e-05  1.350569  0.0
F  F188  1  0.98574047  0.35862538  0.24776555  1  -0.620738  1.2e-05  -0.082801  -0.18895  1.1e-05  1.359644  0.0
F  F189  1  0.62695531  0.64139648  0.25215056  1  -0.622457  1e-05  -0.082846  -0.188484  1e-05  1.358868  0.0
F  F190  1  0.01414187  0.64135812  0.75219548  1  -0.621098  1.2e-05  -0.082878  -0.188975  1.2e-05  1.359908  0.0
F  F191  1  0.37283416  0.35845631  0.74785014  1  -0.622325  1e-05  -0.083021  -0.188582  1e-05  1.359277  0.0
F  F192  1  0.56569041  0.48516976  0.32515570  1  -0.616548  -5e-05  -0.095572  -0.210414  -4.9e-05  1.391824  0.0
F  F193  1  0.08031202  0.51475638  0.17478199  1  -0.619812  -5e-05  -0.095568  -0.211226  -4.8e-05  1.391  0.0
F  F194  1  0.43402760  0.51466676  0.67481242  1  -0.616976  -5e-05  -0.095651  -0.210349  -4.9e-05  1.391901  0.0
F  F195  1  0.91959325  0.48525645  0.82520445  1  -0.619334  -5e-05  -0.095551  -0.211114  -4.8e-05  1.391667  0.0
F  F196  1  0.70531113  0.44875386  0.39135598  1  -0.621705  -4.4e-05  -0.088071  -0.196566  -4e-05  1.39626  0.0
F  F197  1  0.25601116  0.55146029  0.10859953  1  -0.623211  -4.5e-05  -0.0877  -0.196875  -4.1e-05  1.396967  0.0
F  F198  1  0.29442591  0.55112347  0.60861851  1  -0.621271  -4.4e-05  -0.088078  -0.196691  -4e-05  1.396144  0.0
F  F199  1  0.74390341  0.44860415  0.89140098  1  -0.621963  -4.5e-05  -0.087817  -0.197173  -4.1e-05  1.397507  0.0
F  F200  1  0.80308242  0.45899729  0.24484422  1  -0.616728  -3.5e-05  -0.095656  -0.20457  -3.2e-05  1.392885  0.0
F  F201  1  0.34391058  0.54105593  0.25510521  1  -0.618023  -3.5e-05  -0.096267  -0.204824  -3.2e-05  1.39429  0.0
F  F202  1  0.19666887  0.54094158  0.75512065  1  -0.61655  -3.4e-05  -0.095861  -0.204659  -3.2e-05  1.392953  0.0
F  F203  1  0.65580330  0.45887141  0.74486467  1  -0.617262  -3.5e-05  -0.09603  -0.204534  -3.2e-05  1.394466  0.0
F  F204  1  0.98065031  0.48685412  0.32133694  1  -0.619259  -1.8e-05  -0.094164  -0.207265  -2e-05  1.348328  0.0
F  F205  1  0.49336856  0.51314420  0.17860009  1  -0.622552  -2.5e-05  -0.093662  -0.206526  -2.4e-05  1.348845  0.0
F  F206  1  0.01912810  0.51312246  0.67862621  1  -0.620252  -1.8e-05  -0.09394  -0.207008  -1.9e-05  1.34873  0.0
F  F207  1  0.50635312  0.48678775  0.82136690  1  -0.622672  -2.5e-05  -0.09363  -0.206578  -2.4e-05  1.34919  0.0
