# generated using pymatgen
data_ZnH2C19Br2(O2F3)2
_symmetry_space_group_name_H-M   'P 1'
_cell_length_a   15.14419663
_cell_length_b   15.02422219
_cell_length_c   39.14502585
_cell_angle_alpha   89.67163294
_cell_angle_beta   89.86542321
_cell_angle_gamma   89.23346535
_symmetry_Int_Tables_number   1
_chemical_formula_structural   ZnH2C19Br2(O2F3)2
_chemical_formula_sum   'Zn4 H8 C76 Br8 O16 F24'
_cell_volume   8905.69260610
_cell_formula_units_Z   4
loop_
 _symmetry_equiv_pos_site_id
 _symmetry_equiv_pos_as_xyz
  1  'x, y, z'
loop_
 _atom_site_type_symbol
 _atom_site_label
 _atom_site_symmetry_multiplicity
 _atom_site_fract_x
 _atom_site_fract_y
 _atom_site_fract_z
 _atom_site_occupancy
 _atom_site_pbe_bader_charge
 _atom_site_pbe_bader_spin_density
 _atom_site_pbe_cm5_charge
 _atom_site_pbe_ddec_charge
 _atom_site_pbe_ddec_spin_density
 _atom_site_pbe_ddec_sum_bond_order
 _atom_site_pbe_magmom
Zn  Zn0  1  0.00216062  0.41401255  0.50074979  1  1.292376  0  0.745038  0.979645  0  2.053214  0
Zn  Zn1  1  0.99990148  0.58601524  0.50007640  1  1.312938  0  0.745361  0.980341  0  2.052206  0
Zn  Zn2  1  0.09392232  0.49913838  0.00033073  1  1.314383  0  0.73036  0.961473  0  2.121593  0
Zn  Zn3  1  0.91372663  0.50150274  0.00045930  1  1.311345  0  0.735407  0.965918  0  2.143518  0
H  H4  1  0.72337746  0.64209339  0.49880919  1  0.135328  0  0.097739  0.110907  0  1.04712  0
H  H5  1  0.72724751  0.35692053  0.50223110  1  0.13774  0  0.097826  0.111095  0  1.04688  0
H  H6  1  0.27896119  0.35649964  0.49944027  1  0.125539  0  0.097636  0.110683  0  1.046463  0
H  H7  1  0.27486385  0.64175245  0.50106630  1  0.100427  0  0.097382  0.110134  0  1.047951  0
H  H8  1  0.82461435  0.77624957  0.00148767  1  0.141949  0  0.098755  0.111897  0  1.045014  0
H  H9  1  0.10746064  0.77310141  0.00115702  1  0.11663  0  0.097152  0.110764  0  1.047853  0
H  H10  1  0.10732984  0.22485241  0.99867198  1  0.123522  0  0.097433  0.111742  0  1.047663  0
H  H11  1  0.82447591  0.22915369  0.99865948  1  0.134235  0  0.098655  0.111472  0  1.045164  0
C  C12  1  0.99929866  0.50122650  0.56671466  1  1.606343  0  0.223784  0.639992  0  4.153805  0
C  C13  1  0.83179250  0.49945010  0.50058337  1  1.531159  0  0.225887  0.606045  0  4.135126  0
C  C14  1  0.99905135  0.50058392  0.43411241  1  1.66977  0  0.225352  0.642099  0  4.149887  0
C  C15  1  0.17026869  0.49893074  0.50028774  1  1.482812  0  0.226301  0.606347  0  4.135052  0
C  C16  1  0.04234663  0.50180885  0.93618112  1  1.642026  0  0.22397  0.642732  0  4.12755  0
C  C17  1  0.96790682  0.66759529  0.00182866  1  1.476917  0  0.223899  0.609302  0  4.118071  0
C  C18  1  0.04190342  0.49759261  0.06453933  1  1.571176  0  0.22343  0.641567  0  4.129379  0
C  C19  1  0.96775165  0.33403175  0.99870668  1  1.537574  0  0.224367  0.60911  0  4.117738  0
C  C20  1  0.68692203  0.58024914  0.49960339  1  0.025829  0  -0.081142  -0.125167  0  3.919425  0
C  C21  1  0.59447737  0.58193646  0.49984656  1  -0.041138  0  -0.007615  0.04649  0  4.008173  0
C  C22  1  0.54408678  0.66422203  0.49955347  1  -0.06745  0  -0.021  0.011135  0  3.945353  0
C  C23  1  0.68911583  0.41871248  0.50141294  1  -0.028893  0  -0.081667  -0.126416  0  3.922596  0
C  C24  1  0.59674671  0.41693204  0.50099616  1  0.044229  0  -0.007408  0.046684  0  4.009707  0
C  C25  1  0.54869000  0.33456455  0.50109121  1  -0.095387  0  -0.02101  0.012331  0  3.943739  0
C  C26  1  0.31529879  0.41841073  0.49987788  1  0.008238  0  -0.081405  -0.125448  0  3.920581  0
C  C27  1  0.40773572  0.41678183  0.50022984  1  0.033217  0  -0.007072  0.046883  0  4.008515  0
C  C28  1  0.45811456  0.33448632  0.50050609  1  0.004392  0  -0.020472  0.011371  0  3.945212  0
C  C29  1  0.31297739  0.57993887  0.50068283  1  0.029842  0  -0.081073  -0.124305  0  3.919577  0
C  C30  1  0.40537317  0.58178437  0.50037244  1  -0.035401  0  -0.007292  0.046485  0  4.007138  0
C  C31  1  0.45348820  0.66414852  0.50001192  1  -0.032942  0  -0.0205  0.01182  0  3.944372  0
C  C32  1  0.73339381  0.49948093  0.50055267  1  0.015621  0  -0.015107  -0.015843  0  3.99074  0
C  C33  1  0.54794782  0.49940781  0.50040483  1  0.014598  0  0.008761  0.017209  0  3.91269  0
C  C34  1  0.26871161  0.49910434  0.50028609  1  0.063613  0  -0.014833  -0.01663  0  3.989538  0
C  C35  1  0.45423557  0.49932810  0.50034648  1  -0.008231  0  0.007538  0.017194  0  3.911702  0
C  C36  1  0.03936118  0.50151941  0.10278074  1  0.142328  0  -0.022137  -0.207865  0  3.970292  0
C  C37  1  0.10269548  0.45890589  0.12346091  1  0.561824  0  0.102026  0.17791  0  4.069547  0
C  C38  1  0.09424035  0.45814892  0.15897055  1  0.59538  0  0.09436  0.133796  0  4.076626  0
C  C39  1  0.96837517  0.54471241  0.11925616  1  0.517974  0  0.10244  0.180378  0  4.065312  0
C  C40  1  0.96035900  0.54331656  0.15467439  1  0.539099  0  0.093521  0.132643  0  4.085024  0
C  C41  1  0.02280593  0.49985737  0.17523644  1  0.098567  0  -0.016831  -0.081352  0  4.079592  0
C  C42  1  0.01398158  0.50001564  0.21291791  1  0.186127  0  -0.018842  -0.08897  0  4.075242  0
C  C43  1  0.95428461  0.44479096  0.22980873  1  0.528355  0  0.096442  0.145628  0  4.071773  0
C  C44  1  0.06496883  0.55671174  0.23273767  1  0.527414  0  0.096814  0.145414  0  4.077948  0
C  C45  1  0.99675897  0.50012372  0.39571406  1  0.052513  0  -0.022646  -0.204344  0  3.97243  0
C  C46  1  0.95507049  0.56880747  0.37717742  1  0.590655  0  0.101094  0.176727  0  4.071175  0
C  C47  1  0.95404419  0.56860307  0.34155519  1  0.473845  0  0.093659  0.134243  0  4.079158  0
C  C48  1  0.03669698  0.43105383  0.37706105  1  0.597739  0  0.100529  0.176131  0  4.07292  0
C  C49  1  0.03552196  0.43131334  0.34146542  1  0.519986  0  0.093965  0.134991  0  4.076476  0
C  C50  1  0.99460230  0.50016662  0.32299076  1  0.112309  0  -0.018354  -0.084475  0  4.075558  0
C  C51  1  0.99835996  0.50158115  0.28516469  1  0.175625  0  -0.018659  -0.087907  0  4.070626  0
C  C52  1  0.05687278  0.55793457  0.26817237  1  0.570812  0  0.096633  0.144596  0  4.075147  0
C  C53  1  0.94705538  0.44511613  0.26532586  1  0.534508  0  0.096992  0.144502  0  4.074381  0
C  C54  1  0.03982445  0.49776373  0.89793948  1  0.051939  0  -0.021718  -0.206618  0  3.970619  0
C  C55  1  0.96981617  0.45468794  0.88167229  1  0.621661  0  0.101259  0.177865  0  4.065849  0
C  C56  1  0.96144496  0.45614898  0.84628012  1  0.516984  0  0.093917  0.134325  0  4.082419  0
C  C57  1  0.10186279  0.54041634  0.87711198  1  0.578506  0  0.102611  0.177151  0  4.070392  0
C  C58  1  0.09301913  0.54140172  0.84163114  1  0.526801  0  0.094561  0.136158  0  4.073965  0
C  C59  1  0.02257948  0.49970469  0.82555995  1  0.128524  0  -0.01784  -0.082642  0  4.077823  0
C  C60  1  0.01365604  0.49962319  0.78788750  1  0.118589  0  -0.018321  -0.088728  0  4.074124  0
C  C61  1  0.06590484  0.44271278  0.76795380  1  0.589518  0  0.09591  0.144171  0  4.078146  0
C  C62  1  0.95293754  0.55532876  0.77109826  1  0.506859  0  0.096972  0.144706  0  4.073336  0
C  C63  1  0.99692095  0.50125679  0.60511174  1  0.110624  0  -0.021931  -0.203443  0  3.974168  0
C  C64  1  0.03537058  0.56992156  0.62379958  1  0.498647  0  0.099826  0.174066  0  4.073305  0
C  C65  1  0.03431415  0.56922641  0.65939476  1  0.606234  0  0.094238  0.137173  0  4.076566  0
C  C66  1  0.95690425  0.43245671  0.62360966  1  0.514641  0  0.100519  0.175923  0  4.069254  0
C  C67  1  0.95590322  0.43226870  0.65923222  1  0.607301  0  0.093983  0.135486  0  4.080092  0
C  C68  1  0.99488900  0.50037321  0.67782748  1  0.133951  0  -0.019068  -0.087572  0  4.081845  0
C  C69  1  0.99849531  0.49865063  0.71564094  1  0.069767  0  -0.018647  -0.087819  0  4.071832  0
C  C70  1  0.94599288  0.55536470  0.73557955  1  0.61088  0  0.097804  0.146641  0  4.073007  0
C  C71  1  0.05797765  0.44173419  0.73252818  1  0.528584  0  0.096389  0.145337  0  4.074456  0
C  C72  1  0.88584392  0.81325482  0.00120073  1  -0.081648  0  -0.080074  -0.124668  0  3.918236  0
C  C73  1  0.88406976  0.90651867  0.00055120  1  0.012666  0  -0.007403  0.046074  0  4.006239  0
C  C74  1  0.80244529  0.95730987  0.00022201  1  -0.004093  0  -0.021244  0.01069  0  3.944783  0
C  C75  1  0.04615168  0.81157879  0.00102331  1  0.051805  0  -0.082042  -0.125099  0  3.923442  0
C  C76  1  0.04776597  0.90461442  0.00038138  1  -0.030174  0  -0.00771  0.045902  0  4.012363  0
C  C77  1  0.12947019  0.95306294  0.99993089  1  -0.023647  0  -0.021124  0.010676  0  3.947887  0
C  C78  1  0.04604199  0.18796875  0.99878911  1  -0.082814  0  -0.082348  -0.126888  0  3.922586  0
C  C79  1  0.04768777  0.09488930  0.99917530  1  0.060247  0  -0.007673  0.046533  0  4.012387  0
C  C80  1  0.12942871  0.04433670  0.99937929  1  -0.05959  0  -0.020693  0.011883  0  3.946949  0
C  C81  1  0.88573176  0.19054717  0.99879629  1  0.007433  0  -0.079637  -0.124357  0  3.916655  0
C  C82  1  0.88400057  0.09732176  0.99920951  1  0.027819  0  -0.007697  0.046035  0  4.006676  0
C  C83  1  0.80240550  0.04866480  0.99951553  1  -0.070431  0  -0.020529  0.011999  0  3.944395  0
C  C84  1  0.96611819  0.76669035  0.00142928  1  0.09365  0  -0.015496  -0.018872  0  3.994624  0
C  C85  1  0.96583654  0.95361626  0.00012451  1  -0.01955  0  0.007924  0.018079  0  3.911062  0
C  C86  1  0.96599533  0.23498362  0.99867433  1  -0.042559  0  -0.015483  -0.017118  0  3.991292  0
C  C87  1  0.96579518  0.04806302  0.99947853  1  0.054181  0  0.007899  0.016676  0  3.911574  0
Br  Br88  1  0.38823324  0.77272333  0.49998840  1  -0.030695  0  0.039754  -0.0375  0  1.458228  0
Br  Br89  1  0.60629819  0.77288349  0.49859656  1  -0.024283  0  0.040062  -0.037183  0  1.458512  0
Br  Br90  1  0.39591187  0.22582410  0.50016628  1  -0.032581  0  0.040148  -0.037152  0  1.458615  0
Br  Br91  1  0.61395278  0.22601105  0.50190840  1  -0.028755  0  0.040065  -0.037492  0  1.45793  0
Br  Br92  1  0.69466255  0.11434828  0.99895666  1  -0.025514  0  0.040564  -0.036701  0  1.458244  0
Br  Br93  1  0.69472545  0.89446533  0.00081447  1  -0.02187  0  0.04048  -0.036731  0  1.458533  0
Br  Br94  1  0.23709186  0.10731872  0.99891537  1  -0.022899  0  0.040583  -0.036523  0  1.457286  0
Br  Br95  1  0.23718523  0.88725696  0.00013458  1  -0.030241  0  0.040684  -0.036298  0  1.457942  0
O  O96  1  0.01578771  0.42683335  0.55252715  1  -1.12793  0  -0.309277  -0.544249  0  2.263768  0
O  O97  1  0.98485003  0.57561044  0.55192331  1  -1.141613  0  -0.308917  -0.542918  0  2.261488  0
O  O98  1  0.86935137  0.57400370  0.49520376  1  -1.145069  0  -0.309938  -0.539031  0  2.290935  0
O  O99  1  0.87125280  0.42484261  0.50596523  1  -1.147424  0  -0.310415  -0.538328  0  2.286246  0
O  O100  1  0.01364383  0.57503932  0.44820755  1  -1.135027  0  -0.309818  -0.543815  0  2.258158  0
O  O101  1  0.98636063  0.42631138  0.44899013  1  -1.135105  0  -0.309553  -0.545411  0  2.265228  0
O  O102  1  0.13277099  0.42415807  0.49556168  1  -1.145188  0  -0.310023  -0.537403  0  2.2845  0
O  O103  1  0.13064771  0.57359084  0.50503390  1  -1.145467  0  -0.309984  -0.539258  0  2.291196  0
O  O104  1  0.11780522  0.49861334  0.95109753  1  -1.117047  0  -0.309541  -0.516399  0  2.217422  0
O  O105  1  0.96818698  0.50855477  0.95086687  1  -1.161122  0  -0.305762  -0.566382  0  2.335768  0
O  O106  1  0.89278880  0.62786947  0.00197252  1  -1.127768  0  -0.313327  -0.518274  0  2.25031  0
O  O107  1  0.04281846  0.62857321  0.00192100  1  -1.177678  0  -0.309203  -0.564181  0  2.328951  0
O  O108  1  0.96778401  0.49299568  0.04993224  1  -1.168228  0  -0.305725  -0.565792  0  2.337883  0
O  O109  1  0.11743209  0.49874802  0.04953509  1  -1.100639  0  -0.309272  -0.515755  0  2.220744  0
O  O110  1  0.04264620  0.37106111  0.99876737  1  -1.170035  0  -0.309286  -0.564491  0  2.329196  0
O  O111  1  0.89261711  0.37575929  0.99877886  1  -1.128587  0  -0.313812  -0.518766  0  2.2488  0
F  F112  1  0.90671700  0.59060214  0.10145710  1  -0.612562  0  -0.084198  -0.095563  0  1.373674  0
F  F113  1  0.89111856  0.58597377  0.16938789  1  -0.615223  0  -0.089333  -0.103141  0  1.35103  0
F  F114  1  0.17178379  0.41476892  0.10956159  1  -0.609528  0  -0.083644  -0.096998  0  1.363676  0
F  F115  1  0.15605000  0.41501022  0.17787902  1  -0.6162  0  -0.08934  -0.102818  0  1.351058  0
F  F116  1  0.90324342  0.38946679  0.21158721  1  -0.621907  0  -0.087909  -0.101656  0  1.346582  0
F  F117  1  0.88945408  0.38978842  0.28066393  1  -0.614841  0  -0.087913  -0.101095  0  1.348044  0
F  F118  1  0.12287149  0.61161949  0.21735517  1  -0.611037  0  -0.087953  -0.101502  0  1.347988  0
F  F119  1  0.10775499  0.61350116  0.28635526  1  -0.61739  0  -0.087551  -0.101259  0  1.349863  0
F  F120  1  0.07674557  0.36447298  0.32451919  1  -0.616027  0  -0.089797  -0.104084  0  1.350941  0
F  F121  1  0.08012378  0.36397377  0.39303540  1  -0.612135  0  -0.086401  -0.099384  0  1.363272  0
F  F122  1  0.91278167  0.63604292  0.32476680  1  -0.615715  0  -0.090293  -0.103991  0  1.349915  0
F  F123  1  0.91294460  0.63600665  0.39337242  1  -0.610789  0  -0.086106  -0.099345  0  1.363404  0
F  F124  1  0.16993457  0.58438547  0.89085447  1  -0.60861  0  -0.084165  -0.097517  0  1.361692  0
F  F125  1  0.15346707  0.58465533  0.82254148  1  -0.615818  0  -0.089452  -0.103717  0  1.349374  0
F  F126  1  0.90953535  0.40885754  0.89970203  1  -0.612687  0  -0.083887  -0.095186  0  1.372332  0
F  F127  1  0.89318314  0.41356569  0.83177066  1  -0.616682  0  -0.089086  -0.103239  0  1.351341  0
F  F128  1  0.12496266  0.38741544  0.78320661  1  -0.614301  0  -0.087703  -0.101306  0  1.34964  0
F  F129  1  0.11000090  0.38588543  0.71423533  1  -0.608909  0  -0.08751  -0.101554  0  1.349713  0
F  F130  1  0.90063555  0.61082867  0.78942953  1  -0.619095  0  -0.088261  -0.101422  0  1.345941  0
F  F131  1  0.88752271  0.61131891  0.72034115  1  -0.61659  0  -0.088347  -0.101876  0  1.346468  0
F  F132  1  0.91619904  0.36479493  0.67598726  1  -0.616612  0  -0.090046  -0.103785  0  1.34953  0
F  F133  1  0.91635312  0.36553205  0.60739569  1  -0.610749  0  -0.086233  -0.099194  0  1.361004  0
F  F134  1  0.07421064  0.63563208  0.67636000  1  -0.615911  0  -0.089741  -0.104258  0  1.350739  0
F  F135  1  0.07730906  0.63697226  0.60785381  1  -0.612607  0  -0.086198  -0.098907  0  1.361517  0
