# generated using pymatgen
data_CuH7C8IN3
_symmetry_space_group_name_H-M   'P 1'
_cell_length_a   8.03279315
_cell_length_b   8.09640480
_cell_length_c   8.68292314
_cell_angle_alpha   114.28074878
_cell_angle_beta   101.11515995
_cell_angle_gamma   109.39190591
_symmetry_Int_Tables_number   1
_chemical_formula_structural   CuH7C8IN3
_chemical_formula_sum   'Cu2 H14 C16 I2 N6'
_cell_volume   448.52928495
_cell_formula_units_Z   2
loop_
 _symmetry_equiv_pos_site_id
 _symmetry_equiv_pos_as_xyz
  1  'x, y, z'
loop_
 _atom_site_type_symbol
 _atom_site_label
 _atom_site_symmetry_multiplicity
 _atom_site_fract_x
 _atom_site_fract_y
 _atom_site_fract_z
 _atom_site_occupancy
 _atom_site_hle17_bader_spin_density
 _atom_site_hle17_ddec_charge
 _atom_site_hle17_ddec_spin_density
 _atom_site_hle17_ddec_sum_bond_order
 _atom_site_hle17_magmom
 _atom_site_hse06_10hf_bader_spin_density
 _atom_site_hse06_10hf_ddec_charge
 _atom_site_hse06_10hf_ddec_spin_density
 _atom_site_hse06_10hf_ddec_sum_bond_order
 _atom_site_hse06_10hf_magmom
 _atom_site_hse06_bader_spin_density
 _atom_site_hse06_ddec_charge
 _atom_site_hse06_ddec_spin_density
 _atom_site_hse06_ddec_sum_bond_order
 _atom_site_hse06_magmom
 _atom_site_pbe_bader_spin_density
 _atom_site_pbe_cm5_charge
 _atom_site_pbe_ddec_charge
 _atom_site_pbe_ddec_spin_density
 _atom_site_pbe_ddec_sum_bond_order
 _atom_site_pbe_magmom
Cu  Cu0  1  0.72359223  0.59456796  0.96082807  1  0  0.380424  0  1.958425  0  0  0.275268  0  2.424645  0  0  0.278153  0  2.382456  0  0  0.39011  0.277154  0  2.450137  0
Cu  Cu1  1  0.27640573  0.40542929  0.03917339  1  0  0.380452  0  1.958444  0  0  0.275325  0  2.424655  0  0  0.278237  0  2.382485  0  0  0.390109  0.277201  0  2.450132  0
H  H2  1  0.21253664  0.29774263  0.48330427  1  0  0.272995  0  0.951134  0  0  0.256204  0  1.020389  0  0  0.26378  0  1.015039  0  0  0.278828  0.250969  0  1.023943  0
H  H3  1  0.78746016  0.70225773  0.51669358  1  0  0.272984  0  0.951109  0  0  0.25618  0  1.020384  0  0  0.263757  0  1.015031  0  0  0.278811  0.250948  0  1.023927  0
H  H4  1  0.24581069  0.08825372  0.61686096  1  0  0.101777  0  0.961698  0  0  0.109063  0  1.030029  0  0  0.112585  0  1.027239  0  0  0.099785  0.106311  0  1.032312  0
H  H5  1  0.75418671  0.91174510  0.38313756  1  0  0.101785  0  0.961681  0  0  0.109075  0  1.030007  0  0  0.112597  0  1.027215  0  0  0.099789  0.106322  0  1.032286  0
H  H6  1  0.40780400  0.89908216  0.69229589  1  0  0.103489  0  0.960135  0  0  0.111822  0  1.022404  0  0  0.114987  0  1.022392  0  0  0.099061  0.109495  0  1.022604  0
H  H7  1  0.59219469  0.10091969  0.30770519  1  0  0.103485  0  0.960136  0  0  0.111823  0  1.022396  0  0  0.11499  0  1.022384  0  0  0.099059  0.109494  0  1.022597  0
H  H8  1  0.41431538  0.60942569  0.43964958  1  0  0.066214  0  0.964703  0  0  0.069342  0  1.041752  0  0  0.073543  0  1.036726  0  0  0.096576  0.066206  0  1.045483  0
H  H9  1  0.58568709  0.39057615  0.56035450  1  0  0.066181  0  0.964784  0  0  0.06932  0  1.041812  0  0  0.07352  0  1.036788  0  0  0.096572  0.066178  0  1.045559  0
H  H10  1  0.71341939  0.99694483  0.01029516  1  0  0.095618  0  0.968868  0  0  0.10289  0  1.035111  0  0  0.105583  0  1.034036  0  0  0.102083  0.100961  0  1.035937  0
H  H11  1  0.28657541  0.00304790  0.98969936  1  0  0.095597  0  0.968921  0  0  0.102874  0  1.035155  0  0  0.105566  0  1.034078  0  0  0.102087  0.100942  0  1.035981  0
H  H12  1  0.98461116  0.37440378  0.31005137  1  0  0.104776  0  0.971054  0  0  0.113786  0  1.034143  0  0  0.115838  0  1.034173  0  0  0.1103  0.112335  0  1.034188  0
H  H13  1  0.01537981  0.62558893  0.68994358  1  0  0.104783  0  0.971056  0  0  0.113791  0  1.034123  0  0  0.115843  0  1.034152  0  0  0.110302  0.112341  0  1.034166  0
H  H14  1  0.11134329  0.68039722  0.04687371  1  0  0.07817  0  0.972002  0  0  0.08131  0  1.050258  0  0  0.085404  0  1.04522  0  0  0.104319  0.078163  0  1.054155  0
H  H15  1  0.88866440  0.31960777  0.95312565  1  0  0.078183  0  0.972026  0  0  0.081323  0  1.050274  0  0  0.085416  0  1.045235  0  0  0.104348  0.078177  0  1.054174  0
C  C16  1  0.24845979  0.95921789  0.50853731  1  0  -0.034674  0  3.670792  0  0  -0.063304  0  3.918117  0  0  -0.057306  0  3.933442  0  0  -0.074126  -0.067229  0  3.908209  0
C  C17  1  0.75153953  0.04078246  0.49146215  1  0  -0.03467  0  3.670791  0  0  -0.063319  0  3.918114  0  0  -0.057319  0  3.93344  0  0  -0.074123  -0.067244  0  3.908207  0
C  C18  1  0.34003988  0.85578660  0.55114899  1  0  -0.107363  0  3.762349  0  0  -0.116728  0  4.008898  0  0  -0.124158  0  4.030821  0  0  -0.089174  -0.112134  0  3.99464  0
C  C19  1  0.65996075  0.14421680  0.44885190  1  0  -0.107386  0  3.762412  0  0  -0.116753  0  4.008979  0  0  -0.124183  0  4.0309  0  0  -0.089182  -0.112154  0  3.994712  0
C  C20  1  0.34353455  0.69349407  0.41116330  1  0  0.100701  0  3.710447  0  0  0.069643  0  3.963466  0  0  0.078085  0  3.976219  0  0  0.024865  0.063482  0  3.956446  0
C  C21  1  0.65646866  0.30651239  0.58883925  1  0  0.100682  0  3.710527  0  0  0.06962  0  3.96356  0  0  0.078063  0  3.976314  0  0  0.02482  0.063459  0  3.956535  0
C  C22  1  0.05205604  0.98553661  0.26600005  1  0  0.300321  0  3.743508  0  0  0.27408  0  3.998715  0  0  0.286342  0  4.015772  0  0  0.206281  0.266356  0  3.987156  0
C  C23  1  0.94794206  0.01446077  0.73399228  1  0  0.300384  0  3.743534  0  0  0.274113  0  3.99877  0  0  0.286386  0  4.015818  0  0  0.206257  0.26638  0  3.987239  0
C  C24  1  0.84187111  0.03628371  0.11494475  1  0  0.005984  0  3.727684  0  0  -0.025817  0  3.990885  0  0  -0.025771  0  4.010952  0  0  -0.009398  -0.02599  0  3.977888  0
C  C25  1  0.15812683  0.96371051  0.88505438  1  0  0.006115  0  3.727624  0  0  -0.025668  0  3.990801  0  0  -0.025617  0  4.010869  0  0  -0.009367  -0.025843  0  3.9778  0
C  C26  1  0.97483900  0.22394223  0.26324968  1  0  0.003704  0  3.699911  0  0  -0.035192  0  3.968606  0  0  -0.033212  0  3.986995  0  0  0.000403  -0.036654  0  3.956506  0
C  C27  1  0.02515582  0.77605353  0.73674717  1  0  0.00364  0  3.699889  0  0  -0.03525  0  3.96859  0  0  -0.033271  0  3.986977  0  0  0.000422  -0.036705  0  3.956479  0
C  C28  1  0.15770876  0.89189121  0.32371755  1  0  -0.046129  0  3.804567  0  0  -0.025361  0  4.040715  0  0  -0.03085  0  4.060857  0  0  -0.008699  -0.022568  0  4.028051  0
C  C29  1  0.84229573  0.10811225  0.67628063  1  0  -0.046148  0  3.804632  0  0  -0.025322  0  4.040711  0  0  -0.030813  0  4.060844  0  0  -0.008685  -0.02254  0  4.02808  0
C  C30  1  0.17177499  0.72995155  0.19111034  1  0  0.079785  0  3.671492  0  0  0.041758  0  3.924125  0  0  0.051453  0  3.933329  0  0  0.034432  0.035056  0  3.918921  0
C  C31  1  0.82823201  0.27005188  0.80889059  1  0  0.079731  0  3.671505  0  0  0.041684  0  3.924149  0  0  0.051375  0  3.933372  0  0  0.034382  0.034984  0  3.918952  0
I  I32  1  0.37160752  0.56410171  0.81904886  1  0  -0.526594  0  1.276474  0  0  -0.470881  0  1.669356  0  0  -0.48679  0  1.636271  0  0  -0.225866  -0.45888  0  1.690185  0
I  I33  1  0.62839240  0.43589409  0.18094779  1  0  -0.52659  0  1.276458  0  0  -0.470873  0  1.669359  0  0  -0.486784  0  1.636273  0  0  -0.225873  -0.458866  0  1.690171  0
N  N34  1  0.88962223  0.88837052  0.11778731  1  0  -0.382012  0  3.368418  0  0  -0.311972  0  3.672517  0  0  -0.324887  0  3.680023  0  0  -0.387903  -0.304134  0  3.667215  0
N  N35  1  0.11038155  0.11163136  0.88221357  1  0  -0.382118  0  3.368419  0  0  -0.31213  0  3.672622  0  0  -0.32506  0  3.680145  0  0  -0.387935  -0.304285  0  3.667323  0
N  N36  1  0.10514869  0.18943037  0.35619647  1  0  -0.313584  0  3.465477  0  0  -0.250774  0  3.689956  0  0  -0.267214  0  3.706393  0  0  -0.38111  -0.239758  0  3.678666  0
N  N37  1  0.89484876  0.81057151  0.64380210  1  0  -0.313585  0  3.46544  0  0  -0.250749  0  3.68992  0  0  -0.267193  0  3.706358  0  0  -0.381102  -0.239733  0  3.678628  0
N  N38  1  0.26333391  0.63213436  0.23257181  1  0  -0.283612  0  3.420856  0  0  -0.205151  0  3.710734  0  0  -0.215589  0  3.717082  0  0  -0.370747  -0.199146  0  3.706462  0
N  N39  1  0.73667116  0.36787057  0.76743165  1  0  -0.283495  0  3.420839  0  0  -0.205053  0  3.710729  0  0  -0.215487  0  3.717063  0  0  -0.370713  -0.19905  0  3.706465  0
