# generated using pymatgen
data_Co3H32C52(NO3)4
_symmetry_space_group_name_H-M   'P 1'
_cell_length_a   10.28084961
_cell_length_b   10.85895581
_cell_length_c   14.07711385
_cell_angle_alpha   101.02786065
_cell_angle_beta   107.76444445
_cell_angle_gamma   105.26491925
_symmetry_Int_Tables_number   1
_chemical_formula_structural   Co3H32C52(NO3)4
_chemical_formula_sum   'Co3 H32 C52 N4 O12'
_cell_volume   1379.28071766
_cell_formula_units_Z   1
loop_
 _symmetry_equiv_pos_site_id
 _symmetry_equiv_pos_as_xyz
  1  'x, y, z'
loop_
 _atom_site_type_symbol
 _atom_site_label
 _atom_site_symmetry_multiplicity
 _atom_site_fract_x
 _atom_site_fract_y
 _atom_site_fract_z
 _atom_site_occupancy
 _atom_site_pbe_bader_charge
 _atom_site_pbe_bader_spin_density
 _atom_site_pbe_cm5_charge
 _atom_site_pbe_ddec_charge
 _atom_site_pbe_ddec_spin_density
 _atom_site_pbe_ddec_sum_bond_order
 _atom_site_pbe_magmom
Co  Co0  1  0.49999498  0.00000113  0.00000018  1  1.307599  2.618281  0.633941  0.991121  2.864455  2.314028  2.602
Co  Co1  1  0.70650648  0.85254300  0.04438766  1  1.222611  2.552938  0.675426  0.842183  2.755561  2.642129  2.502
Co  Co2  1  0.29349209  0.14745991  0.95561428  1  1.222598  2.552919  0.675459  0.842217  2.755529  2.642269  2.502
H  H3  1  0.31517429  0.49230275  0.72145546  1  0.070095  0.000133  0.105781  0.105484  6e-06  0.999859  0.0
H  H4  1  0.68483756  0.50769996  0.27855357  1  0.069784  0.000133  0.105824  0.105515  6e-06  0.999833  0.0
H  H5  1  0.22039485  0.43429129  0.52737728  1  0.059496  9.6e-05  0.100703  0.108717  2.8e-05  1.017579  0.0
H  H6  1  0.77961159  0.56569746  0.47262698  1  0.059412  9.6e-05  0.100719  0.108735  2.8e-05  1.017646  0.0
H  H7  1  0.98192912  0.86900419  0.01943754  1  0.100976  0.002243  0.12316  0.100065  0.000709  0.996306  0.002
H  H8  1  0.01807669  0.13100169  0.98056359  1  0.100868  0.002243  0.123111  0.100014  0.000709  0.99622  0.002
H  H9  1  0.55498856  0.89283015  0.74532472  1  0.120728  0.000328  0.105536  0.114765  1.9e-05  1.004121  0.0
H  H10  1  0.44501172  0.10716680  0.25467097  1  0.120705  0.000328  0.105512  0.114731  1.9e-05  1.004092  0.0
H  H11  1  0.12363946  0.16740789  0.20458405  1  0.108999  0.000371  0.107871  0.111728  8.7e-05  0.997331  0.0
H  H12  1  0.87634925  0.83258817  0.79540972  1  0.10899  0.000371  0.107871  0.11173  8.7e-05  0.99726  0.0
H  H13  1  0.80477707  0.34382363  0.23433338  1  0.093342  0.000275  0.103053  0.105666  5.9e-05  1.060736  0.0
H  H14  1  0.19522705  0.65618333  0.76566330  1  0.093324  0.000275  0.103057  0.105672  5.9e-05  1.060729  0.0
H  H15  1  0.46918138  0.83615793  0.55221060  1  0.042494  -2.3e-05  0.101299  0.111793  -3.9e-05  1.014525  0.0
H  H16  1  0.53081672  0.16383605  0.44778345  1  0.042484  -2.3e-05  0.101279  0.111781  -3.9e-05  1.014529  0.0
H  H17  1  0.32255813  0.37762367  0.32780248  1  0.095951  0.000157  0.104652  0.115623  6.5e-05  1.014755  0.0
H  H18  1  0.67744051  0.62236623  0.67219530  1  0.09593  0.000157  0.104675  0.115638  6.5e-05  1.014746  0.0
H  H19  1  0.12087697  0.71887780  0.99971152  1  0.095669  0.000847  0.113146  0.120817  0.000322  1.017084  0.0
H  H20  1  0.87912845  0.28112708  0.00028937  1  0.095733  0.000847  0.113184  0.120871  0.000322  1.017045  0.0
H  H21  1  0.27129016  0.83929466  0.18111293  1  0.092941  0.000199  0.104332  0.104801  -2e-05  1.015878  0.0
H  H22  1  0.72870559  0.16071116  0.81889810  1  0.092945  0.000199  0.104316  0.10475  -2e-05  1.015976  0.0
H  H23  1  0.16533395  0.72872390  0.29463714  1  0.073649  0.000136  0.106971  0.116972  5.4e-05  0.992481  0.0
H  H24  1  0.83466472  0.27127887  0.70537475  1  0.07362  0.000136  0.106928  0.116904  5.4e-05  0.992452  0.0
H  H25  1  0.55402671  0.63752485  0.41987463  1  0.088416  0.000138  0.102344  0.109398  6.9e-05  1.026167  0.0
H  H26  1  0.44596892  0.36246016  0.58011463  1  0.087659  0.000138  0.102354  0.109381  6.9e-05  1.026179  0.0
H  H27  1  0.65534926  0.74136059  0.30145397  1  0.086765  0.000412  0.107646  0.114287  0.000101  0.995345  0.0
H  H28  1  0.34463992  0.25863149  0.69853643  1  0.086336  0.000412  0.107625  0.114258  0.000101  0.995329  0.0
H  H29  1  0.00272176  0.55162820  0.36373244  1  0.062514  0.000124  0.107686  0.115952  5.1e-05  0.990659  0.0
H  H30  1  0.99728327  0.44837569  0.63626749  1  0.062461  0.000124  0.107668  0.115934  5.1e-05  0.99067  0.0
H  H31  1  0.77127234  0.40576140  0.01586696  1  0.105701  0.000854  0.114601  0.130369  0.000339  1.001346  0.0
H  H32  1  0.22873472  0.59424249  0.98413199  1  0.105257  0.000855  0.114612  0.130381  0.000339  1.001355  0.0
H  H33  1  0.64727455  0.56779945  0.03296255  1  0.142396  0.002316  0.128194  0.112152  0.000883  0.990559  0.002
H  H34  1  0.35273507  0.43220035  0.96703987  1  0.142318  0.002317  0.128152  0.112153  0.000884  0.990519  0.002
C  C35  1  0.44060773  0.69597851  0.74585496  1  -0.017098  0.003391  -0.036656  -0.078766  0.001623  4.017847  0.002
C  C36  1  0.55939691  0.30402440  0.25414402  1  -0.017282  0.003392  -0.036704  -0.078726  0.001623  4.017804  0.002
C  C37  1  0.83192295  0.12182574  0.13641424  1  1.505929  0.000957  0.217991  0.580665  0.000519  4.164033  -0.001
C  C38  1  0.16807165  0.87818028  0.86358308  1  1.506003  0.000957  0.217978  0.580657  0.000519  4.16442  -0.001
C  C39  1  0.52320571  0.84447063  0.15685103  1  1.537718  -0.003365  0.221012  0.585949  -0.004131  4.165818  -0.003
C  C40  1  0.47678539  0.15553133  0.84315128  1  1.537449  -0.003366  0.221093  0.586053  -0.004132  4.165774  -0.003
C  C41  1  0.95237584  0.24422822  0.21201046  1  0.01896  0.008606  -0.019324  -0.044237  0.004577  3.980514  0.007
C  C42  1  0.04762206  0.75577576  0.78798725  1  0.018854  0.008607  -0.019294  -0.044211  0.004577  3.98043  0.007
C  C43  1  0.34683799  0.56681489  0.68303086  1  0.001635  0.002866  -0.083573  -0.072651  0.001411  4.023081  0.002
C  C44  1  0.65317151  0.43318188  0.31697318  1  0.001621  0.002866  -0.08365  -0.072752  0.001411  4.023115  0.002
C  C45  1  0.46831608  0.79470353  0.23362244  1  -0.024493  0.010011  -0.018497  -0.042501  0.005205  3.973171  0.008
C  C46  1  0.53167705  0.20529842  0.76637960  1  -0.02447  0.010012  -0.018603  -0.042591  0.005206  3.973185  0.008
C  C47  1  0.35375494  0.67644687  0.36329575  1  0.275134  -0.002361  0.095368  0.186357  -0.002698  4.029952  -0.002
C  C48  1  0.64624246  0.32354501  0.63670491  1  0.275124  -0.002361  0.095442  0.186585  -0.002698  4.029776  -0.002
C  C49  1  0.33900238  0.63084847  0.52589496  1  0.410664  0.002091  0.10676  0.214072  0.001012  4.051394  0.001
C  C50  1  0.66099742  0.36914440  0.47410496  1  0.410766  0.002092  0.106672  0.213866  0.001012  4.051452  0.001
C  C51  1  0.29495572  0.53435727  0.57508561  1  -0.100308  0.001627  -0.111523  -0.211842  0.000823  4.012749  0.001
C  C52  1  0.70505199  0.46563751  0.42491774  1  -0.099853  0.001627  -0.111517  -0.211794  0.000823  4.012778  0.001
C  C53  1  0.49165602  0.72792112  0.86056853  1  1.488842  0.00636  0.200856  0.56547  0.004901  4.193454  0.003
C  C54  1  0.50834469  0.27208485  0.13942938  1  1.489014  0.006363  0.200892  0.565464  0.004902  4.193384  0.003
C  C55  1  0.93961595  0.76511509  0.01782501  1  0.469961  -0.002563  0.04489  0.087446  -0.003087  3.945777  -0.001
C  C56  1  0.06038720  0.23489180  0.98217713  1  0.469982  -0.002562  0.044958  0.087597  -0.003086  3.945485  -0.001
C  C57  1  0.48363317  0.79206122  0.69688497  1  0.018336  0.002451  -0.082874  -0.058006  0.001184  3.975117  0.002
C  C58  1  0.51636891  0.20793770  0.30311284  1  0.01851  0.00245  -0.08288  -0.058042  0.001184  3.974901  0.002
C  C59  1  0.17330952  0.47650229  0.35227631  1  0.396127  -0.00062  0.094865  0.184055  -0.000755  4.028082  -0.001
C  C60  1  0.82668978  0.52349462  0.64772272  1  0.396002  -0.00062  0.094784  0.183877  -0.000755  4.028136  -0.001
C  C61  1  0.09819854  0.25244490  0.23887674  1  -0.116378  0.000747  -0.080402  -0.077705  7.4e-05  3.975684  0.001
C  C62  1  0.90179626  0.74755113  0.76111621  1  -0.116129  0.000747  -0.080447  -0.077752  7.5e-05  3.975766  0.001
C  C63  1  0.91828837  0.35208521  0.25669371  1  0.03818  0.000513  -0.080882  -0.070505  -4.3e-05  3.960303  0.0
C  C64  1  0.08171363  0.64791868  0.74330770  1  0.038247  0.000513  -0.08087  -0.070524  -4.3e-05  3.960205  0.0
C  C65  1  0.43537029  0.76047178  0.58902272  1  -0.063179  -0.000495  -0.109452  -0.206885  -0.000612  3.999483  0.0
C  C66  1  0.56462493  0.23952518  0.41097472  1  -0.063362  -0.000495  -0.109369  -0.206751  -0.000612  3.999427  0.0
C  C67  1  0.20869989  0.36904871  0.30802556  1  -0.044797  0.000679  -0.088273  -0.160861  0.000285  3.960159  0.001
C  C68  1  0.79129687  0.63094419  0.69197442  1  -0.045012  0.000679  -0.088304  -0.160824  0.000285  3.960294  0.001
C  C69  1  0.95999855  0.54632383  0.00543603  1  -0.008464  -0.008184  0.013018  0.099166  -0.009331  3.97258  -0.005
C  C70  1  0.04000864  0.45368307  0.99456342  1  -0.053158  -0.008284  0.013025  0.099164  -0.00933  3.972599  -0.005
C  C71  1  0.01650771  0.67974515  0.00676219  1  0.002932  0.002282  -0.076836  -0.16355  0.0006  3.949632  0.003
C  C72  1  0.98349441  0.32026178  0.99323760  1  0.003053  0.002281  -0.076828  -0.163606  0.0006  3.949623  0.003
C  C73  1  0.33183815  0.79433875  0.23339877  1  -0.037822  -0.000941  -0.082463  -0.078093  -0.001403  3.986551  0.0
C  C74  1  0.66815603  0.20566312  0.76660846  1  -0.037928  -0.000941  -0.082426  -0.078025  -0.001403  3.986563  0.0
C  C75  1  0.27372685  0.73401583  0.29706458  1  0.002903  0.00142  -0.091165  -0.169425  0.000625  3.984454  0.001
C  C76  1  0.72626885  0.26598201  0.70294234  1  0.003106  0.001421  -0.091164  -0.169417  0.000625  3.984302  0.001
C  C77  1  0.49378913  0.68356978  0.36835340  1  -0.004376  0.00131  -0.090111  -0.164717  0.000583  3.985606  0.001
C  C78  1  0.50620464  0.31641820  0.63164019  1  -0.003436  0.00131  -0.090092  -0.164826  0.000583  3.985639  0.001
C  C79  1  0.54988011  0.74095717  0.30279430  1  -0.033941  -0.000834  -0.07811  -0.070785  -0.001339  3.962863  0.0
C  C80  1  0.45011191  0.25903683  0.69720128  1  -0.033811  -0.000834  -0.078095  -0.070686  -0.00134  3.962619  0.0
C  C81  1  0.02806885  0.46732482  0.32790440  1  -0.107363  0.000675  -0.088517  -0.166293  0.000293  3.986379  0.001
C  C82  1  0.97193298  0.53267612  0.67209297  1  -0.107287  0.000675  -0.088465  -0.166179  0.000293  3.986157  0.001
C  C83  1  0.82406185  0.50647917  0.01530934  1  -0.016049  0.001753  -0.073176  -0.155559  -9.5e-05  3.908505  0.002
C  C84  1  0.17594725  0.49352468  0.98469147  1  -0.015701  0.001753  -0.073205  -0.155566  -9.5e-05  3.908459  0.002
C  C85  1  0.75264019  0.59700222  0.02563603  1  0.475815  -0.00227  0.052277  0.101053  -0.003001  3.913963  0.0
C  C86  1  0.24736792  0.40300160  0.97436740  1  0.475951  -0.002269  0.052291  0.101059  -0.003001  3.913938  0.0
N  N87  1  0.28674822  0.59975741  0.41828186  1  -1.258572  0.003044  -0.263961  -0.181746  0.001537  3.693223  0.003
N  N88  1  0.71325655  0.40023238  0.58172007  1  -1.258448  0.003045  -0.263842  -0.181624  0.001537  3.692987  0.003
N  N89  1  0.80918148  0.72516965  0.02716615  1  -1.243179  0.065996  -0.343154  -0.250412  0.034469  3.641384  0.045
N  N90  1  0.19082399  0.27483518  0.97283900  1  -1.243351  0.065998  -0.343177  -0.250512  0.034471  3.641457  0.045
O  O91  1  0.57767179  0.85408173  0.91348379  1  -1.129243  0.149464  -0.334949  -0.599626  0.078426  2.487084  0.12
O  O92  1  0.42232993  0.14592423  0.08651433  1  -1.129119  0.149468  -0.334925  -0.599577  0.078428  2.487195  0.12
O  O93  1  0.86760230  0.02331200  0.09952665  1  -1.142251  0.09809  -0.319071  -0.546554  0.049789  2.352467  0.078
O  O94  1  0.13239561  0.97669198  0.90047106  1  -1.142336  0.098085  -0.3191  -0.546591  0.049787  2.352785  0.078
O  O95  1  0.70211066  0.12069515  0.11362253  1  -1.14623  0.07216  -0.295705  -0.543333  0.038189  2.370356  0.061
O  O96  1  0.29788320  0.87930884  0.88637644  1  -1.146117  0.072167  -0.295689  -0.543313  0.038192  2.370553  0.061
O  O97  1  0.44805400  0.89336158  0.09529159  1  -1.151733  0.070406  -0.304411  -0.553919  0.037089  2.393941  0.06
O  O98  1  0.55193618  0.10663537  0.90470974  1  -1.151622  0.070417  -0.304386  -0.553993  0.037095  2.394023  0.06
O  O99  1  0.64408386  0.83133526  0.15728208  1  -1.130549  0.102638  -0.318444  -0.540305  0.052517  2.390976  0.08
O  O100  1  0.35591002  0.16866871  0.84271901  1  -1.130509  0.102641  -0.318492  -0.540357  0.052518  2.391044  0.08
O  O101  1  0.46299570  0.64288952  0.90635312  1  -1.161233  0.041456  -0.304885  -0.532285  0.020252  2.118261  0.034
O  O102  1  0.53700564  0.35711542  0.09364547  1  -1.161394  0.041453  -0.30492  -0.532309  0.020253  2.118236  0.034
