# generated using pymatgen
data_MgH7C7NO6
_symmetry_space_group_name_H-M   'P 1'
_cell_length_a   7.21882018
_cell_length_b   7.85420470
_cell_length_c   7.85425748
_cell_angle_alpha   99.83279226
_cell_angle_beta   100.84512987
_cell_angle_gamma   100.84414207
_symmetry_Int_Tables_number   1
_chemical_formula_structural   MgH7C7NO6
_chemical_formula_sum   'Mg2 H14 C14 N2 O12'
_cell_volume   419.63072713
_cell_formula_units_Z   2
loop_
 _symmetry_equiv_pos_site_id
 _symmetry_equiv_pos_as_xyz
  1  'x, y, z'
loop_
 _atom_site_type_symbol
 _atom_site_label
 _atom_site_symmetry_multiplicity
 _atom_site_fract_x
 _atom_site_fract_y
 _atom_site_fract_z
 _atom_site_occupancy
 _atom_site_hle17_bader_spin_density
 _atom_site_hle17_ddec_charge
 _atom_site_hle17_ddec_spin_density
 _atom_site_hle17_ddec_sum_bond_order
 _atom_site_hle17_magmom
 _atom_site_hse06_10hf_bader_spin_density
 _atom_site_hse06_10hf_ddec_charge
 _atom_site_hse06_10hf_ddec_spin_density
 _atom_site_hse06_10hf_ddec_sum_bond_order
 _atom_site_hse06_10hf_magmom
 _atom_site_hse06_bader_spin_density
 _atom_site_hse06_ddec_charge
 _atom_site_hse06_ddec_spin_density
 _atom_site_hse06_ddec_sum_bond_order
 _atom_site_hse06_magmom
 _atom_site_pbe_bader_spin_density
 _atom_site_pbe_cm5_charge
 _atom_site_pbe_ddec_charge
 _atom_site_pbe_ddec_spin_density
 _atom_site_pbe_ddec_sum_bond_order
 _atom_site_pbe_magmom
Mg  Mg0  1  0.75000013  0.34675882  0.65323013  1  0  1.44961  0  1.125641  0  0  1.335569  0  1.377752  0  0  1.362545  0  1.339641  0  0  0.798225  1.316673  0  1.404143  0
Mg  Mg1  1  0.25000041  0.65324063  0.34676742  1  0  1.449601  0  1.125636  0  0  1.335612  0  1.377717  0  0  1.362586  0  1.33961  0  0  0.798244  1.316648  0  1.404177  0
H  H2  1  0.39639152  0.15717241  0.60965213  1  0  0.433948  0  0.870493  0  0  0.399262  0  0.94099  0  0  0.409916  0  0.925306  0  0  0.294529  0.391761  0  0.952015  0
H  H3  1  0.10360848  0.39035105  0.84282980  1  0  0.433928  0  0.870533  0  0  0.399236  0  0.941041  0  0  0.409891  0  0.925355  0  0  0.294537  0.391735  0  0.952067  0
H  H4  1  0.60360728  0.84282567  0.39034870  1  0  0.433989  0  0.870448  0  0  0.399269  0  0.940989  0  0  0.409923  0  0.925306  0  0  0.294515  0.391767  0  0.952017  0
H  H5  1  0.89638955  0.60964969  0.15717011  1  0  0.433908  0  0.870549  0  0  0.399211  0  0.941068  0  0  0.409866  0  0.925382  0  0  0.294524  0.391709  0  0.952095  0
H  H6  1  0.37853030  0.31920017  0.51452397  1  0  0.446973  0  0.846907  0  0  0.414294  0  0.911556  0  0  0.425446  0  0.895259  0  0  0.300616  0.406409  0  0.923079  0
H  H7  1  0.12146749  0.48547889  0.68080161  1  0  0.446953  0  0.846943  0  0  0.414262  0  0.911608  0  0  0.425415  0  0.89531  0  0  0.300606  0.406377  0  0.923132  0
H  H8  1  0.62146883  0.68079920  0.48547970  1  0  0.446977  0  0.84691  0  0  0.414279  0  0.911581  0  0  0.425432  0  0.895284  0  0  0.300608  0.406395  0  0.923105  0
H  H9  1  0.87853195  0.51452184  0.31919981  1  0  0.446939  0  0.846951  0  0  0.414215  0  0.911656  0  0  0.425368  0  0.895359  0  0  0.300599  0.406333  0  0.923174  0
H  H10  1  0.75000280  0.83266003  0.16733885  1  0  0.120922  0  0.946356  0  0  0.129976  0  1.009505  0  0  0.134221  0  1.004835  0  0  0.120472  0.126847  0  1.012851  0
H  H11  1  0.24999730  0.16734337  0.83266189  1  0  0.120919  0  0.946378  0  0  0.129973  0  1.009521  0  0  0.134218  0  1.004852  0  0  0.120457  0.126842  0  1.012869  0
H  H12  1  0.78762676  0.95305851  0.65779397  1  0  0.098531  0  0.959637  0  0  0.105908  0  1.024036  0  0  0.109754  0  1.019468  0  0  0.128804  0.103091  0  1.027314  0
H  H13  1  0.71237043  0.34219698  0.04692992  1  0  0.098458  0  0.959914  0  0  0.106084  0  1.024036  0  0  0.109937  0  1.019448  0  0  0.128842  0.103268  0  1.027302  0
H  H14  1  0.21237139  0.04693696  0.34220118  1  0  0.098491  0  0.959728  0  0  0.105993  0  1.023993  0  0  0.109843  0  1.019414  0  0  0.128819  0.103175  0  1.027269  0
H  H15  1  0.28763087  0.65779985  0.95306474  1  0  0.098489  0  0.959731  0  0  0.106025  0  1.023964  0  0  0.109875  0  1.019385  0  0  0.128831  0.103206  0  1.027238  0
C  C16  1  0.75000139  0.92335263  0.07664163  1  0  -0.008073  0  3.64878  0  0  -0.048874  0  3.895096  0  0  -0.041096  0  3.911402  0  0  -0.051234  -0.053382  0  3.883886  0
C  C17  1  0.24999947  0.07664814  0.92335749  1  0  -0.008075  0  3.648803  0  0  -0.048861  0  3.895092  0  0  -0.041081  0  3.911397  0  0  -0.05121  -0.05337  0  3.883885  0
C  C18  1  0.76080905  0.86577472  0.90114320  1  0  -0.122063  0  3.740491  0  0  -0.096079  0  3.985845  0  0  -0.110755  0  4.010451  0  0  -0.012577  -0.086991  0  3.96954  0
C  C19  1  0.73919567  0.09885229  0.13421621  1  0  -0.122225  0  3.740595  0  0  -0.096256  0  3.985974  0  0  -0.110932  0  4.010582  0  0  -0.012613  -0.087167  0  3.969667  0
C  C20  1  0.23919149  0.13422472  0.09885563  1  0  -0.122009  0  3.740436  0  0  -0.096022  0  3.985819  0  0  -0.110697  0  4.010426  0  0  -0.012575  -0.086934  0  3.969512  0
C  C21  1  0.26080692  0.90114982  0.86578218  1  0  -0.122381  0  3.740599  0  0  -0.096377  0  3.985975  0  0  -0.111054  0  4.01058  0  0  -0.012649  -0.087288  0  3.969668  0
C  C22  1  0.76707684  0.98875509  0.79169398  1  0  0.146923  0  3.646393  0  0  0.100981  0  3.905176  0  0  0.111706  0  3.91895  0  0  0.065166  0.094284  0  3.895757  0
C  C23  1  0.73291905  0.20830768  0.01124057  1  0  0.147065  0  3.646576  0  0  0.100935  0  3.905287  0  0  0.111659  0  3.919065  0  0  0.065152  0.094242  0  3.895865  0
C  C24  1  0.23292228  0.01124435  0.20830461  1  0  0.14693  0  3.646491  0  0  0.100891  0  3.905254  0  0  0.111616  0  3.91903  0  0  0.065165  0.094196  0  3.89583  0
C  C25  1  0.26708072  0.79169442  0.98875734  1  0  0.147101  0  3.646367  0  0  0.101015  0  3.905134  0  0  0.111739  0  3.91891  0  0  0.065176  0.094322  0  3.895709  0
C  C26  1  0.76575714  0.67716191  0.83191929  1  0  0.658498  0  3.920768  0  0  0.601607  0  4.220021  0  0  0.635844  0  4.213154  0  0  0.215457  0.578546  0  4.224016  0
C  C27  1  0.73424889  0.16808592  0.32282822  1  0  0.658323  0  3.921125  0  0  0.601475  0  4.220287  0  0  0.635708  0  4.213429  0  0  0.21543  0.57841  0  4.224281  0
C  C28  1  0.23424307  0.32283616  0.16808305  1  0  0.658407  0  3.920625  0  0  0.601499  0  4.219923  0  0  0.635733  0  4.213061  0  0  0.215436  0.578439  0  4.223911  0
C  C29  1  0.26575262  0.83191750  0.67717149  1  0  0.658535  0  3.920833  0  0  0.601662  0  4.220053  0  0  0.635897  0  4.213187  0  0  0.215483  0.578598  0  4.224044  0
N  N30  1  0.74999933  0.15634281  0.84365035  1  0  -0.376292  0  3.171226  0  0  -0.310541  0  3.436007  0  0  -0.325863  0  3.449196  0  0  -0.335603  -0.300547  0  3.426973  0
N  N31  1  0.24999947  0.84365529  0.15634794  1  0  -0.376277  0  3.171174  0  0  -0.310518  0  3.435966  0  0  -0.325838  0  3.449152  0  0  -0.335611  -0.300514  0  3.426931  0
O  O32  1  0.78904698  0.57485780  0.93871380  1  0  -0.650232  0  2.004403  0  0  -0.590425  0  2.231006  0  0  -0.615477  0  2.221046  0  0  -0.301577  -0.573099  0  2.237336  0
O  O33  1  0.71095242  0.06128390  0.42513653  1  0  -0.650232  0  2.004346  0  0  -0.590368  0  2.230849  0  0  -0.615418  0  2.220897  0  0  -0.301578  -0.573042  0  2.237192  0
O  O34  1  0.21095311  0.42514557  0.06128948  1  0  -0.650238  0  2.004324  0  0  -0.590404  0  2.23091  0  0  -0.615456  0  2.220955  0  0  -0.301593  -0.573069  0  2.237223  0
O  O35  1  0.28904811  0.93871554  0.57486230  1  0  -0.650255  0  2.004252  0  0  -0.590436  0  2.230816  0  0  -0.615488  0  2.220861  0  0  -0.301588  -0.573103  0  2.237148  0
O  O36  1  0.45749512  0.28343409  0.61505931  1  0  -0.922855  0  1.846039  0  0  -0.873702  0  2.039944  0  0  -0.891105  0  2.005525  0  0  -0.627525  -0.861406  0  2.063767  0
O  O37  1  0.04250723  0.38494034  0.71656544  1  0  -0.922816  0  1.8461  0  0  -0.873658  0  2.040024  0  0  -0.89106  0  2.005598  0  0  -0.627525  -0.861346  0  2.063815  0
O  O38  1  0.54250542  0.71656531  0.38494333  1  0  -0.922885  0  1.845979  0  0  -0.873706  0  2.039938  0  0  -0.891105  0  2.005512  0  0  -0.627508  -0.861386  0  2.063767  0
O  O39  1  0.95749363  0.61506041  0.28343495  1  0  -0.922768  0  1.84607  0  0  -0.873596  0  2.040049  0  0  -0.890999  0  2.005622  0  0  -0.627511  -0.861278  0  2.063869  0
O  O40  1  0.74471322  0.62091578  0.66481620  1  0  -0.682761  0  2.004807  0  0  -0.614907  0  2.226749  0  0  -0.640235  0  2.215966  0  0  -0.328829  -0.597397  0  2.233672  0
O  O41  1  0.75528861  0.33518258  0.37907323  1  0  -0.682616  0  2.00508  0  0  -0.614763  0  2.227002  0  0  -0.640089  0  2.216223  0  0  -0.328759  -0.597256  0  2.233924  0
O  O42  1  0.25528244  0.37908094  0.33518512  1  0  -0.682664  0  2.004676  0  0  -0.614861  0  2.226674  0  0  -0.640188  0  2.215894  0  0  -0.328821  -0.59734  0  2.233601  0
O  O43  1  0.24471257  0.66481951  0.62092619  1  0  -0.682699  0  2.004995  0  0  -0.614879  0  2.226958  0  0  -0.640205  0  2.216176  0  0  -0.328807  -0.597358  0  2.233887  0
