# generated using pymatgen
data_Cd3H26C12(NCl2)4
_symmetry_space_group_name_H-M   'P 1'
_cell_length_a   6.59338967
_cell_length_b   8.64883864
_cell_length_c   21.13293920
_cell_angle_alpha   90.00020955
_cell_angle_beta   89.99971773
_cell_angle_gamma   94.10773486
_symmetry_Int_Tables_number   1
_chemical_formula_structural   Cd3H26C12(NCl2)4
_chemical_formula_sum   'Cd6 H52 C24 N8 Cl16'
_cell_volume   1202.01352925
_cell_formula_units_Z   2
loop_
 _symmetry_equiv_pos_site_id
 _symmetry_equiv_pos_as_xyz
  1  'x, y, z'
loop_
 _atom_site_type_symbol
 _atom_site_label
 _atom_site_symmetry_multiplicity
 _atom_site_fract_x
 _atom_site_fract_y
 _atom_site_fract_z
 _atom_site_occupancy
 _atom_site_hle17_bader_spin_density
 _atom_site_hle17_ddec_charge
 _atom_site_hle17_ddec_spin_density
 _atom_site_hle17_ddec_sum_bond_order
 _atom_site_hle17_magmom
 _atom_site_hse06_10hf_bader_spin_density
 _atom_site_hse06_10hf_ddec_charge
 _atom_site_hse06_10hf_ddec_spin_density
 _atom_site_hse06_10hf_ddec_sum_bond_order
 _atom_site_hse06_10hf_magmom
 _atom_site_hse06_bader_spin_density
 _atom_site_hse06_ddec_charge
 _atom_site_hse06_ddec_spin_density
 _atom_site_hse06_ddec_sum_bond_order
 _atom_site_hse06_magmom
 _atom_site_pbe_bader_spin_density
 _atom_site_pbe_cm5_charge
 _atom_site_pbe_ddec_charge
 _atom_site_pbe_ddec_spin_density
 _atom_site_pbe_ddec_sum_bond_order
 _atom_site_pbe_magmom
Cd  Cd0  1  0.99678693  0.60203453  0.40619731  1  0  0.974086  0  1.909373  0  0  0.818071  0  2.360853  0  0  0.864607  0  2.321352  0  0  0.551293  0.785041  0  2.387805  0
Cd  Cd1  1  0.00321135  0.89796356  0.90619879  1  0  0.974079  0  1.909363  0  0  0.818087  0  2.360821  0  0  0.864624  0  2.321318  0  0  0.551306  0.78506  0  2.387766  0
Cd  Cd2  1  0.00321345  0.39796950  0.59380127  1  0  0.974052  0  1.909374  0  0  0.818059  0  2.36085  0  0  0.864598  0  2.321347  0  0  0.551278  0.785031  0  2.387792  0
Cd  Cd3  1  0.99678223  0.10203114  0.09380027  1  0  0.974035  0  1.90937  0  0  0.818008  0  2.360865  0  0  0.864546  0  2.321361  0  0  0.551263  0.784982  0  2.387805  0
Cd  Cd4  1  0.49999706  0.50000083  0.50000000  1  0  0.954263  0  2.016293  0  0  0.817907  0  2.472223  0  0  0.861753  0  2.432315  0  0  0.508843  0.7867  0  2.499641  0
Cd  Cd5  1  0.49999400  0.99999839  0.00000177  1  0  0.954246  0  2.01626  0  0  0.817908  0  2.472148  0  0  0.861753  0  2.432241  0  0  0.508845  0.786682  0  2.4996  0
H  H6  1  0.20698425  0.76999400  0.28475824  1  0  0.075707  0  0.952976  0  0  0.087801  0  1.02186  0  0  0.088828  0  1.021347  0  0  0.09938  0.086956  0  1.02238  0
H  H7  1  0.79302219  0.73000661  0.78475967  1  0  0.075693  0  0.953005  0  0  0.087805  0  1.021867  0  0  0.088832  0  1.021352  0  0  0.099388  0.086958  0  1.022387  0
H  H8  1  0.79301622  0.23001119  0.71523987  1  0  0.075705  0  0.952938  0  0  0.087772  0  1.021875  0  0  0.088798  0  1.021361  0  0  0.099382  0.086927  0  1.022392  0
H  H9  1  0.20697604  0.26998929  0.21524080  1  0  0.075649  0  0.952898  0  0  0.087755  0  1.02181  0  0  0.088782  0  1.021294  0  0  0.099367  0.086913  0  1.022326  0
H  H10  1  0.42363884  0.78022669  0.33533363  1  0  0.09466  0  0.928171  0  0  0.105355  0  0.99265  0  0  0.106516  0  0.992604  0  0  0.103625  0.104375  0  0.992899  0
H  H11  1  0.57636059  0.71977196  0.83533301  1  0  0.094644  0  0.92818  0  0  0.105339  0  0.992666  0  0  0.106499  0  0.992621  0  0  0.103618  0.104359  0  0.992911  0
H  H12  1  0.57636029  0.21978080  0.66466495  1  0  0.094572  0  0.928149  0  0  0.105315  0  0.992587  0  0  0.106473  0  0.992545  0  0  0.103605  0.104335  0  0.992836  0
H  H13  1  0.42363424  0.28021927  0.16466462  1  0  0.094573  0  0.928283  0  0  0.105286  0  0.992761  0  0  0.106446  0  0.992718  0  0  0.103597  0.10431  0  0.993008  0
H  H14  1  0.37382121  0.84864085  0.44834829  1  0  0.08439  0  0.98333  0  0  0.095515  0  1.050166  0  0  0.096402  0  1.050389  0  0  0.087064  0.094719  0  1.050216  0
H  H15  1  0.62617473  0.65135525  0.94835081  1  0  0.084337  0  0.983424  0  0  0.095453  0  1.050276  0  0  0.09634  0  1.050498  0  0  0.08703  0.094657  0  1.050321  0
H  H16  1  0.62618317  0.15135627  0.55164982  1  0  0.084393  0  0.983387  0  0  0.095516  0  1.050219  0  0  0.096403  0  1.050441  0  0  0.087054  0.094718  0  1.050268  0
H  H17  1  0.37382028  0.34863830  0.05164872  1  0  0.084347  0  0.983347  0  0  0.095533  0  1.050191  0  0  0.09642  0  1.050414  0  0  0.08706  0.094737  0  1.050235  0
H  H18  1  0.17245646  0.96945418  0.46361475  1  0  0.087986  0  0.922018  0  0  0.100008  0  0.986367  0  0  0.101171  0  0.98577  0  0  0.100497  0.099024  0  0.987028  0
H  H19  1  0.82753926  0.53054205  0.96361488  1  0  0.087995  0  0.922018  0  0  0.099984  0  0.986388  0  0  0.101147  0  0.985791  0  0  0.100495  0.099002  0  0.987048  0
H  H20  1  0.82754963  0.03054527  0.53638478  1  0  0.088004  0  0.922043  0  0  0.100029  0  0.986373  0  0  0.101191  0  0.985775  0  0  0.100523  0.099044  0  0.987032  0
H  H21  1  0.17245262  0.46945032  0.03638606  1  0  0.088025  0  0.922045  0  0  0.100076  0  0.986404  0  0  0.101238  0  0.985808  0  0  0.100546  0.099096  0  0.987059  0
H  H22  1  0.88297292  0.96110652  0.39361541  1  0  0.080076  0  0.96433  0  0  0.093259  0  1.029428  0  0  0.094577  0  1.028562  0  0  0.09347  0.092211  0  1.030175  0
H  H23  1  0.11702600  0.53889726  0.89361902  1  0  0.08011  0  0.964241  0  0  0.093249  0  1.029383  0  0  0.094571  0  1.028526  0  0  0.093487  0.092204  0  1.030124  0
H  H24  1  0.11702888  0.03889637  0.60638412  1  0  0.080053  0  0.964371  0  0  0.093237  0  1.029465  0  0  0.094567  0  1.028608  0  0  0.093466  0.092185  0  1.030213  0
H  H25  1  0.88297429  0.46110561  0.10638666  1  0  0.080105  0  0.964347  0  0  0.093236  0  1.029489  0  0  0.094554  0  1.028626  0  0  0.093474  0.092195  0  1.030227  0
H  H26  1  0.92967237  0.92247985  0.31219932  1  0  0.089434  0  0.950581  0  0  0.100211  0  1.017641  0  0  0.101619  0  1.017089  0  0  0.095468  0.099108  0  1.018153  0
H  H27  1  0.07033250  0.57752561  0.81220069  1  0  0.089427  0  0.950618  0  0  0.100236  0  1.017647  0  0  0.101653  0  1.017093  0  0  0.09546  0.099134  0  1.018152  0
H  H28  1  0.07032693  0.07752996  0.68780163  1  0  0.08935  0  0.950694  0  0  0.100179  0  1.017702  0  0  0.101602  0  1.01715  0  0  0.095437  0.099073  0  1.018214  0
H  H29  1  0.92967198  0.42247266  0.18780168  1  0  0.089401  0  0.950579  0  0  0.100185  0  1.017624  0  0  0.101593  0  1.017073  0  0  0.095452  0.099084  0  1.018135  0
H  H30  1  0.41748930  0.17074843  0.43449308  1  0  0.090218  0  0.983323  0  0  0.098664  0  1.05595  0  0  0.100128  0  1.055208  0  0  0.093634  0.097483  0  1.056639  0
H  H31  1  0.58250262  0.32925274  0.93449214  1  0  0.090332  0  0.983194  0  0  0.09876  0  1.055847  0  0  0.100231  0  1.055114  0  0  0.093674  0.097584  0  1.056533  0
H  H32  1  0.58251545  0.82925332  0.56550787  1  0  0.090272  0  0.983198  0  0  0.098702  0  1.055846  0  0  0.100171  0  1.055109  0  0  0.093651  0.097527  0  1.056529  0
H  H33  1  0.41748829  0.67074657  0.06550597  1  0  0.090208  0  0.983192  0  0  0.098668  0  1.055809  0  0  0.100131  0  1.055064  0  0  0.093658  0.097497  0  1.056493  0
H  H34  1  0.56791636  0.04166027  0.39192473  1  0  0.089022  0  0.918864  0  0  0.10484  0  0.976631  0  0  0.10559  0  0.976668  0  0  0.11094  0.10419  0  0.976784  0
H  H35  1  0.43208361  0.45833830  0.89192279  1  0  0.088998  0  0.918842  0  0  0.104818  0  0.976617  0  0  0.105567  0  0.976655  0  0  0.110918  0.104171  0  0.976769  0
H  H36  1  0.43208509  0.95833798  0.60807338  1  0  0.089041  0  0.918831  0  0  0.104857  0  0.976601  0  0  0.105608  0  0.976641  0  0  0.110957  0.104212  0  0.976756  0
H  H37  1  0.56791596  0.54165530  0.10807248  1  0  0.089039  0  0.918944  0  0  0.104853  0  0.976693  0  0  0.105603  0  0.97673  0  0  0.110961  0.104212  0  0.976846  0
H  H38  1  0.51928321  0.01430501  0.27719910  1  0  0.10276  0  0.931393  0  0  0.115841  0  0.991042  0  0  0.11764  0  0.98994  0  0  0.105363  0.114413  0  0.992027  0
H  H39  1  0.48072892  0.48569039  0.77719666  1  0  0.102742  0  0.931322  0  0  0.115829  0  0.991028  0  0  0.117626  0  0.989928  0  0  0.105366  0.114402  0  0.992006  0
H  H40  1  0.48071413  0.98569899  0.72280043  1  0  0.102683  0  0.93141  0  0  0.115781  0  0.991085  0  0  0.117579  0  0.989987  0  0  0.10535  0.114353  0  0.992062  0
H  H41  1  0.51928546  0.51429871  0.22279956  1  0  0.102695  0  0.931375  0  0  0.115778  0  0.991042  0  0  0.117576  0  0.989945  0  0  0.105375  0.114355  0  0.99203  0
H  H42  1  0.26477036  0.02833818  0.24971662  1  0  0.091206  0  0.952605  0  0  0.099368  0  1.02492  0  0  0.10071  0  1.024522  0  0  0.10256  0.098238  0  1.025458  0
H  H43  1  0.73524415  0.47166280  0.74971802  1  0  0.091102  0  0.952742  0  0  0.099312  0  1.025044  0  0  0.100662  0  1.024626  0  0  0.102564  0.098183  0  1.025577  0
H  H44  1  0.73522877  0.97166931  0.75028244  1  0  0.091167  0  0.952598  0  0  0.099314  0  1.024942  0  0  0.100651  0  1.024555  0  0  0.102559  0.098184  0  1.025474  0
H  H45  1  0.26476935  0.52833440  0.25028198  1  0  0.091157  0  0.952647  0  0  0.099337  0  1.024927  0  0  0.100676  0  1.024539  0  0  0.10257  0.098216  0  1.025461  0
H  H46  1  0.03712544  0.18824666  0.30726972  1  0  0.094514  0  0.93999  0  0  0.105027  0  1.007602  0  0  0.106776  0  1.00623  0  0  0.102814  0.103633  0  1.008804  0
H  H47  1  0.96288517  0.31175477  0.80727148  1  0  0.094511  0  0.939989  0  0  0.105023  0  1.007606  0  0  0.106773  0  1.006234  0  0  0.102798  0.103631  0  1.0088  0
H  H48  1  0.96287369  0.81176084  0.69273359  1  0  0.094507  0  0.93999  0  0  0.105017  0  1.007619  0  0  0.106768  0  1.006247  0  0  0.102798  0.103626  0  1.008817  0
H  H49  1  0.03712824  0.68824127  0.19273514  1  0  0.094536  0  0.940002  0  0  0.105032  0  1.007625  0  0  0.106782  0  1.006253  0  0  0.102796  0.103639  0  1.008817  0
H  H50  1  0.07528539  0.20431461  0.39082694  1  0  0.096665  0  0.953166  0  0  0.105507  0  1.022814  0  0  0.106816  0  1.022557  0  0  0.097966  0.104384  0  1.023245  0
H  H51  1  0.92471807  0.29568977  0.89082826  1  0  0.096662  0  0.953185  0  0  0.105531  0  1.022812  0  0  0.106843  0  1.022557  0  0  0.097974  0.104405  0  1.023242  0
H  H52  1  0.92472400  0.79568835  0.60917637  1  0  0.096579  0  0.953149  0  0  0.105499  0  1.022712  0  0  0.106819  0  1.022453  0  0  0.097949  0.104377  0  1.023142  0
H  H53  1  0.07528061  0.70431192  0.10917647  1  0  0.096632  0  0.953071  0  0  0.105497  0  1.022682  0  0  0.106813  0  1.022423  0  0  0.097936  0.104373  0  1.023112  0
H  H54  1  0.38417258  0.23050654  0.33011912  1  0  0.279063  0  0.838103  0  0  0.272232  0  0.881347  0  0  0.278043  0  0.877925  0  0  0.322834  0.268004  0  0.883996  0
H  H55  1  0.61583768  0.26949508  0.83011899  1  0  0.279054  0  0.83818  0  0  0.27219  0  0.881448  0  0  0.278  0  0.878025  0  0  0.322799  0.267965  0  0.884092  0
H  H56  1  0.61583441  0.76950451  0.66988088  1  0  0.279085  0  0.838279  0  0  0.272237  0  0.88152  0  0  0.278046  0  0.878098  0  0  0.322888  0.268009  0  0.884168  0
H  H57  1  0.38416741  0.73049162  0.16988006  1  0  0.279101  0  0.838267  0  0  0.272249  0  0.881516  0  0  0.27806  0  0.878091  0  0  0.322896  0.268023  0  0.884159  0
C  C58  1  0.29301495  0.84217227  0.31965777  1  0  -0.04144  0  3.580894  0  0  -0.093152  0  3.82929  0  0  -0.090491  0  3.841482  0  0  -0.074288  -0.094831  0  3.820885  0
C  C59  1  0.70698480  0.65782742  0.81965781  1  0  -0.041447  0  3.580804  0  0  -0.093115  0  3.829259  0  0  -0.090452  0  3.841446  0  0  -0.074296  -0.094789  0  3.820844  0
C  C60  1  0.70698363  0.15782827  0.68034176  1  0  -0.041345  0  3.580714  0  0  -0.093016  0  3.829168  0  0  -0.090349  0  3.841355  0  0  -0.074298  -0.094698  0  3.820763  0
C  C61  1  0.29301941  0.34216738  0.18033888  1  0  -0.041253  0  3.580681  0  0  -0.093055  0  3.829114  0  0  -0.09039  0  3.841305  0  0  -0.074279  -0.094723  0  3.820696  0
C  C62  1  0.27840090  0.93334147  0.42734945  1  0  -0.0449  0  3.601815  0  0  -0.095874  0  3.848208  0  0  -0.093247  0  3.860126  0  0  -0.082703  -0.097491  0  3.840011  0
C  C63  1  0.72159250  0.56665675  0.92735028  1  0  -0.044904  0  3.601911  0  0  -0.095791  0  3.848269  0  0  -0.093162  0  3.86019  0  0  -0.082669  -0.097435  0  3.840137  0
C  C64  1  0.72159920  0.06665908  0.57264913  1  0  -0.044974  0  3.601921  0  0  -0.095898  0  3.848308  0  0  -0.093268  0  3.860226  0  0  -0.082705  -0.097541  0  3.840169  0
C  C65  1  0.27839403  0.43334484  0.07264783  1  0  -0.044881  0  3.601733  0  0  -0.096092  0  3.848375  0  0  -0.093467  0  3.860299  0  0  -0.082761  -0.097731  0  3.840238  0
C  C66  1  0.99960839  0.96521051  0.35659018  1  0  -0.047792  0  3.60177  0  0  -0.100379  0  3.849181  0  0  -0.098011  0  3.861373  0  0  -0.08049  -0.101775  0  3.840679  0
C  C67  1  0.00039126  0.53479528  0.85659160  1  0  -0.047836  0  3.601585  0  0  -0.100392  0  3.849062  0  0  -0.098061  0  3.861308  0  0  -0.080525  -0.101788  0  3.840546  0
C  C68  1  0.00039511  0.03479471  0.64340982  1  0  -0.047679  0  3.60172  0  0  -0.100253  0  3.849152  0  0  -0.097953  0  3.86144  0  0  -0.080466  -0.101642  0  3.840639  0
C  C69  1  0.99960510  0.46521566  0.14340840  1  0  -0.047704  0  3.601912  0  0  -0.100265  0  3.849238  0  0  -0.097904  0  3.861442  0  0  -0.080483  -0.101667  0  3.840727  0
C  C70  1  0.41262707  0.07180548  0.40221733  1  0  -0.021926  0  3.492588  0  0  -0.080463  0  3.738588  0  0  -0.077054  0  3.747842  0  0  -0.067018  -0.082631  0  3.732254  0
C  C71  1  0.58737149  0.42819663  0.90221606  1  0  -0.021927  0  3.49254  0  0  -0.080479  0  3.738534  0  0  -0.077078  0  3.747786  0  0  -0.067008  -0.082654  0  3.732213  0
C  C72  1  0.58737893  0.92819281  0.59778409  1  0  -0.021924  0  3.492532  0  0  -0.080455  0  3.738517  0  0  -0.077046  0  3.747754  0  0  -0.067035  -0.082635  0  3.732198  0
C  C73  1  0.41262825  0.57179928  0.09778442  1  0  -0.021936  0  3.492447  0  0  -0.080427  0  3.738504  0  0  -0.077012  0  3.747746  0  0  -0.067072  -0.082616  0  3.732194  0
C  C74  1  0.35811850  0.00249328  0.29081540  1  0  -0.032331  0  3.479134  0  0  -0.087685  0  3.723675  0  0  -0.084828  0  3.733207  0  0  -0.063492  -0.089487  0  3.717282  0
C  C75  1  0.64189503  0.49750340  0.79081415  1  0  -0.032144  0  3.479014  0  0  -0.087624  0  3.723649  0  0  -0.084764  0  3.733181  0  0  -0.063482  -0.08942  0  3.717238  0
C  C76  1  0.64188027  0.99750957  0.70918271  1  0  -0.032134  0  3.479128  0  0  -0.087554  0  3.723768  0  0  -0.084691  0  3.733286  0  0  -0.063421  -0.089353  0  3.717362  0
C  C77  1  0.35811337  0.50248681  0.20918396  1  0  -0.032116  0  3.478887  0  0  -0.087483  0  3.723446  0  0  -0.084617  0  3.732957  0  0  -0.063434  -0.089312  0  3.717091  0
C  C78  1  0.09538155  0.13143572  0.34924770  1  0  -0.032388  0  3.492159  0  0  -0.09068  0  3.740466  0  0  -0.087845  0  3.75027  0  0  -0.068725  -0.092431  0  3.733753  0
C  C79  1  0.90462539  0.36856603  0.84924869  1  0  -0.032355  0  3.492043  0  0  -0.090665  0  3.740311  0  0  -0.087825  0  3.750117  0  0  -0.068722  -0.092439  0  3.733649  0
C  C80  1  0.90462365  0.86857183  0.65075514  1  0  -0.032274  0  3.492035  0  0  -0.090645  0  3.740358  0  0  -0.087802  0  3.75017  0  0  -0.068708  -0.092409  0  3.733669  0
C  C81  1  0.09538034  0.63142878  0.15075699  1  0  -0.032523  0  3.492261  0  0  -0.090819  0  3.740512  0  0  -0.087979  0  3.750301  0  0  -0.068723  -0.092575  0  3.73382  0
N  N82  1  0.15736317  0.85960487  0.37493842  1  0  -0.217316  0  3.198866  0  0  -0.122285  0  3.433938  0  0  -0.141438  0  3.457355  0  0  -0.337549  -0.108939  0  3.417436  0
N  N83  1  0.84263156  0.64039986  0.87494106  1  0  -0.217267  0  3.198749  0  0  -0.122347  0  3.43393  0  0  -0.141496  0  3.457359  0  0  -0.337519  -0.108994  0  3.417409  0
N  N84  1  0.84263435  0.14040145  0.62505827  1  0  -0.21731  0  3.19866  0  0  -0.122439  0  3.433956  0  0  -0.141581  0  3.457389  0  0  -0.337517  -0.109074  0  3.417409  0
N  N85  1  0.15735809  0.35960290  0.12506131  1  0  -0.217408  0  3.198616  0  0  -0.122228  0  3.433665  0  0  -0.141382  0  3.457083  0  0  -0.337513  -0.108877  0  3.417154  0
N  N86  1  0.32113383  0.12082611  0.34089894  1  0  -0.08211  0  3.34818  0  0  0.004109  0  3.551425  0  0  -0.007834  0  3.568747  0  0  -0.347035  0.012161  0  3.539701  0
N  N87  1  0.67886511  0.37916854  0.84089888  1  0  -0.08219  0  3.348203  0  0  0.004117  0  3.551445  0  0  -0.007824  0  3.568762  0  0  -0.347025  0.012171  0  3.539716  0
N  N88  1  0.67886261  0.87916630  0.65910200  1  0  -0.082238  0  3.348397  0  0  0.004035  0  3.551649  0  0  -0.007899  0  3.568957  0  0  -0.347136  0.012093  0  3.539929  0
N  N89  1  0.32113955  0.62083205  0.15910254  1  0  -0.08213  0  3.348206  0  0  0.004122  0  3.551413  0  0  -0.007822  0  3.568736  0  0  -0.347101  0.012184  0  3.539691  0
Cl  Cl90  1  0.34046629  0.47619065  0.38415678  1  0  -0.558667  0  1.052076  0  0  -0.503738  0  1.344244  0  0  -0.522432  0  1.324309  0  0  -0.282839  -0.490223  0  1.357944  0
Cl  Cl91  1  0.65952619  0.02380778  0.88416001  1  0  -0.558649  0  1.052015  0  0  -0.503736  0  1.344194  0  0  -0.522437  0  1.324272  0  0  -0.282834  -0.490213  0  1.357892  0
Cl  Cl92  1  0.65953712  0.52381340  0.61584228  1  0  -0.558656  0  1.052041  0  0  -0.503735  0  1.344221  0  0  -0.522439  0  1.324301  0  0  -0.282844  -0.490216  0  1.357914  0
Cl  Cl93  1  0.34045953  0.97618337  0.11584236  1  0  -0.558651  0  1.052039  0  0  -0.503741  0  1.344221  0  0  -0.522463  0  1.324338  0  0  -0.28285  -0.490222  0  1.357917  0
Cl  Cl94  1  0.82039242  0.35187462  0.46600390  1  0  -0.559649  0  1.100114  0  0  -0.489329  0  1.391714  0  0  -0.51079  0  1.372499  0  0  -0.27709  -0.473693  0  1.40469  0
Cl  Cl95  1  0.17959706  0.14812100  0.96600332  1  0  -0.559664  0  1.1002  0  0  -0.489337  0  1.391784  0  0  -0.510787  0  1.372546  0  0  -0.277088  -0.473694  0  1.404759  0
Cl  Cl96  1  0.17960796  0.64812941  0.53399657  1  0  -0.559657  0  1.100103  0  0  -0.489331  0  1.391699  0  0  -0.510804  0  1.372499  0  0  -0.277095  -0.473697  0  1.40467  0
Cl  Cl97  1  0.82039331  0.85187135  0.03399621  1  0  -0.559656  0  1.100128  0  0  -0.48932  0  1.3917  0  0  -0.510795  0  1.372501  0  0  -0.277098  -0.473683  0  1.404678  0
Cl  Cl98  1  0.71522353  0.75147979  0.46163385  1  0  -0.544059  0  1.108696  0  0  -0.479325  0  1.399493  0  0  -0.498307  0  1.379961  0  0  -0.271165  -0.465672  0  1.412915  0
Cl  Cl99  1  0.28476776  0.74851754  0.96163845  1  0  -0.544034  0  1.108683  0  0  -0.479299  0  1.399457  0  0  -0.498269  0  1.379906  0  0  -0.271164  -0.46564  0  1.41288  0
Cl  Cl100  1  0.28477658  0.24852076  0.53836474  1  0  -0.544027  0  1.108694  0  0  -0.479295  0  1.399488  0  0  -0.498279  0  1.379961  0  0  -0.271144  -0.465641  0  1.41291  0
Cl  Cl101  1  0.71522306  0.25148061  0.03836249  1  0  -0.544064  0  1.108722  0  0  -0.479324  0  1.399513  0  0  -0.498304  0  1.379975  0  0  -0.271138  -0.465666  0  1.412934  0
Cl  Cl102  1  0.85179999  0.56109073  0.29677721  1  0  -0.62436  0  0.817795  0  0  -0.571877  0  1.059751  0  0  -0.588043  0  1.040438  0  0  -0.368946  -0.560137  0  1.073089  0
Cl  Cl103  1  0.14819582  0.93891220  0.79677853  1  0  -0.624355  0  0.817793  0  0  -0.571865  0  1.059719  0  0  -0.588034  0  1.040413  0  0  -0.368942  -0.560128  0  1.073052  0
Cl  Cl104  1  0.14819440  0.43891440  0.70322089  1  0  -0.624345  0  0.817789  0  0  -0.571851  0  1.059723  0  0  -0.588015  0  1.04041  0  0  -0.368943  -0.560112  0  1.073057  0
Cl  Cl105  1  0.85180464  0.06109299  0.20322100  1  0  -0.624353  0  0.817815  0  0  -0.571855  0  1.059743  0  0  -0.588016  0  1.040435  0  0  -0.368943  -0.560119  0  1.073079  0
