# generated using pymatgen
data_LaH6C11(NO4)2
_symmetry_space_group_name_H-M   'P 1'
_cell_length_a   7.84240769
_cell_length_b   8.91730347
_cell_length_c   10.62467074
_cell_angle_alpha   67.41248799
_cell_angle_beta   85.44288365
_cell_angle_gamma   80.10577780
_symmetry_Int_Tables_number   1
_chemical_formula_structural   LaH6C11(NO4)2
_chemical_formula_sum   'La2 H12 C22 N4 O16'
_cell_volume   675.74523138
_cell_formula_units_Z   2
loop_
 _symmetry_equiv_pos_site_id
 _symmetry_equiv_pos_as_xyz
  1  'x, y, z'
loop_
 _atom_site_type_symbol
 _atom_site_label
 _atom_site_symmetry_multiplicity
 _atom_site_fract_x
 _atom_site_fract_y
 _atom_site_fract_z
 _atom_site_occupancy
 _atom_site_hle17_bader_spin_density
 _atom_site_hle17_ddec_charge
 _atom_site_hle17_ddec_spin_density
 _atom_site_hle17_ddec_sum_bond_order
 _atom_site_hle17_magmom
 _atom_site_hse06_10hf_bader_spin_density
 _atom_site_hse06_10hf_ddec_charge
 _atom_site_hse06_10hf_ddec_spin_density
 _atom_site_hse06_10hf_ddec_sum_bond_order
 _atom_site_hse06_10hf_magmom
 _atom_site_hse06_bader_spin_density
 _atom_site_hse06_ddec_charge
 _atom_site_hse06_ddec_spin_density
 _atom_site_hse06_ddec_sum_bond_order
 _atom_site_hse06_magmom
 _atom_site_pbe_bader_spin_density
 _atom_site_pbe_cm5_charge
 _atom_site_pbe_ddec_charge
 _atom_site_pbe_ddec_spin_density
 _atom_site_pbe_ddec_sum_bond_order
 _atom_site_pbe_magmom
La  La0  1  0.19561381  0.81095581  0.47071702  1  0  2.033609  0  1.797355  0  0  1.916134  0  2.300553  0  0  2.014859  0  2.210278  0  0  1.376143  1.842154  0  2.363147  0
La  La1  1  0.80438374  0.18904145  0.52928448  1  0  2.033652  0  1.797067  0  0  1.916172  0  2.30024  0  0  2.014909  0  2.209947  0  0  1.376282  1.842236  0  2.36279  0
H  H2  1  0.88670767  0.43542129  0.22231257  1  0  0.139398  0  0.99476  0  0  0.143993  0  1.061361  0  0  0.148193  0  1.058521  0  0  0.118916  0.140917  0  1.063542  0
H  H3  1  0.11329122  0.56458959  0.77768383  1  0  0.139394  0  0.994813  0  0  0.143995  0  1.061396  0  0  0.148195  0  1.058557  0  0  0.118914  0.140924  0  1.063577  0
H  H4  1  0.75541603  0.29270719  0.82691734  1  0  0.143797  0  0.977665  0  0  0.149255  0  1.039003  0  0  0.153689  0  1.035908  0  0  0.119304  0.146042  0  1.041325  0
H  H5  1  0.24458075  0.70729367  0.17308593  1  0  0.143845  0  0.977716  0  0  0.149315  0  1.039031  0  0  0.153739  0  1.035947  0  0  0.11932  0.146097  0  1.041353  0
H  H6  1  0.93481721  0.08907893  0.02237490  1  0  0.105113  0  0.96832  0  0  0.113991  0  1.031197  0  0  0.11776  0  1.027868  0  0  0.107371  0.111196  0  1.033783  0
H  H7  1  0.06518275  0.91092573  0.97762616  1  0  0.105107  0  0.968338  0  0  0.114041  0  1.031157  0  0  0.117814  0  1.027824  0  0  0.107368  0.111245  0  1.03374  0
H  H8  1  0.52565702  0.85514150  0.83047084  1  0  0.129099  0  0.942125  0  0  0.137425  0  1.000688  0  0  0.141978  0  0.994844  0  0  0.159449  0.133954  0  1.004958  0
H  H9  1  0.47433711  0.14486064  0.16952839  1  0  0.129195  0  0.942112  0  0  0.137426  0  1.00076  0  0  0.141974  0  0.994923  0  0  0.159461  0.133956  0  1.005029  0
H  H10  1  0.56279254  0.62209970  0.73920560  1  0  0.336861  0  0.895548  0  0  0.311177  0  0.961326  0  0  0.322353  0  0.952178  0  0  0.317652  0.303267  0  0.967821  0
H  H11  1  0.43720213  0.37789862  0.26079947  1  0  0.336911  0  0.895425  0  0  0.311211  0  0.961229  0  0  0.322363  0  0.952122  0  0  0.31768  0.3033  0  0.967722  0
H  H12  1  0.68169947  0.74113176  0.05968989  1  0  0.344105  0  0.80624  0  0  0.338009  0  0.840401  0  0  0.344293  0  0.836963  0  0  0.369384  0.333617  0  0.842841  0
H  H13  1  0.31829971  0.25887795  0.94030497  1  0  0.344154  0  0.806272  0  0  0.338039  0  0.84045  0  0  0.344324  0  0.837012  0  0  0.369397  0.33365  0  0.842891  0
C  C14  1  0.02901500  0.11897877  0.24451938  1  0  0.663533  0  3.89092  0  0  0.617346  0  4.186227  0  0  0.653351  0  4.179854  0  0  0.214034  0.592643  0  4.18979  0
C  C15  1  0.97098461  0.88102845  0.75547715  1  0  0.663442  0  3.89113  0  0  0.617253  0  4.18646  0  0  0.653258  0  4.180081  0  0  0.214  0.592552  0  4.190029  0
C  C16  1  0.92073070  0.24882293  0.13248415  1  0  -0.052717  0  3.758408  0  0  -0.035151  0  4.003354  0  0  -0.042609  0  4.026031  0  0  -0.011793  -0.030479  0  3.988421  0
C  C17  1  0.07927547  0.75118318  0.86751340  1  0  -0.052624  0  3.758086  0  0  -0.035088  0  4.003063  0  0  -0.042544  0  4.025729  0  0  -0.011801  -0.030424  0  3.988135  0
C  C18  1  0.85879981  0.40259109  0.13808997  1  0  -0.151597  0  3.689015  0  0  -0.186312  0  3.947982  0  0  -0.187284  0  3.966768  0  0  -0.078224  -0.185559  0  3.935563  0
C  C19  1  0.14120601  0.59741007  0.86190908  1  0  -0.151663  0  3.688932  0  0  -0.186315  0  3.947916  0  0  -0.187288  0  3.966695  0  0  -0.078252  -0.185568  0  3.935503  0
C  C20  1  0.75850645  0.51411972  0.02922007  1  0  0.144222  0  3.789996  0  0  0.135694  0  4.047127  0  0  0.137905  0  4.070247  0  0  0.09949  0.134106  0  4.031566  0
C  C21  1  0.24149975  0.48588642  0.97077652  1  0  0.144422  0  3.789952  0  0  0.135732  0  4.047254  0  0  0.137946  0  4.070372  0  0  0.099522  0.134134  0  4.031697  0
C  C22  1  0.72069442  0.47549162  0.91847688  1  0  0.150626  0  3.765866  0  0  0.137646  0  4.017071  0  0  0.142011  0  4.039795  0  0  0.101501  0.134733  0  4.001827  0
C  C23  1  0.27930477  0.52451061  0.08152306  1  0  0.150655  0  3.765806  0  0  0.137746  0  4.016987  0  0  0.142105  0  4.039709  0  0  0.101583  0.134833  0  4.001739  0
C  C24  1  0.78355091  0.32181244  0.91264145  1  0  -0.143229  0  3.719164  0  0  -0.164152  0  3.976969  0  0  -0.167554  0  3.995239  0  0  -0.085865  -0.161944  0  3.964838  0
C  C25  1  0.21644389  0.67819205  0.08736175  1  0  -0.143245  0  3.719329  0  0  -0.164189  0  3.977115  0  0  -0.167581  0  3.995395  0  0  -0.085911  -0.16198  0  3.964977  0
C  C26  1  0.88345887  0.21081614  0.02113001  1  0  -0.05929  0  3.724643  0  0  -0.08883  0  3.981339  0  0  -0.088878  0  4.001032  0  0  -0.079341  -0.088602  0  3.96819  0
C  C27  1  0.11654406  0.78918609  0.97887261  1  0  -0.05939  0  3.724623  0  0  -0.088952  0  3.981296  0  0  -0.08901  0  4.000995  0  0  -0.079368  -0.088724  0  3.96814  0
C  C28  1  0.59492714  0.73144410  0.88152270  1  0  0.306924  0  3.537529  0  0  0.228444  0  3.821073  0  0  0.24909  0  3.825959  0  0  0.204094  0.215072  0  3.817478  0
C  C29  1  0.40507210  0.26856422  0.11847823  1  0  0.306704  0  3.537855  0  0  0.228333  0  3.821346  0  0  0.248978  0  3.826227  0  0  0.204031  0.214956  0  3.817746  0
C  C30  1  0.53495981  0.00739836  0.42745372  1  0  0.549845  0  3.921828  0  0  0.509463  0  4.222954  0  0  0.540688  0  4.215607  0  0  0.215325  0.487944  0  4.227335  0
C  C31  1  0.46505605  0.99260434  0.57254164  1  0  0.550395  0  3.921125  0  0  0.509824  0  4.222498  0  0  0.541053  0  4.21515  0  0  0.215452  0.488309  0  4.226879  0
C  C32  1  0.53025839  0.49672003  0.56911806  1  0  0.570764  0  3.89226  0  0  0.523664  0  4.196344  0  0  0.555447  0  4.188144  0  0  0.225414  0.501826  0  4.20129  0
C  C33  1  0.46976028  0.50323948  0.43089308  1  0  0.571106  0  3.891634  0  0  0.524039  0  4.195669  0  0  0.555823  0  4.187465  0  0  0.225737  0.502185  0  4.200624  0
C  C34  1  0.05320476  0.44279065  0.56449575  1  0  0.550616  0  3.937702  0  0  0.510142  0  4.23988  0  0  0.541019  0  4.232996  0  0  0.209918  0.488854  0  4.243806  0
C  C35  1  0.94678277  0.55719156  0.43551165  1  0  0.550422  0  3.937808  0  0  0.510071  0  4.239862  0  0  0.540952  0  4.23298  0  0  0.210038  0.488778  0  4.243786  0
N  N36  1  0.61859759  0.61404427  0.82997634  1  0  -0.307313  0  3.324454  0  0  -0.240098  0  3.560104  0  0  -0.258633  0  3.570514  0  0  -0.339875  -0.227849  0  3.553138  0
N  N37  1  0.38140362  0.38595435  0.17002273  1  0  -0.307285  0  3.324463  0  0  -0.240089  0  3.560068  0  0  -0.258603  0  3.570493  0  0  -0.33987  -0.227838  0  3.553095  0
N  N38  1  0.67726521  0.67501752  0.00091125  1  0  -0.313647  0  3.356556  0  0  -0.256817  0  3.597988  0  0  -0.272716  0  3.607657  0  0  -0.351169  -0.246189  0  3.5911  0
N  N39  1  0.32273906  0.32499230  0.99908337  1  0  -0.313799  0  3.356746  0  0  -0.256907  0  3.598161  0  0  -0.272809  0  3.60783  0  0  -0.351236  -0.246273  0  3.591264  0
O  O40  1  0.11928048  0.00002749  0.22138478  1  0  -0.626939  0  1.918006  0  0  -0.583035  0  2.150093  0  0  -0.612041  0  2.141549  0  0  -0.349598  -0.562553  0  2.155299  0
O  O41  1  0.88072052  0.99995885  0.77861613  1  0  -0.62688  0  1.918387  0  0  -0.582974  0  2.150476  0  0  -0.611983  0  2.141929  0  0  -0.349545  -0.562495  0  2.155685  0
O  O42  1  0.02805692  0.13058853  0.36222660  1  0  -0.746229  0  1.993282  0  0  -0.695912  0  2.249381  0  0  -0.734093  0  2.243102  0  0  -0.401532  -0.668289  0  2.252494  0
O  O43  1  0.97195463  0.86941651  0.63776917  1  0  -0.746211  0  1.99328  0  0  -0.695911  0  2.249419  0  0  -0.734081  0  2.243111  0  0  -0.401546  -0.668283  0  2.25253  0
O  O44  1  0.44790958  0.95717014  0.36003971  1  0  -0.63332  0  2.041  0  0  -0.595812  0  2.286271  0  0  -0.624989  0  2.276553  0  0  -0.365212  -0.574814  0  2.292039  0
O  O45  1  0.55208214  0.04282605  0.63995200  1  0  -0.633328  0  2.041182  0  0  -0.595815  0  2.286591  0  0  -0.624992  0  2.276873  0  0  -0.365166  -0.574823  0  2.292361  0
O  O46  1  0.67093782  0.07128417  0.38574551  1  0  -0.624952  0  2.025904  0  0  -0.588764  0  2.274664  0  0  -0.618491  0  2.268034  0  0  -0.360867  -0.567362  0  2.278434  0
O  O47  1  0.32905566  0.92870962  0.61424591  1  0  -0.625264  0  2.025193  0  0  -0.589034  0  2.274051  0  0  -0.618769  0  2.267422  0  0  -0.36102  -0.567622  0  2.277811  0
O  O48  1  0.47308684  0.61985482  0.60149491  1  0  -0.626058  0  2.06407  0  0  -0.575717  0  2.300002  0  0  -0.60645  0  2.293744  0  0  -0.331814  -0.554032  0  2.303574  0
O  O49  1  0.52690373  0.38013856  0.39850900  1  0  -0.626032  0  2.064712  0  0  -0.575666  0  2.300618  0  0  -0.606381  0  2.294362  0  0  -0.331894  -0.553986  0  2.304195  0
O  O50  1  0.63193296  0.37138037  0.63883126  1  0  -0.61659  0  2.050445  0  0  -0.571261  0  2.291823  0  0  -0.600806  0  2.283552  0  0  -0.356607  -0.549992  0  2.296529  0
O  O51  1  0.36804221  0.62861257  0.36117716  1  0  -0.616867  0  2.049301  0  0  -0.571593  0  2.290701  0  0  -0.601148  0  2.282428  0  0  -0.356848  -0.550318  0  2.295407  0
O  O52  1  0.14875641  0.51109637  0.61043671  1  0  -0.652083  0  2.064407  0  0  -0.609906  0  2.309025  0  0  -0.63935  0  2.300093  0  0  -0.362024  -0.588584  0  2.314318  0
O  O53  1  0.85124826  0.48891697  0.38956341  1  0  -0.651803  0  2.065161  0  0  -0.609669  0  2.309736  0  0  -0.639106  0  2.300802  0  0  -0.361975  -0.588356  0  2.315031  0
O  O54  1  0.03669116  0.29265696  0.61285270  1  0  -0.61466  0  1.983961  0  0  -0.580668  0  2.22319  0  0  -0.608798  0  2.213398  0  0  -0.364105  -0.56014  0  2.229203  0
O  O55  1  0.96331863  0.70735652  0.38714624  1  0  -0.614899  0  1.983221  0  0  -0.580942  0  2.222395  0  0  -0.609082  0  2.212609  0  0  -0.364322  -0.560403  0  2.228404  0
