# generated using pymatgen
data_SmH16C18N3O8
_symmetry_space_group_name_H-M   'P 1'
_cell_length_a   9.45552311
_cell_length_b   10.51481681
_cell_length_c   10.51485384
_cell_angle_alpha   83.47017103
_cell_angle_beta   84.62372624
_cell_angle_gamma   84.62360440
_symmetry_Int_Tables_number   1
_chemical_formula_structural   SmH16C18N3O8
_chemical_formula_sum   'Sm2 H32 C36 N6 O16'
_cell_volume   1030.41762163
_cell_formula_units_Z   2
loop_
 _symmetry_equiv_pos_site_id
 _symmetry_equiv_pos_as_xyz
  1  'x, y, z'
loop_
 _atom_site_type_symbol
 _atom_site_label
 _atom_site_symmetry_multiplicity
 _atom_site_fract_x
 _atom_site_fract_y
 _atom_site_fract_z
 _atom_site_occupancy
 _atom_site_hle17_bader_spin_density
 _atom_site_hle17_ddec_charge
 _atom_site_hle17_ddec_spin_density
 _atom_site_hle17_ddec_sum_bond_order
 _atom_site_hle17_magmom
 _atom_site_hse06_10hf_bader_spin_density
 _atom_site_hse06_10hf_ddec_charge
 _atom_site_hse06_10hf_ddec_spin_density
 _atom_site_hse06_10hf_ddec_sum_bond_order
 _atom_site_hse06_10hf_magmom
 _atom_site_hse06_bader_spin_density
 _atom_site_hse06_ddec_charge
 _atom_site_hse06_ddec_spin_density
 _atom_site_hse06_ddec_sum_bond_order
 _atom_site_hse06_magmom
 _atom_site_pbe_bader_spin_density
 _atom_site_pbe_cm5_charge
 _atom_site_pbe_ddec_charge
 _atom_site_pbe_ddec_spin_density
 _atom_site_pbe_ddec_sum_bond_order
 _atom_site_pbe_magmom
Sm  Sm0  1  0.24999851  0.97585576  0.02414572  1  0  2.33234  0  1.586021  0  0  2.24186  0  1.934616  0  0  2.28543  0  1.890759  0  0  1.491249  2.148134  0  2.081323  0
Sm  Sm1  1  0.75000320  0.02414280  0.97585558  1  0  2.332239  0  1.586028  0  0  2.241733  0  1.934641  0  0  2.285303  0  1.890786  0  0  1.491219  2.147918  0  2.081502  0
H  H2  1  0.02362979  0.79361362  0.11325963  1  0  0.432187  0  0.8671  0  0  0.403018  0  0.928102  0  0  0.413611  0  0.912529  0  0  0.297944  0.395198  0  0.939471  0
H  H3  1  0.47636916  0.88674123  0.20638592  1  0  0.432193  0  0.867092  0  0  0.403023  0  0.928097  0  0  0.413617  0  0.912524  0  0  0.297952  0.395204  0  0.939465  0
H  H4  1  0.97636854  0.20638687  0.88673794  1  0  0.432085  0  0.867217  0  0  0.402935  0  0.928184  0  0  0.413529  0  0.912611  0  0  0.29792  0.395115  0  0.939551  0
H  H5  1  0.52363361  0.11325734  0.79361528  1  0  0.432249  0  0.867002  0  0  0.403088  0  0.927989  0  0  0.413681  0  0.912417  0  0  0.297987  0.395269  0  0.939356  0
H  H6  1  0.17504719  0.71594967  0.15250637  1  0  0.393892  0  0.927417  0  0  0.35067  0  1.011484  0  0  0.362537  0  0.994656  0  0  0.285291  0.342304  0  1.023129  0
H  H7  1  0.32495266  0.84749018  0.28404744  1  0  0.393883  0  0.927408  0  0  0.350694  0  1.011408  0  0  0.362559  0  0.994587  0  0  0.285282  0.342329  0  1.023053  0
H  H8  1  0.82494727  0.28404695  0.84749576  1  0  0.393955  0  0.927339  0  0  0.350734  0  1.01139  0  0  0.362602  0  0.994562  0  0  0.285342  0.342368  0  1.023035  0
H  H9  1  0.67504817  0.15250647  0.71595224  1  0  0.393867  0  0.927447  0  0  0.350684  0  1.01143  0  0  0.36255  0  0.994608  0  0  0.285306  0.342318  0  1.023076  0
H  H10  1  0.95712965  0.19785866  0.63348270  1  0  0.083313  0  0.944784  0  0  0.090715  0  1.008788  0  0  0.093404  0  1.007244  0  0  0.11524  0.088258  0  1.010778  0
H  H11  1  0.54286740  0.36652264  0.80214823  1  0  0.083301  0  0.944746  0  0  0.090687  0  1.008783  0  0  0.093375  0  1.00724  0  0  0.115264  0.088232  0  1.010771  0
H  H12  1  0.04287285  0.80214277  0.36652107  1  0  0.083333  0  0.944624  0  0  0.090693  0  1.008686  0  0  0.093383  0  1.00714  0  0  0.115234  0.088239  0  1.010674  0
H  H13  1  0.45712467  0.63347684  0.19785760  1  0  0.083366  0  0.944614  0  0  0.090714  0  1.008682  0  0  0.093402  0  1.007139  0  0  0.115255  0.088259  0  1.010668  0
H  H14  1  0.09623068  0.15922848  0.42166584  1  0  0.113749  0  0.944992  0  0  0.121528  0  1.006919  0  0  0.124942  0  1.006075  0  0  0.109061  0.118999  0  1.007781  0
H  H15  1  0.40376946  0.57834217  0.84077099  1  0  0.113754  0  0.94496  0  0  0.121555  0  1.006869  0  0  0.124971  0  1.006023  0  0  0.109063  0.119026  0  1.00773  0
H  H16  1  0.90377397  0.84078353  0.57833563  1  0  0.113702  0  0.94518  0  0  0.121542  0  1.007039  0  0  0.124957  0  1.006194  0  0  0.109051  0.119012  0  1.007901  0
H  H17  1  0.59622666  0.42165926  0.15923143  1  0  0.113785  0  0.945012  0  0  0.121604  0  1.006899  0  0  0.125019  0  1.006055  0  0  0.109096  0.119075  0  1.007762  0
H  H18  1  0.69961652  0.09637745  0.27788224  1  0  0.125832  0  0.98563  0  0  0.130884  0  1.050907  0  0  0.135014  0  1.048619  0  0  0.11424  0.12798  0  1.052276  0
H  H19  1  0.80038746  0.72211816  0.90362503  1  0  0.125732  0  0.985841  0  0  0.130797  0  1.051108  0  0  0.134921  0  1.048828  0  0  0.114211  0.127897  0  1.052477  0
H  H20  1  0.30039350  0.90362307  0.72211718  1  0  0.125842  0  0.985749  0  0  0.130903  0  1.051001  0  0  0.135027  0  1.048724  0  0  0.114252  0.128003  0  1.05237  0
H  H21  1  0.19961249  0.27787656  0.09637493  1  0  0.125834  0  0.985655  0  0  0.130865  0  1.050944  0  0  0.135014  0  1.048637  0  0  0.114238  0.127965  0  1.052309  0
H  H22  1  0.57902962  0.13317985  0.49479183  1  0  0.063727  0  0.947984  0  0  0.075158  0  1.007582  0  0  0.077509  0  1.005856  0  0  0.10993  0.073024  0  1.009589  0
H  H23  1  0.92097204  0.50520444  0.86682989  1  0  0.06373  0  0.947884  0  0  0.07515  0  1.007495  0  0  0.077503  0  1.005772  0  0  0.109939  0.073016  0  1.009501  0
H  H24  1  0.42097710  0.86682164  0.50520300  1  0  0.063697  0  0.947929  0  0  0.075129  0  1.007541  0  0  0.07748  0  1.005816  0  0  0.109935  0.072995  0  1.009547  0
H  H25  1  0.07902696  0.49478930  0.13317502  1  0  0.063722  0  0.947933  0  0  0.075127  0  1.00756  0  0  0.077476  0  1.005838  0  0  0.10993  0.072995  0  1.009564  0
H  H26  1  0.35501291  0.36020699  0.39233535  1  0  0.062479  0  0.966141  0  0  0.068404  0  1.032592  0  0  0.070132  0  1.032987  0  0  0.104007  0.067493  0  1.031794  0
H  H27  1  0.14497903  0.60766458  0.63979230  1  0  0.06243  0  0.966158  0  0  0.068362  0  1.032602  0  0  0.070095  0  1.032997  0  0  0.103972  0.067451  0  1.031803  0
H  H28  1  0.64498010  0.63979349  0.60766174  1  0  0.062468  0  0.966157  0  0  0.068391  0  1.032605  0  0  0.070122  0  1.032999  0  0  0.104006  0.06748  0  1.031806  0
H  H29  1  0.85501911  0.39233783  0.36020604  1  0  0.062479  0  0.966118  0  0  0.068403  0  1.032573  0  0  0.070132  0  1.032968  0  0  0.104011  0.067492  0  1.031775  0
H  H30  1  0.35808710  0.17526144  0.56690301  1  0  0.10143  0  0.957185  0  0  0.110244  0  1.020373  0  0  0.11386  0  1.018586  0  0  0.105729  0.107883  0  1.021319  0
H  H31  1  0.14190713  0.43309609  0.82473760  1  0  0.10139  0  0.957261  0  0  0.110238  0  1.020415  0  0  0.113854  0  1.018631  0  0  0.105725  0.107876  0  1.021361  0
H  H32  1  0.64190688  0.82474000  0.43309484  1  0  0.101384  0  0.957334  0  0  0.110221  0  1.020489  0  0  0.11384  0  1.018701  0  0  0.105733  0.107861  0  1.021434  0
H  H33  1  0.85808879  0.56690727  0.17526082  1  0  0.101414  0  0.95721  0  0  0.110246  0  1.02038  0  0  0.113862  0  1.018594  0  0  0.105723  0.107885  0  1.021328  0
C  C34  1  0.90499829  0.17552866  0.55145081  1  0  0.128699  0  3.688717  0  0  0.097197  0  3.950651  0  0  0.10173  0  3.967609  0  0  0.053264  0.094012  0  3.93999  0
C  C35  1  0.59500348  0.44854774  0.82447656  1  0  0.128966  0  3.688306  0  0  0.097435  0  3.950278  0  0  0.101971  0  3.96723  0  0  0.053308  0.094247  0  3.93962  0
C  C36  1  0.09500595  0.82447664  0.44854858  1  0  0.128761  0  3.688485  0  0  0.097261  0  3.950433  0  0  0.101796  0  3.967388  0  0  0.053268  0.094076  0  3.939774  0
C  C37  1  0.40499117  0.55144694  0.17552767  1  0  0.128706  0  3.688552  0  0  0.097246  0  3.950493  0  0  0.101781  0  3.967448  0  0  0.053261  0.094063  0  3.939831  0
C  C38  1  0.98111130  0.15455750  0.43448214  1  0  -0.130026  0  3.719126  0  0  -0.151534  0  3.968763  0  0  -0.156169  0  3.990475  0  0  -0.077962  -0.148743  0  3.955288  0
C  C39  1  0.51889305  0.56552521  0.84544749  1  0  -0.130157  0  3.719366  0  0  -0.151689  0  3.969026  0  0  -0.156319  0  3.990737  0  0  -0.078033  -0.148893  0  3.955542  0
C  C40  1  0.01889478  0.84545069  0.56551773  1  0  -0.130077  0  3.719489  0  0  -0.151627  0  3.969097  0  0  -0.156265  0  3.990814  0  0  -0.077966  -0.148835  0  3.955618  0
C  C41  1  0.48110821  0.43447813  0.15455903  1  0  -0.1301  0  3.719099  0  0  -0.151665  0  3.96874  0  0  -0.156297  0  3.990451  0  0  -0.078004  -0.148874  0  3.955263  0
C  C42  1  0.90800650  0.12324594  0.33406254  1  0  -0.020546  0  3.712056  0  0  0.000708  0  3.938664  0  0  -0.003385  0  3.959773  0  0  0.003031  0.00267  0  3.926021  0
C  C43  1  0.59198287  0.66594072  0.87675765  1  0  -0.020639  0  3.712377  0  0  0.000642  0  3.938989  0  0  -0.003461  0  3.960104  0  0  0.003041  0.0026  0  3.926337  0
C  C44  1  0.09199348  0.87675936  0.66593532  1  0  -0.020374  0  3.712008  0  0  0.000909  0  3.938667  0  0  -0.003185  0  3.959779  0  0  0.003101  0.002872  0  3.926019  0
C  C45  1  0.40799982  0.33405681  0.12324635  1  0  -0.020505  0  3.712258  0  0  0.000778  0  3.938869  0  0  -0.003323  0  3.959985  0  0  0.003098  0.00274  0  3.926224  0
C  C46  1  0.98647254  0.08794661  0.20974423  1  0  0.706368  0  3.868132  0  0  0.663398  0  4.158264  0  0  0.697901  0  4.146647  0  0  0.232205  0.639435  0  4.161102  0
C  C47  1  0.51354104  0.79027014  0.91204290  1  0  0.705981  0  3.868802  0  0  0.663027  0  4.158902  0  0  0.697535  0  4.147287  0  0  0.232071  0.639069  0  4.161726  0
C  C48  1  0.01353436  0.91204234  0.79026147  1  0  0.705932  0  3.868644  0  0  0.662838  0  4.158962  0  0  0.697342  0  4.147356  0  0  0.232013  0.638877  0  4.161785  0
C  C49  1  0.48647731  0.20974291  0.08795157  1  0  0.706162  0  3.868277  0  0  0.663165  0  4.158439  0  0  0.697672  0  4.146825  0  0  0.232197  0.639205  0  4.161268  0
C  C50  1  0.76017447  0.11867102  0.35413949  1  0  -0.120158  0  3.708605  0  0  -0.143636  0  3.956374  0  0  -0.147716  0  3.977248  0  0  -0.077015  -0.140605  0  3.942124  0
C  C51  1  0.73983226  0.64586444  0.88133402  1  0  -0.119944  0  3.708305  0  0  -0.143482  0  3.956106  0  0  -0.147554  0  3.976984  0  0  -0.076941  -0.140452  0  3.941851  0
C  C52  1  0.23983527  0.88133237  0.64586059  1  0  -0.120279  0  3.708339  0  0  -0.143787  0  3.956139  0  0  -0.147867  0  3.977022  0  0  -0.077085  -0.140762  0  3.94189  0
C  C53  1  0.26017140  0.35413604  0.11866975  1  0  -0.12023  0  3.708723  0  0  -0.143707  0  3.956503  0  0  -0.147801  0  3.977362  0  0  -0.077056  -0.140681  0  3.942252  0
C  C54  1  0.69371977  0.13949038  0.47450270  1  0  0.104364  0  3.745808  0  0  0.078512  0  3.996309  0  0  0.082101  0  4.015242  0  0  0.044094  0.076152  0  3.983803  0
C  C55  1  0.80627775  0.52549124  0.86051689  1  0  0.104354  0  3.745996  0  0  0.078528  0  3.996488  0  0  0.08211  0  4.015424  0  0  0.044078  0.076171  0  3.983977  0
C  C56  1  0.30628578  0.86051209  0.52548928  1  0  0.104448  0  3.745668  0  0  0.078587  0  3.996187  0  0  0.082174  0  4.015119  0  0  0.044115  0.076228  0  3.983679  0
C  C57  1  0.19371699  0.47450249  0.13948649  1  0  0.104396  0  3.745738  0  0  0.078568  0  3.996231  0  0  0.082155  0  4.015168  0  0  0.044092  0.076209  0  3.983724  0
C  C58  1  0.30813593  0.37330516  0.48942199  1  0  0.111212  0  3.75349  0  0  0.092393  0  4.008814  0  0  0.096561  0  4.026678  0  0  0.041568  0.089533  0  3.996454  0
C  C59  1  0.19185550  0.51057538  0.62669114  1  0  0.11122  0  3.753688  0  0  0.092389  0  4.009013  0  0  0.096555  0  4.026877  0  0  0.041572  0.089531  0  3.996647  0
C  C60  1  0.69185815  0.62669533  0.51057501  1  0  0.111229  0  3.753474  0  0  0.092425  0  4.008788  0  0  0.096593  0  4.026651  0  0  0.041575  0.089566  0  3.996426  0
C  C61  1  0.80813848  0.48942607  0.37330481  1  0  0.111187  0  3.753476  0  0  0.092369  0  4.008814  0  0  0.096538  0  4.026676  0  0  0.041531  0.089511  0  3.996453  0
C  C62  1  0.31102512  0.27058606  0.58580464  1  0  -0.128588  0  3.720757  0  0  -0.149742  0  3.962504  0  0  -0.154645  0  3.9839  0  0  -0.080796  -0.146483  0  3.948328  0
C  C63  1  0.18896526  0.41419445  0.72941354  1  0  -0.128608  0  3.720679  0  0  -0.149793  0  3.962444  0  0  -0.154696  0  3.98384  0  0  -0.08082  -0.14653  0  3.948268  0
C  C64  1  0.68896453  0.72941632  0.41419443  1  0  -0.12854  0  3.720765  0  0  -0.149713  0  3.962552  0  0  -0.154618  0  3.983949  0  0  -0.080838  -0.146451  0  3.948377  0
C  C65  1  0.81102864  0.58580795  0.27058517  1  0  -0.128523  0  3.720662  0  0  -0.149681  0  3.962447  0  0  -0.154583  0  3.983843  0  0  -0.080771  -0.146421  0  3.948273  0
C  C66  1  0.24999451  0.29118805  0.70880814  1  0  -0.01588  0  3.751379  0  0  0.005786  0  3.979921  0  0  0.001984  0  4.001996  0  0  -0.003264  0.007843  0  3.966023  0
C  C67  1  0.74999850  0.70881243  0.29118894  1  0  -0.016069  0  3.751467  0  0  0.005564  0  3.980059  0  0  0.001761  0  4.002131  0  0  -0.003303  0.007621  0  3.966167  0
C  C68  1  0.24999245  0.18449472  0.81550154  1  0  0.651323  0  3.900766  0  0  0.600765  0  4.197136  0  0  0.634257  0  4.188847  0  0  0.209759  0.579157  0  4.196662  0
C  C69  1  0.74999738  0.81550576  0.18449487  1  0  0.651466  0  3.900633  0  0  0.600923  0  4.19699  0  0  0.634416  0  4.188699  0  0  0.209862  0.579317  0  4.196509  0
N  N70  1  0.76392660  0.16581957  0.57218850  1  0  -0.278455  0  3.168001  0  0  -0.218269  0  3.415884  0  0  -0.229337  0  3.430122  0  0  -0.292075  -0.210656  0  3.40677  0
N  N71  1  0.73607365  0.42781463  0.83419080  1  0  -0.27865  0  3.168319  0  0  -0.2184  0  3.416171  0  0  -0.229467  0  3.430412  0  0  -0.292122  -0.210792  0  3.407058  0
N  N72  1  0.23608005  0.83418285  0.42781290  1  0  -0.278543  0  3.168066  0  0  -0.218306  0  3.415895  0  0  -0.229374  0  3.430131  0  0  -0.29212  -0.210697  0  3.406783  0
N  N73  1  0.26392364  0.57218581  0.16581734  1  0  -0.278453  0  3.168043  0  0  -0.218224  0  3.415887  0  0  -0.229292  0  3.430125  0  0  -0.292075  -0.210616  0  3.406774  0
N  N74  1  0.24999437  0.49181419  0.50818740  1  0  -0.291083  0  3.040949  0  0  -0.26519  0  3.306252  0  0  -0.273177  0  3.320843  0  0  -0.320781  -0.259287  0  3.29615  0
N  N75  1  0.74999837  0.50818917  0.49181130  1  0  -0.291121  0  3.04084  0  0  -0.265239  0  3.306136  0  0  -0.273228  0  3.320726  0  0  -0.32081  -0.259336  0  3.296034  0
O  O76  1  0.12176831  0.07987301  0.20213051  1  0  -0.706936  0  1.996239  0  0  -0.66831  0  2.23995  0  0  -0.691579  0  2.228692  0  0  -0.378225  -0.644426  0  2.249506  0
O  O77  1  0.37823881  0.79788063  0.92012678  1  0  -0.706879  0  1.996297  0  0  -0.668264  0  2.239995  0  0  -0.691538  0  2.228733  0  0  -0.378264  -0.644375  0  2.249544  0
O  O78  1  0.87824964  0.92012268  0.79787825  1  0  -0.706673  0  1.996713  0  0  -0.668002  0  2.240483  0  0  -0.691269  0  2.229224  0  0  -0.378126  -0.644103  0  2.250032  0
O  O79  1  0.62175800  0.20212465  0.07987326  1  0  -0.70675  0  1.996623  0  0  -0.668117  0  2.240355  0  0  -0.691382  0  2.229092  0  0  -0.378217  -0.644223  0  2.249909  0
O  O80  1  0.91434120  0.06456612  0.12035959  1  0  -0.767879  0  2.088763  0  0  -0.727938  0  2.34954  0  0  -0.751395  0  2.335974  0  0  -0.397434  -0.699722  0  2.358591  0
O  O81  1  0.58567147  0.87964927  0.93541230  1  0  -0.767472  0  2.089196  0  0  -0.727546  0  2.349984  0  0  -0.750974  0  2.336363  0  0  -0.397335  -0.699358  0  2.359075  0
O  O82  1  0.08568420  0.93540750  0.87964998  1  0  -0.767677  0  2.088719  0  0  -0.72769  0  2.349547  0  0  -0.751126  0  2.33594  0  0  -0.397397  -0.699495  0  2.358605  0
O  O83  1  0.41433231  0.12034938  0.06457169  1  0  -0.767861  0  2.088375  0  0  -0.727906  0  2.349148  0  0  -0.751354  0  2.335552  0  0  -0.397486  -0.699697  0  2.35819  0
O  O84  1  0.34254836  0.08844904  0.80854755  1  0  -0.69452  0  2.051429  0  0  -0.643676  0  2.284415  0  0  -0.668247  0  2.2748  0  0  -0.345735  -0.620784  0  2.29085  0
O  O85  1  0.15744308  0.19144672  0.91154706  1  0  -0.694578  0  2.051379  0  0  -0.643744  0  2.284395  0  0  -0.668314  0  2.274782  0  0  -0.345782  -0.620855  0  2.290835  0
O  O86  1  0.65744890  0.91155146  0.19144917  1  0  -0.694582  0  2.051365  0  0  -0.643732  0  2.284358  0  0  -0.668303  0  2.274749  0  0  -0.345797  -0.62083  0  2.29079  0
O  O87  1  0.84255048  0.80854801  0.08844965  1  0  -0.694565  0  2.051367  0  0  -0.643718  0  2.284366  0  0  -0.668296  0  2.274766  0  0  -0.345755  -0.620818  0  2.290802  0
O  O88  1  0.12049435  0.80416390  0.13658940  1  0  -0.918417  0  1.908181  0  0  -0.871277  0  2.111108  0  0  -0.891029  0  2.078904  0  0  -0.654751  -0.849376  0  2.138365  0
O  O89  1  0.37950542  0.86341116  0.19583527  1  0  -0.918408  0  1.908129  0  0  -0.871273  0  2.111039  0  0  -0.891028  0  2.078833  0  0  -0.65474  -0.849372  0  2.138296  0
O  O90  1  0.87950206  0.19583463  0.86341522  1  0  -0.91837  0  1.908228  0  0  -0.871225  0  2.111157  0  0  -0.890977  0  2.078953  0  0  -0.654778  -0.849311  0  2.13842  0
O  O91  1  0.62049541  0.13658549  0.80416441  1  0  -0.918439  0  1.908131  0  0  -0.871313  0  2.111063  0  0  -0.89107  0  2.078855  0  0  -0.654779  -0.8494  0  2.138328  0
