# generated using pymatgen
data_Cu3P2H24C38(N2O5)2
_symmetry_space_group_name_H-M   'P 1'
_cell_length_a   8.34484019
_cell_length_b   9.74792474
_cell_length_c   11.49380253
_cell_angle_alpha   100.52031079
_cell_angle_beta   97.84052706
_cell_angle_gamma   90.55015190
_symmetry_Int_Tables_number   1
_chemical_formula_structural   Cu3P2H24C38(N2O5)2
_chemical_formula_sum   'Cu3 P2 H24 C38 N4 O10'
_cell_volume   910.08020367
_cell_formula_units_Z   1
loop_
 _symmetry_equiv_pos_site_id
 _symmetry_equiv_pos_as_xyz
  1  'x, y, z'
loop_
 _atom_site_type_symbol
 _atom_site_label
 _atom_site_symmetry_multiplicity
 _atom_site_fract_x
 _atom_site_fract_y
 _atom_site_fract_z
 _atom_site_occupancy
 _atom_site_hle17_ddec_charge
 _atom_site_hle17_ddec_spin_density
 _atom_site_hle17_ddec_sum_bond_order
 _atom_site_hle17_magmom
 _atom_site_hse06_10hf_ddec_charge
 _atom_site_hse06_10hf_ddec_spin_density
 _atom_site_hse06_10hf_ddec_sum_bond_order
 _atom_site_hse06_10hf_magmom
 _atom_site_hse06_ddec_charge
 _atom_site_hse06_ddec_spin_density
 _atom_site_hse06_ddec_sum_bond_order
 _atom_site_hse06_magmom
 _atom_site_pbe_cm5_charge
 _atom_site_pbe_ddec_charge
 _atom_site_pbe_ddec_spin_density
 _atom_site_pbe_ddec_sum_bond_order
 _atom_site_pbe_magmom
Cu  Cu0  1  0.84168668  0.00074721  0.79951942  1  0.957382  -0.720463  1.829217  -0.528  0.948384  -0.810436  2.231242  -0.649  1.02892  -0.879818  2.167069  -0.735  0.768231  0.89451  -0.753984  2.282466  -0.589
Cu  Cu1  1  0.15832416  0.99924446  0.20047845  1  0.957104  -0.720446  1.82949  -0.528  0.948299  -0.810432  2.231205  -0.649  1.028669  -0.879805  2.167237  -0.735  0.768151  0.894405  -0.753956  2.282434  -0.589
Cu  Cu2  1  0.50000635  0.99999619  0.00000372  1  1.043076  0.754214  1.640987  0.525  1.043593  0.841359  2.029771  0.65  1.131568  0.919628  1.963128  0.733  0.714998  0.975265  0.773777  2.09591  0.588
P  P3  1  0.84555162  0.85060527  0.02814266  1  1.457293  -0.00296  4.884605  0.003  1.326387  -0.005791  5.384947  -0.001  1.38801  -0.00406  5.343386  -0.001  0.337723  1.28306  -0.007074  5.41062  -0.001
P  P4  1  0.15445539  0.14938329  0.97185512  1  1.457165  -0.002958  4.884765  0.003  1.326153  -0.005789  5.385099  -0.001  1.387777  -0.00406  5.343542  -0.001  0.337658  1.282821  -0.007073  5.41079  -0.001
H  H5  1  0.68474069  0.69365526  0.17225793  1  0.078875  0.000117  0.986463  0.0  0.088837  -6.9e-05  1.053594  0.0  0.090659  -4.2e-05  1.054016  0.0  0.095225  0.087587  -7.3e-05  1.053534  0.0
H  H6  1  0.31525988  0.30634420  0.82773065  1  0.078905  0.000118  0.986518  0.0  0.088936  -6.9e-05  1.053599  0.0  0.090761  -4.1e-05  1.054015  0.0  0.095262  0.087676  -7.3e-05  1.05355  0.0
H  H7  1  0.60677795  0.44171291  0.15032258  1  0.085101  0.000182  0.968775  0.0  0.093966  0.000245  1.034515  0.0  0.096474  0.000177  1.033255  0.0  0.09487  0.092155  0.000332  1.035484  0.0
H  H8  1  0.39322732  0.55828714  0.84967792  1  0.085062  0.000181  0.96875  0.0  0.093938  0.000245  1.034489  0.0  0.096445  0.000177  1.03323  0.0  0.094858  0.092126  0.000332  1.035461  0.0
H  H9  1  0.81136867  0.35070444  0.82419707  1  0.090327  -6.9e-05  0.97266  0.0  0.097147  -1.1e-05  1.041854  0.0  0.100002  1e-05  1.039965  0.0  0.096382  0.095075  1.3e-05  1.043185  0.0
H  H10  1  0.18861753  0.64927929  0.17579500  1  0.090468  -7e-05  0.97259  0.0  0.09725  -1.1e-05  1.041794  0.0  0.100102  1.1e-05  1.039917  0.0  0.096425  0.095172  1.4e-05  1.043126  0.0
H  H11  1  0.88909139  0.60495951  0.84427956  1  0.092294  9.6e-05  0.945598  0.0  0.102269  -0.000109  1.004154  0.0  0.104948  -6.2e-05  1.003789  0.0  0.097043  0.100226  -0.000116  1.004561  0.0
H  H12  1  0.11089730  0.39502433  0.15570844  1  0.092193  9.7e-05  0.94563  0.0  0.102229  -0.000109  1.004116  0.0  0.104908  -6.2e-05  1.003751  0.0  0.097007  0.10015  -0.000116  1.004561  0.0
H  H13  1  0.60123696  0.75437382  0.81480119  1  0.098108  -0.00128  0.967229  -0.002  0.101866  -0.001147  1.03777  -0.002  0.104958  -0.000862  1.033794  -0.001  0.126046  0.099246  -0.001336  1.040779  -0.002
H  H14  1  0.39875372  0.24564431  0.18519750  1  0.098255  -0.001278  0.967044  -0.002  0.101887  -0.001147  1.037761  -0.002  0.104982  -0.000863  1.033778  -0.001  0.126034  0.09927  -0.001336  1.040769  -0.002
H  H15  1  0.41361626  0.59131180  0.66290993  1  0.105673  -0.000424  0.942465  0.0  0.120975  -0.000447  0.99245  0.0  0.124135  -0.00032  0.99175  0.0  0.112125  0.118399  -0.000544  0.993658  -0.001
H  H16  1  0.58634625  0.40872312  0.33709831  1  0.105726  -0.000424  0.942512  0.0  0.121009  -0.000446  0.992507  0.0  0.124166  -0.00032  0.991811  0.0  0.112113  0.118433  -0.000544  0.993716  -0.001
H  H17  1  0.39132245  0.61134408  0.44641663  1  0.097764  -0.00024  0.936192  0.0  0.111483  -2.3e-05  0.99174  0.0  0.113961  -7e-06  0.990715  0.0  0.109477  0.109488  -4e-05  0.993296  0.0
H  H18  1  0.60866327  0.38867389  0.55358846  1  0.097803  -0.00024  0.936036  0.0  0.111492  -2.3e-05  0.99162  0.0  0.113969  -8e-06  0.990595  0.0  0.109476  0.109494  -4e-05  0.993179  0.0
H  H19  1  0.84172730  0.14101167  0.31968873  1  0.126665  -0.000118  0.903038  0.0  0.13966  0.000178  0.956667  0.0  0.143443  0.000167  0.952628  0.0  0.12566  0.13639  0.000159  0.960381  0.0
H  H20  1  0.15826566  0.85900524  0.68031434  1  0.126631  -0.000119  0.903149  0.0  0.139666  0.000178  0.956729  0.0  0.143447  0.000167  0.952693  0.0  0.125688  0.136393  0.000159  0.960447  0.0
H  H21  1  0.00769473  0.29459299  0.49652281  1  0.101875  -0.000397  0.933339  0.0  0.118078  -0.000464  0.980073  0.0  0.12097  -0.000331  0.98028  0.0  0.11002  0.115743  -0.000562  0.980512  0.0
H  H22  1  0.99230630  0.70541751  0.50348085  1  0.101843  -0.000396  0.933414  0.0  0.118102  -0.000464  0.980081  0.0  0.120998  -0.000331  0.980284  0.0  0.110037  0.115765  -0.000562  0.980519  0.0
H  H23  1  0.00416758  0.23957029  0.70314788  1  0.100417  -0.001066  0.935457  -0.002  0.110377  -0.000906  0.99443  -0.002  0.113336  -0.000601  0.991762  -0.001  0.12668  0.107933  -0.001188  0.996593  -0.002
H  H24  1  0.99583761  0.76042868  0.29685330  1  0.100374  -0.001068  0.935506  -0.002  0.110337  -0.000906  0.994491  -0.002  0.113297  -0.000601  0.991823  -0.001  0.126679  0.107892  -0.001188  0.996655  -0.002
H  H25  1  0.64012878  0.93526355  0.24493174  1  0.138148  -0.000419  0.964289  0.0  0.145245  -0.00034  1.0265  0.0  0.149056  -0.000246  1.02419  0.0  0.113415  0.142171  -0.000418  1.028428  0.0
H  H26  1  0.35987188  0.06473887  0.75506260  1  0.138174  -0.00042  0.964338  0.0  0.145255  -0.00034  1.026557  0.0  0.149064  -0.000246  1.024253  0.0  0.113442  0.142181  -0.000418  1.028481  0.0
H  H27  1  0.47447205  0.74743026  0.29074281  1  0.115444  -0.000252  0.952738  0.0  0.126452  -0.00021  1.01251  0.0  0.129432  -0.000134  1.011642  0.0  0.109032  0.124149  -0.000278  1.013175  0.0
H  H28  1  0.52554169  0.25256970  0.70925772  1  0.115522  -0.000252  0.952671  0.0  0.126504  -0.00021  1.012479  0.0  0.129484  -0.000134  1.01161  0.0  0.109064  0.124205  -0.000278  1.013144  0.0
C  C29  1  0.78973624  0.66606019  0.00858665  1  -0.199245  -0.016316  3.721836  -0.017  -0.162105  -0.008032  3.958031  -0.009  -0.169623  -0.004915  3.978436  -0.005  -0.01935  -0.157111  -0.0104  3.944716  -0.011
C  C30  1  0.21026365  0.33392875  0.99140259  1  -0.199402  -0.016289  3.721971  -0.017  -0.161924  -0.008031  3.957727  -0.009  -0.16944  -0.004914  3.978133  -0.005  -0.019344  -0.156926  -0.010399  3.944397  -0.011
C  C31  1  0.71416490  0.61850926  0.09636309  1  -0.057099  -0.006065  3.769809  -0.006  -0.08032  -0.002278  4.018538  -0.002  -0.083057  -0.001542  4.04148  -0.002  -0.091153  -0.079105  -0.002917  4.00396  -0.003
C  C32  1  0.28583161  0.38148391  0.90362655  1  -0.057207  -0.006093  3.770151  -0.006  -0.08061  -0.002277  4.018808  -0.002  -0.083349  -0.001542  4.041751  -0.002  -0.091246  -0.079381  -0.002917  4.004214  -0.003
C  C33  1  0.67173733  0.47800339  0.08504431  1  -0.077164  0.002558  3.753098  0.002  -0.097772  0.00053  4.001235  0.0  -0.097353  0.000543  4.022897  0.0  -0.090034  -0.097849  0.00052  3.987007  0.0
C  C34  1  0.32826159  0.52199156  0.91495373  1  -0.077012  0.002586  3.753054  0.002  -0.097646  0.00053  4.001246  0.0  -0.09723  0.000543  4.022909  0.0  -0.090009  -0.097723  0.00052  3.98702  0.0
C  C35  1  0.70384532  0.38126538  0.98552640  1  -0.049785  -0.0013  3.738194  0.0  -0.028724  0.00198  3.962639  0.003  -0.038246  0.001556  3.986202  0.002  -0.018034  -0.022924  0.00181  3.947283  0.002
C  C36  1  0.29615345  0.61872742  0.01447298  1  -0.049824  -0.001325  3.738187  0.0  -0.028798  0.00198  3.962575  0.003  -0.038319  0.001556  3.986132  0.002  -0.018028  -0.023006  0.00181  3.947221  0.002
C  C37  1  0.64553015  0.23225385  0.96756400  1  0.65425  -0.003096  3.878563  -0.006  0.618273  -0.000209  4.165916  -0.003  0.658067  -0.0006  4.155602  -0.003  0.206172  0.590971  0.000171  4.170818  -0.003
C  C38  1  0.35447558  0.76773550  0.03244161  1  0.654039  -0.003094  3.879011  -0.006  0.618116  -0.000207  4.166249  -0.003  0.65791  -0.000599  4.155939  -0.003  0.206064  0.590823  0.000171  4.171149  -0.003
C  C39  1  0.78307552  0.42772050  0.89924366  1  -0.069339  0.00235  3.729923  0.002  -0.091739  0.000769  3.980478  0.001  -0.091452  0.000715  4.00231  0.001  -0.088061  -0.09139  0.000809  3.965306  0.001
C  C40  1  0.21691345  0.57226943  0.10075068  1  -0.069522  0.002381  3.730088  0.002  -0.091867  0.000769  3.98064  0.001  -0.091586  0.000715  4.002477  0.001  -0.088083  -0.091507  0.000809  3.965444  0.001
C  C41  1  0.82610314  0.56861678  0.91072425  1  -0.060013  -0.004945  3.769601  -0.004  -0.080754  -0.002173  4.018219  -0.002  -0.084287  -0.00148  4.042646  -0.001  -0.087423  -0.078074  -0.002531  4.001375  -0.002
C  C42  1  0.17388837  0.43137335  0.08926344  1  -0.059751  -0.004972  3.769732  -0.004  -0.080637  -0.002173  4.018198  -0.002  -0.084172  -0.00148  4.04263  -0.001  -0.087346  -0.077928  -0.002531  4.001357  -0.002
C  C43  1  0.58973304  0.76191528  0.72078496  1  0.167653  0.007172  3.634073  0.008  0.139349  0.001865  3.891246  0.003  0.151798  0.002533  3.90431  0.004  0.070172  0.130758  0.001413  3.882481  0.003
C  C44  1  0.41025845  0.23809836  0.27922172  1  0.167361  0.00717  3.634199  0.008  0.139149  0.001864  3.891295  0.003  0.151598  0.002534  3.904349  0.004  0.070115  0.130556  0.001414  3.882528  0.003
C  C45  1  0.48465705  0.66998251  0.63409251  1  -0.122257  -0.006802  3.733834  -0.008  -0.134275  -0.003441  3.982503  -0.004  -0.14204  -0.003083  4.002092  -0.004  -0.08082  -0.128943  -0.003712  3.970518  -0.005
C  C46  1  0.51532800  0.33004481  0.36591591  1  -0.122364  -0.006796  3.734156  -0.008  -0.134354  -0.00344  3.982735  -0.004  -0.142118  -0.003085  4.002323  -0.004  -0.080803  -0.129025  -0.003713  3.970758  -0.005
C  C47  1  0.47173594  0.68154921  0.51506344  1  -0.057421  0.007432  3.717561  0.007  -0.081479  0.003061  3.964965  0.003  -0.077909  0.003075  3.982873  0.003  -0.06713  -0.084915  0.003177  3.955643  0.003
C  C48  1  0.52825459  0.31846678  0.48493659  1  -0.057366  0.00742  3.717641  0.007  -0.081388  0.003059  3.965048  0.003  -0.077818  0.003076  3.982958  0.003  -0.067118  -0.084827  0.003177  3.955728  0.003
C  C49  1  0.56230231  0.78789720  0.48204883  1  0.022863  -0.00374  3.808652  -0.004  0.038592  -0.002064  4.040366  -0.002  0.036015  -0.001766  4.064569  -0.002  -0.005475  0.039745  -0.002331  4.025096  -0.003
C  C50  1  0.43769942  0.21210308  0.51794611  1  0.02294  -0.003728  3.808618  -0.004  0.038633  -0.002063  4.04038  -0.002  0.036055  -0.001766  4.064586  -0.002  -0.005505  0.039788  -0.002331  4.025111  -0.003
C  C51  1  0.66244168  0.87721106  0.57543364  1  0.12145  0.001306  3.781706  0.002  0.116264  -0.000562  4.0243  0.0  0.121322  9.9e-05  4.047025  0.001  0.112328  0.112769  -0.000999  4.009141  -0.001
C  C52  1  0.33756367  0.12279007  0.42456620  1  0.121466  0.001299  3.781842  0.002  0.116245  -0.000563  4.024515  0.0  0.121302  9.9e-05  4.047232  0.001  0.112396  0.112748  -0.000999  4.009352  -0.001
C  C53  1  0.75292306  0.99024180  0.54926333  1  0.114453  0.001059  3.801069  0.001  0.108992  -0.000656  4.044339  0.0  0.1134  2.6e-05  4.067741  0.001  0.111763  0.10639  -0.001104  4.028269  -0.001
C  C54  1  0.24708606  0.00976142  0.45073554  1  0.114445  0.001068  3.800721  0.001  0.108957  -0.000657  4.044057  0.0  0.113365  2.5e-05  4.06745  0.001  0.111732  0.10636  -0.001104  4.027971  -0.001
C  C55  1  0.74624095  0.01092307  0.42997387  1  0.027641  -0.003671  3.782062  -0.004  0.044079  -0.001998  4.013209  -0.002  0.040914  -0.001698  4.038058  -0.002  0.000928  0.046242  -0.002258  3.996797  -0.003
C  C56  1  0.25376696  0.98908106  0.57002939  1  0.027721  -0.003685  3.781749  -0.004  0.044168  -0.001997  4.012877  -0.002  0.041001  -0.001698  4.037728  -0.002  0.000909  0.046329  -0.002259  3.996462  -0.003
C  C57  1  0.84136902  0.12345542  0.41080811  1  -0.032963  0.007656  3.650648  0.007  -0.061493  0.003389  3.90678  0.003  -0.056402  0.003344  3.921374  0.003  -0.053507  -0.065414  0.003561  3.897972  0.003
C  C58  1  0.15862570  0.87655003  0.58919136  1  -0.033079  0.007672  3.650787  0.007  -0.061646  0.003388  3.906922  0.003  -0.056554  0.003345  3.921518  0.003  -0.053595  -0.065575  0.003561  3.898127  0.003
C  C59  1  0.93237830  0.20747962  0.50811404  1  -0.128636  -0.007187  3.747381  -0.008  -0.143365  -0.003566  4.003654  -0.004  -0.151551  -0.003135  4.024245  -0.004  -0.086129  -0.137882  -0.003865  3.990135  -0.005
C  C60  1  0.06762113  0.79252460  0.49188919  1  -0.128551  -0.007197  3.747517  -0.008  -0.143331  -0.003565  4.003797  -0.004  -0.151519  -0.003135  4.024393  -0.004  -0.086098  -0.137842  -0.003865  3.990271  -0.005
C  C61  1  0.93123612  0.17911738  0.62394460  1  0.146327  0.006864  3.66609  0.008  0.119076  0.001765  3.922338  0.003  0.131047  0.002518  3.936022  0.004  0.06032  0.111304  0.001208  3.913082  0.002
C  C62  1  0.06877039  0.82088363  0.37605795  1  0.146374  0.006878  3.66613  0.008  0.119092  0.001766  3.92242  0.003  0.131062  0.002518  3.936099  0.004  0.060287  0.111318  0.001208  3.913162  0.002
C  C63  1  0.64507885  0.91892079  0.33692972  1  -0.078503  -0.000773  3.654917  -0.001  -0.101539  -0.000561  3.906875  -0.001  -0.104382  -0.000496  3.928677  -0.001  -0.075569  -0.100255  -0.000625  3.893417  -0.001
C  C64  1  0.35492770  0.08108124  0.66307389  1  -0.07841  -0.000745  3.655058  -0.001  -0.101431  -0.000561  3.907002  -0.001  -0.104273  -0.000497  3.928802  -0.001  -0.075568  -0.100143  -0.000625  3.893535  -0.001
C  C65  1  0.55589721  0.81226037  0.36248764  1  -0.098373  -0.000745  3.703341  -0.001  -0.119335  -0.000535  3.955228  -0.001  -0.123165  -0.000437  3.977404  0.0  -0.082844  -0.116651  -0.000634  3.940919  -0.001
C  C66  1  0.44410803  0.18773869  0.63751095  1  -0.098581  -0.000775  3.703382  -0.001  -0.119508  -0.000534  3.955291  -0.001  -0.123337  -0.000436  3.977463  0.0  -0.082857  -0.116826  -0.000634  3.940982  -0.001
N  N67  1  0.67688622  0.86240239  0.69163833  1  -0.325448  -0.059851  3.30159  -0.076  -0.286883  -0.046904  3.599165  -0.063  -0.313793  -0.038799  3.615698  -0.055  -0.332006  -0.269283  -0.051444  3.58898  -0.067
N  N68  1  0.32311569  0.13760191  0.30836170  1  -0.325275  -0.059858  3.301717  -0.076  -0.286705  -0.046907  3.59922  -0.063  -0.313576  -0.038804  3.615744  -0.055  -0.33195  -0.269099  -0.05145  3.589022  -0.067
N  N69  1  0.84411935  0.07258021  0.64326885  1  -0.32388  -0.060088  3.31947  -0.077  -0.285425  -0.04698  3.618017  -0.064  -0.31113  -0.038492  3.634038  -0.055  -0.334531  -0.269535  -0.05175  3.608403  -0.068
N  N70  1  0.15588825  0.92741688  0.35672529  1  -0.32391  -0.060095  3.319253  -0.077  -0.285433  -0.04698  3.617762  -0.064  -0.311104  -0.038493  3.633774  -0.055  -0.334507  -0.269539  -0.051751  3.608129  -0.068
O  O71  1  0.89114839  0.87173218  0.90744955  1  -0.82322  -0.07573  2.048796  -0.102  -0.7874  -0.045758  2.36052  -0.066  -0.828043  -0.034055  2.336118  -0.052  -0.394263  -0.758597  -0.053242  2.376444  -0.074
O  O72  1  0.10886016  0.12826162  0.09254845  1  -0.823085  -0.075724  2.04884  -0.102  -0.787298  -0.045753  2.360567  -0.066  -0.827897  -0.034053  2.336167  -0.052  -0.394228  -0.758501  -0.053239  2.37651  -0.074
O  O73  1  0.98964255  0.86275539  0.12946136  1  -0.790168  -0.089916  2.053854  -0.121  -0.761903  -0.05054  2.368472  -0.073  -0.811583  -0.037679  2.352754  -0.058  -0.383899  -0.725888  -0.058163  2.378258  -0.081
O  O74  1  0.01036293  0.13722798  0.87053533  1  -0.790221  -0.089921  2.053996  -0.121  -0.76187  -0.050541  2.368609  -0.073  -0.811609  -0.03768  2.352919  -0.058  -0.383916  -0.725859  -0.058161  2.378413  -0.081
O  O75  1  0.70639162  0.93857628  0.07193455  1  -0.8417  0.063895  2.073504  0.081  -0.796572  0.043707  2.377718  0.06  -0.836442  0.034956  2.353338  0.05  -0.389186  -0.764671  0.047068  2.393306  0.062
O  O76  1  0.29362035  0.06141522  0.92806776  1  -0.841614  0.063883  2.073574  0.081  -0.796466  0.043698  2.3778  0.06  -0.836313  0.034948  2.353371  0.05  -0.389117  -0.764559  0.04706  2.393384  0.062
O  O77  1  0.58423670  0.19502887  0.05451531  1  -0.612525  0.091663  2.053207  0.117  -0.582354  0.058889  2.326007  0.083  -0.624056  0.04608  2.31717  0.068  -0.326479  -0.550779  0.064897  2.331301  0.088
O  O78  1  0.41578487  0.80496420  0.94549963  1  -0.612427  0.091663  2.053463  0.117  -0.582244  0.05889  2.326199  0.083  -0.623947  0.046082  2.317368  0.068  -0.326392  -0.550677  0.064894  2.331496  0.088
O  O79  1  0.65128906  0.15146926  0.86877409  1  -0.673725  -0.001549  2.05604  -0.002  -0.654128  -0.000849  2.344227  -0.001  -0.682128  -0.000954  2.327993  -0.002  -0.335229  -0.632682  -0.000449  2.354455  -0.001
O  O80  1  0.34871026  0.84851485  0.13123338  1  -0.673585  -0.001551  2.056008  -0.002  -0.654044  -0.000848  2.344136  -0.001  -0.682002  -0.000954  2.327875  -0.002  -0.335177  -0.632588  -0.000449  2.354347  -0.001
