# generated using pymatgen
data_NaH5C6O
_symmetry_space_group_name_H-M   'P 1'
_cell_length_a   5.74551618
_cell_length_b   10.27070173
_cell_length_c   10.99657385
_cell_angle_alpha   117.80873534
_cell_angle_beta   105.14796365
_cell_angle_gamma   90.01490567
_symmetry_Int_Tables_number   1
_chemical_formula_structural   NaH5C6O
_chemical_formula_sum   'Na4 H20 C24 O4'
_cell_volume   548.32579977
_cell_formula_units_Z   4
loop_
 _symmetry_equiv_pos_site_id
 _symmetry_equiv_pos_as_xyz
  1  'x, y, z'
loop_
 _atom_site_type_symbol
 _atom_site_label
 _atom_site_symmetry_multiplicity
 _atom_site_fract_x
 _atom_site_fract_y
 _atom_site_fract_z
 _atom_site_occupancy
 _atom_site_pbe_bader_spin_density
 _atom_site_pbe_cm5_charge
 _atom_site_pbe_ddec_charge
 _atom_site_pbe_ddec_spin_density
 _atom_site_pbe_ddec_sum_bond_order
 _atom_site_pbe_magmom
Na  Na0  1  0.05647602  0.17262403  0.12108921  1  0  0.657795  0.849483  0  0.550209  0
Na  Na1  1  0.93575264  0.82728106  0.87893053  1  0  0.657935  0.849548  0  0.550308  0
Na  Na2  1  0.55686307  0.94853886  0.12122755  1  0  0.657885  0.849387  0  0.550508  0
Na  Na3  1  0.43549937  0.05126980  0.87863497  1  0  0.65819  0.849495  0  0.550533  0
H  H4  1  0.78925171  0.22699784  0.36282391  1  0  0.103094  0.107891  0  1.029147  0
H  H5  1  0.42727015  0.77300418  0.63719117  1  0  0.103273  0.108252  0  1.02838  0
H  H6  1  0.29002812  0.13609825  0.36304077  1  0  0.103558  0.108471  0  1.02787  0
H  H7  1  0.92724460  0.86402655  0.63711768  1  0  0.1034  0.108355  0  1.027568  0
H  H8  1  0.13667520  0.43260647  0.48966014  1  0  0.099099  0.105183  0  1.015216  0
H  H9  1  0.64748483  0.56741450  0.51038073  1  0  0.09929  0.105466  0  1.015535  0
H  H10  1  0.63761964  0.05751224  0.48993468  1  0  0.099039  0.10498  0  1.015758  0
H  H11  1  0.14781131  0.94293579  0.51035992  1  0  0.099199  0.10494  0  1.016196  0
H  H12  1  0.17832242  0.60753165  0.39510725  1  0  0.093363  0.09984  0  1.041254  0
H  H13  1  0.78308195  0.39220712  0.60473534  1  0  0.093202  0.099844  0  1.041022  0
H  H14  1  0.67950717  0.78824671  0.39573559  1  0  0.093567  0.100163  0  1.041567  0
H  H15  1  0.28322822  0.21243915  0.60463725  1  0  0.093156  0.099259  0  1.041331  0
H  H16  1  0.86064074  0.58003068  0.17837861  1  0  0.095599  0.094424  0  1.027859  0
H  H17  1  0.68157881  0.41956549  0.82127101  1  0  0.095675  0.093856  0  1.027637  0
H  H18  1  0.36160335  0.59887823  0.17920632  1  0  0.095766  0.094649  0  1.027596  0
H  H19  1  0.18127737  0.40138151  0.82089550  1  0  0.096046  0.095099  0  1.027971  0
H  H20  1  0.51239728  0.37448326  0.05043995  1  0  0.097868  0.098221  0  1.04785  0
H  H21  1  0.46162290  0.62512057  0.94917203  1  0  0.097883  0.098117  0  1.048738  0
H  H22  1  0.01314146  0.67632593  0.05123543  1  0  0.097738  0.097645  0  1.048024  0
H  H23  1  0.96108835  0.32366415  0.94876943  1  0  0.097904  0.097807  0  1.048463  0
C  C24  1  0.62533981  0.28234915  0.19448276  1  0  0.042191  0.322501  0  4.280977  0
C  C25  1  0.43119235  0.71751513  0.80538898  1  0  0.043004  0.323483  0  4.281083  0
C  C26  1  0.12606797  0.91244091  0.19493503  1  0  0.042081  0.322293  0  4.281027  0
C  C27  1  0.93086349  0.08755070  0.80515601  1  0  0.042801  0.323327  0  4.280961  0
C  C28  1  0.80553324  0.30395443  0.32174153  1  0  -0.138119  -0.285818  0  4.045462  0
C  C29  1  0.48437901  0.69599451  0.67825600  1  0  -0.138041  -0.286037  0  4.047372  0
C  C30  1  0.30634060  0.01810703  0.32204630  1  0  -0.138345  -0.285782  0  4.044926  0
C  C31  1  0.98427793  0.98206419  0.67810564  1  0  -0.139183  -0.286997  0  4.046266  0
C  C32  1  0.00075009  0.41953689  0.39289160  1  0  -0.106483  -0.08878  0  4.093023  0
C  C33  1  0.60840423  0.58043309  0.60714256  1  0  -0.107452  -0.090061  0  4.094002  0
C  C34  1  0.50172851  0.97379850  0.39322297  1  0  -0.10688  -0.088633  0  4.093411  0
C  C35  1  0.10851361  0.02654507  0.60703543  1  0  -0.106788  -0.089273  0  4.092994  0
C  C36  1  0.02424001  0.51893249  0.34121155  1  0  -0.123332  -0.162056  0  4.069708  0
C  C37  1  0.68320951  0.48090461  0.65869023  1  0  -0.123488  -0.162283  0  4.069188  0
C  C38  1  0.52534922  0.82282547  0.34175851  1  0  -0.123955  -0.163154  0  4.069148  0
C  C39  1  0.18318371  0.17758275  0.65849923  1  0  -0.123478  -0.160995  0  4.067196  0
C  C40  1  0.84591974  0.50202066  0.21836305  1  0  -0.100937  -0.071698  0  4.082818  0
C  C41  1  0.62738096  0.49770327  0.78138523  1  0  -0.1006  -0.070306  0  4.081428  0
C  C42  1  0.34690787  0.71681879  0.21908050  1  0  -0.10106  -0.072077  0  4.081488  0
C  C43  1  0.12696205  0.28339505  0.78103128  1  0  -0.101469  -0.073365  0  4.083626  0
C  C44  1  0.65026039  0.38722406  0.14661035  1  0  -0.125499  -0.269137  0  4.030194  0
C  C45  1  0.50364403  0.61252741  0.85314760  1  0  -0.125529  -0.269396  0  4.031112  0
C  C46  1  0.15107516  0.75978665  0.14730503  1  0  -0.124649  -0.26747  0  4.028292  0
C  C47  1  0.00305548  0.24025809  0.85274052  1  0  -0.124542  -0.267049  0  4.029848  0
O  O48  1  0.44893914  0.16764385  0.12127608  1  0  -0.594568  -0.8001  0  2.234308  0
O  O49  1  0.32794701  0.83215319  0.87855491  1  0  -0.595369  -0.80054  0  2.232587  0
O  O50  1  0.94944651  0.95375491  0.12163651  1  0  -0.594781  -0.800269  0  2.233595  0
O  O51  1  0.82764176  0.04599672  0.87833681  1  0  -0.59505  -0.800704  0  2.233278  0
