# generated using pymatgen
data_CdH16C15(NO3)2
_symmetry_space_group_name_H-M   'P 1'
_cell_length_a   8.46166726
_cell_length_b   10.48568066
_cell_length_c   10.44028609
_cell_angle_alpha   65.44785265
_cell_angle_beta   81.00177526
_cell_angle_gamma   79.98221394
_symmetry_Int_Tables_number   1
_chemical_formula_structural   CdH16C15(NO3)2
_chemical_formula_sum   'Cd2 H32 C30 N4 O12'
_cell_volume   826.05962790
_cell_formula_units_Z   2
loop_
 _symmetry_equiv_pos_site_id
 _symmetry_equiv_pos_as_xyz
  1  'x, y, z'
loop_
 _atom_site_type_symbol
 _atom_site_label
 _atom_site_symmetry_multiplicity
 _atom_site_fract_x
 _atom_site_fract_y
 _atom_site_fract_z
 _atom_site_occupancy
 _atom_site_hle17_bader_spin_density
 _atom_site_hle17_ddec_charge
 _atom_site_hle17_ddec_spin_density
 _atom_site_hle17_ddec_sum_bond_order
 _atom_site_hle17_magmom
 _atom_site_hse06_10hf_bader_spin_density
 _atom_site_hse06_10hf_ddec_charge
 _atom_site_hse06_10hf_ddec_spin_density
 _atom_site_hse06_10hf_ddec_sum_bond_order
 _atom_site_hse06_10hf_magmom
 _atom_site_hse06_bader_spin_density
 _atom_site_hse06_ddec_charge
 _atom_site_hse06_ddec_spin_density
 _atom_site_hse06_ddec_sum_bond_order
 _atom_site_hse06_magmom
 _atom_site_pbe_bader_spin_density
 _atom_site_pbe_cm5_charge
 _atom_site_pbe_ddec_charge
 _atom_site_pbe_ddec_spin_density
 _atom_site_pbe_ddec_sum_bond_order
 _atom_site_pbe_magmom
Cd  Cd0  1  0.75051446  0.63742148  0.79489169  1  0  1.128595  0  1.638972  0  0  0.924937  0  2.08611  0  0  0.98556  0  2.032254  0  0  0.755096  0.881664  0  2.123055  0
Cd  Cd1  1  0.24948145  0.36257688  0.20510326  1  0  1.128548  0  1.639082  0  0  0.924849  0  2.086235  0  0  0.985473  0  2.03238  0  0  0.755059  0.881578  0  2.12318  0
H  H2  1  0.80663376  0.49855907  0.57262857  1  0  0.080177  0  0.97983  0  0  0.087714  0  1.046198  0  0  0.089542  0  1.045451  0  0  0.113364  0.086268  0  1.046923  0
H  H3  1  0.19334092  0.50143420  0.42737828  1  0  0.080181  0  0.979951  0  0  0.087698  0  1.046293  0  0  0.089527  0  1.045543  0  0  0.113388  0.086227  0  1.047045  0
H  H4  1  0.96457536  0.30298166  0.50658641  1  0  0.112498  0  0.965526  0  0  0.121136  0  1.025172  0  0  0.123749  0  1.02572  0  0  0.110377  0.119186  0  1.025004  0
H  H5  1  0.03538990  0.69700622  0.49341996  1  0  0.112236  0  0.965848  0  0  0.120954  0  1.025428  0  0  0.12356  0  1.025985  0  0  0.11025  0.119007  0  1.02525  0
H  H6  1  0.14802919  0.12282875  0.67328749  1  0  0.104256  0  0.956417  0  0  0.116871  0  1.014766  0  0  0.118914  0  1.013859  0  0  0.115871  0.115197  0  1.015632  0
H  H7  1  0.85194755  0.87716472  0.32670852  1  0  0.104198  0  0.956408  0  0  0.116819  0  1.01474  0  0  0.118857  0  1.013839  0  0  0.115874  0.115153  0  1.015611  0
H  H8  1  0.00971348  0.34020755  0.95395078  1  0  0.103566  0  0.959773  0  0  0.10832  0  1.028118  0  0  0.111719  0  1.024558  0  0  0.122317  0.105579  0  1.031108  0
H  H9  1  0.99030127  0.65979937  0.04603714  1  0  0.103645  0  0.959814  0  0  0.108407  0  1.028148  0  0  0.111799  0  1.024608  0  0  0.122333  0.105664  0  1.031141  0
H  H10  1  0.46247856  0.65999953  0.02553732  1  0  0.090504  0  0.975641  0  0  0.098732  0  1.038463  0  0  0.101583  0  1.035974  0  0  0.11765  0.096691  0  1.040267  0
H  H11  1  0.53755124  0.34001913  0.97447953  1  0  0.090632  0  0.975499  0  0  0.09872  0  1.038455  0  0  0.101571  0  1.035965  0  0  0.117729  0.096679  0  1.040266  0
H  H12  1  0.25079951  0.82691363  0.08903988  1  0  0.108593  0  0.964656  0  0  0.115328  0  1.029434  0  0  0.118105  0  1.029748  0  0  0.108276  0.113338  0  1.029331  0
H  H13  1  0.74920661  0.17310613  0.91095912  1  0  0.108629  0  0.964587  0  0  0.115331  0  1.029425  0  0  0.118108  0  1.029738  0  0  0.108267  0.113346  0  1.02931  0
H  H14  1  0.42204509  0.16381447  0.70817752  1  0  0.11686  0  0.950695  0  0  0.125027  0  1.012313  0  0  0.128595  0  1.010987  0  0  0.110378  0.122428  0  1.013441  0
H  H15  1  0.57794207  0.83618986  0.29180656  1  0  0.116924  0  0.9507  0  0  0.125106  0  1.012302  0  0  0.128674  0  1.010976  0  0  0.110406  0.122505  0  1.013435  0
H  H16  1  0.64079618  0.98512201  0.67053795  1  0  0.092596  0  0.924058  0  0  0.102134  0  0.981938  0  0  0.104753  0  0.979768  0  0  0.123808  0.100219  0  0.983407  0
H  H17  1  0.35920432  0.01488787  0.32945591  1  0  0.092654  0  0.923985  0  0  0.102182  0  0.981848  0  0  0.104802  0  0.979675  0  0  0.123822  0.100267  0  0.983314  0
H  H18  1  0.26501554  0.80766082  0.62826291  1  0  0.134239  0  0.953017  0  0  0.156798  0  1.009527  0  0  0.158326  0  1.009825  0  0  0.097174  0.155815  0  1.009194  0
H  H19  1  0.73500645  0.19231485  0.37175169  1  0  0.134259  0  0.953081  0  0  0.156813  0  1.009607  0  0  0.158311  0  1.009938  0  0  0.097161  0.155834  0  1.009269  0
H  H20  1  0.19083770  0.88568336  0.74938128  1  0  0.127587  0  0.969638  0  0  0.142775  0  1.037013  0  0  0.144495  0  1.038051  0  0  0.091204  0.141616  0  1.036313  0
H  H21  1  0.80917298  0.11429785  0.25062568  1  0  0.127681  0  0.969531  0  0  0.142881  0  1.036906  0  0  0.144597  0  1.037944  0  0  0.09126  0.141717  0  1.036212  0
H  H22  1  0.13286114  0.96919887  0.57035418  1  0  0.15097  0  0.961708  0  0  0.165132  0  1.025229  0  0  0.168966  0  1.022339  0  0  0.095189  0.162187  0  1.02766  0
H  H23  1  0.86715532  0.03077361  0.42965027  1  0  0.150914  0  0.961573  0  0  0.165157  0  1.025021  0  0  0.168965  0  1.022153  0  0  0.095263  0.162212  0  1.027452  0
H  H24  1  0.33420594  0.62980912  0.50972894  1  0  0.123795  0  0.956518  0  0  0.143548  0  1.015015  0  0  0.145515  0  1.01489  0  0  0.093126  0.142026  0  1.015296  0
H  H25  1  0.66576652  0.37019304  0.49028010  1  0  0.123843  0  0.956559  0  0  0.143618  0  1.014997  0  0  0.145592  0  1.014864  0  0  0.093138  0.142083  0  1.015293  0
H  H26  1  0.25770639  0.54294616  0.69157739  1  0  0.136207  0  0.964296  0  0  0.152274  0  1.028618  0  0  0.154892  0  1.028266  0  0  0.095626  0.150428  0  1.028811  0
H  H27  1  0.74227850  0.45704819  0.30843221  1  0  0.136215  0  0.964163  0  0  0.152293  0  1.028469  0  0  0.154912  0  1.028114  0  0  0.095563  0.150447  0  1.028665  0
H  H28  1  0.39982717  0.44951724  0.60839571  1  0  0.142035  0  0.945733  0  0  0.161822  0  1.005794  0  0  0.164521  0  1.004802  0  0  0.099437  0.159778  0  1.00671  0
H  H29  1  0.60016452  0.55048769  0.39160328  1  0  0.142193  0  0.945595  0  0  0.161954  0  1.005668  0  0  0.16465  0  1.00468  0  0  0.099503  0.159915  0  1.00658  0
H  H30  1  0.83331799  0.44219332  0.08508959  1  0  0.427712  0  0.878718  0  0  0.394984  0  0.945123  0  0  0.406704  0  0.928188  0  0  0.284561  0.386506  0  0.957405  0
H  H31  1  0.16668349  0.55779956  0.91491052  1  0  0.427598  0  0.87888  0  0  0.394925  0  0.945209  0  0  0.406646  0  0.928271  0  0  0.284548  0.386446  0  0.957492  0
H  H32  1  0.64558854  0.49453236  0.09922075  1  0  0.414841  0  0.900988  0  0  0.382211  0  0.968101  0  0  0.3939  0  0.951222  0  0  0.279735  0.373869  0  0.980116  0
H  H33  1  0.35441646  0.50547222  0.90077637  1  0  0.414811  0  0.901045  0  0  0.382224  0  0.968082  0  0  0.393917  0  0.951191  0  0  0.279761  0.373885  0  0.980089  0
C  C34  1  0.88966056  0.41676934  0.64213793  1  0  0.117815  0  3.713373  0  0  0.087418  0  3.962694  0  0  0.094633  0  3.982439  0  0  0.046866  0.082674  0  3.949225  0
C  C35  1  0.11031931  0.58322353  0.35786479  1  0  0.117886  0  3.713374  0  0  0.087528  0  3.962643  0  0  0.094744  0  3.982388  0  0  0.046872  0.082802  0  3.949179  0
C  C36  1  0.97587826  0.30875743  0.60633904  1  0  -0.118239  0  3.729339  0  0  -0.126345  0  3.977613  0  0  -0.135021  0  3.999418  0  0  -0.080846  -0.120733  0  3.962959  0
C  C37  1  0.02409909  0.69123649  0.39366257  1  0  -0.117989  0  3.729359  0  0  -0.126162  0  3.977615  0  0  -0.134829  0  3.999401  0  0  -0.080697  -0.120551  0  3.962965  0
C  C38  1  0.08004713  0.20806042  0.69968844  1  0  0.006185  0  3.661258  0  0  -0.024151  0  3.906165  0  0  -0.018165  0  3.923327  0  0  -0.049078  -0.027408  0  3.894366  0
C  C39  1  0.91994125  0.79193972  0.30030652  1  0  0.006145  0  3.661067  0  0  -0.024144  0  3.905974  0  0  -0.018161  0  3.923145  0  0  -0.049148  -0.027417  0  3.894188  0
C  C40  1  0.09104089  0.21671019  0.82827615  1  0  -0.095258  0  3.741732  0  0  -0.074858  0  3.980414  0  0  -0.086423  0  4.004633  0  0  -0.012778  -0.067797  0  3.964449  0
C  C41  1  0.90896395  0.78329840  0.17171200  1  0  -0.095187  0  3.74153  0  0  -0.074884  0  3.980386  0  0  -0.08645  0  4.004602  0  0  -0.012769  -0.067822  0  3.96442  0
C  C42  1  0.00128333  0.33058479  0.85518730  1  0  0.135857  0  3.633577  0  0  0.095115  0  3.887911  0  0  0.10467  0  3.903275  0  0  0.065023  0.088546  0  3.878251  0
C  C43  1  0.99871799  0.66942227  0.14480449  1  0  0.13575  0  3.633726  0  0  0.095002  0  3.888123  0  0  0.104555  0  3.903484  0  0  0.065006  0.088436  0  3.878459  0
C  C44  1  0.18090026  0.10206351  0.94214752  1  0  0.393525  0  3.706379  0  0  0.373923  0  3.966414  0  0  0.39471  0  3.970043  0  0  0.170695  0.360037  0  3.963431  0
C  C45  1  0.81910823  0.89795414  0.05784329  1  0  0.39375  0  3.705701  0  0  0.374109  0  3.965804  0  0  0.394895  0  3.969427  0  0  0.170815  0.360226  0  3.962819  0
C  C46  1  0.45289840  0.77257498  0.95936673  1  0  0.127904  0  3.688002  0  0  0.100047  0  3.935721  0  0  0.105943  0  3.954122  0  0  0.047088  0.096025  0  3.923403  0
C  C47  1  0.54712240  0.22744415  0.04064294  1  0  0.12775  0  3.68791  0  0  0.100078  0  3.935594  0  0  0.105977  0  3.953992  0  0  0.047017  0.096049  0  3.923279  0
C  C48  1  0.33381241  0.86507242  0.99428120  1  0  -0.123785  0  3.701298  0  0  -0.144347  0  3.951305  0  0  -0.149936  0  3.971954  0  0  -0.075349  -0.140843  0  3.937667  0
C  C49  1  0.66619897  0.13494418  0.00572033  1  0  -0.12384  0  3.701467  0  0  -0.144429  0  3.951407  0  0  -0.150023  0  3.972057  0  0  -0.075361  -0.140921  0  3.937771  0
C  C50  1  0.31774312  0.00825937  0.90366097  1  0  0.013287  0  3.747354  0  0  0.023859  0  3.985191  0  0  0.02343  0  4.00655  0  0  0.001626  0.024232  0  3.970677  0
C  C51  1  0.68226054  0.99175646  0.09633560  1  0  0.013197  0  3.747482  0  0  0.023871  0  3.985231  0  0  0.023446  0  4.006586  0  0  0.001582  0.02424  0  3.970718  0
C  C52  1  0.42840888  0.05388166  0.78371366  1  0  -0.140888  0  3.693635  0  0  -0.158388  0  3.941198  0  0  -0.16507  0  3.962367  0  0  -0.074036  -0.15382  0  3.926627  0
C  C53  1  0.57159210  0.94612623  0.21627983  1  0  -0.140995  0  3.69385  0  0  -0.15855  0  3.941365  0  0  -0.165234  0  3.962533  0  0  -0.074121  -0.153982  0  3.9268  0
C  C54  1  0.54923002  0.95463088  0.76018335  1  0  0.143944  0  3.683055  0  0  0.113564  0  3.936526  0  0  0.120583  0  3.95414  0  0  0.058685  0.109041  0  3.924138  0
C  C55  1  0.45077847  0.04537882  0.23981479  1  0  0.143844  0  3.68296  0  0  0.113511  0  3.936418  0  0  0.120529  0  3.954031  0  0  0.058725  0.108991  0  3.924023  0
C  C56  1  0.01860468  0.78383345  0.70933403  1  0  0.744428  0  3.840076  0  0  0.698712  0  4.137976  0  0  0.733191  0  4.130733  0  0  0.200499  0.675219  0  4.141545  0
C  C57  1  0.98141591  0.21613593  0.29067205  1  0  0.744109  0  3.840663  0  0  0.698518  0  4.13834  0  0  0.732997  0  4.131092  0  0  0.200539  0.675025  0  4.141905  0
C  C58  1  0.15925515  0.86877238  0.66013684  1  0  -0.456578  0  3.638796  0  0  -0.52782  0  3.867183  0  0  -0.535182  0  3.869069  0  0  -0.248953  -0.522581  0  3.865823  0
C  C59  1  0.84076231  0.13120490  0.33987084  1  0  -0.456713  0  3.638758  0  0  -0.528098  0  3.86717  0  0  -0.535398  0  3.86909  0  0  -0.249189  -0.522863  0  3.865815  0
C  C60  1  0.50317669  0.59377041  0.65912612  1  0  0.725728  0  3.870583  0  0  0.68369  0  4.166372  0  0  0.716838  0  4.160456  0  0  0.195327  0.661097  0  4.169474  0
C  C61  1  0.49680556  0.40623272  0.34087705  1  0  0.725992  0  3.870364  0  0  0.683894  0  4.166171  0  0  0.717042  0  4.160254  0  0  0.195397  0.661299  0  4.169273  0
C  C62  1  0.36410426  0.55290268  0.61481659  1  0  -0.464005  0  3.662506  0  0  -0.537275  0  3.893488  0  0  -0.545009  0  3.896734  0  0  -0.252397  -0.531592  0  3.891118  0
C  C63  1  0.63587527  0.44710117  0.38518849  1  0  -0.464408  0  3.662361  0  0  -0.537692  0  3.893443  0  0  -0.545429  0  3.896678  0  0  -0.252511  -0.532  0  3.891091  0
N  N64  1  0.90384597  0.42938659  0.76316457  1  0  -0.334468  0  3.207882  0  0  -0.261106  0  3.476499  0  0  -0.281558  0  3.494642  0  0  -0.320392  -0.247182  0  3.464099  0
N  N65  1  0.09614433  0.57061426  0.23683388  1  0  -0.334565  0  3.207928  0  0  -0.261185  0  3.476519  0  0  -0.281635  0  3.494661  0  0  -0.320446  -0.247258  0  3.464108  0
N  N66  1  0.55963177  0.81624324  0.84452399  1  0  -0.315051  0  3.208946  0  0  -0.243477  0  3.472945  0  0  -0.262533  0  3.492509  0  0  -0.313216  -0.230288  0  3.459455  0
N  N67  1  0.44038797  0.18377096  0.15548345  1  0  -0.31487  0  3.208725  0  0  -0.243371  0  3.472706  0  0  -0.262426  0  3.492271  0  0  -0.313196  -0.230178  0  3.459215  0
O  O68  1  0.13801793  0.07736894  0.06783624  1  0  -0.428844  0  1.907133  0  0  -0.389483  0  2.109491  0  0  -0.406955  0  2.108965  0  0  -0.242016  -0.377553  0  2.109559  0
O  O69  1  0.86198977  0.92265810  0.93215264  1  0  -0.428971  0  1.906825  0  0  -0.389582  0  2.109175  0  0  -0.407054  0  2.108646  0  0  -0.242085  -0.377652  0  2.109241  0
O  O70  1  0.02274885  0.67175379  0.82361646  1  0  -0.677916  0  2.01024  0  0  -0.603068  0  2.241926  0  0  -0.633157  0  2.231623  0  0  -0.327258  -0.581597  0  2.248203  0
O  O71  1  0.97725628  0.32822716  0.17640064  1  0  -0.677831  0  2.010295  0  0  -0.602957  0  2.241851  0  0  -0.633044  0  2.231549  0  0  -0.327332  -0.581485  0  2.248127  0
O  O72  1  0.60190767  0.66926636  0.56790710  1  0  -0.646417  0  1.872954  0  0  -0.595555  0  2.095287  0  0  -0.620363  0  2.08611  0  0  -0.334725  -0.577971  0  2.100861  0
O  O73  1  0.39807272  0.33073617  0.43209158  1  0  -0.646341  0  1.872876  0  0  -0.595467  0  2.095231  0  0  -0.620277  0  2.086062  0  0  -0.334656  -0.577881  0  2.100802  0
O  O74  1  0.51793641  0.54492685  0.79335281  1  0  -0.684914  0  2.039763  0  0  -0.603546  0  2.272395  0  0  -0.635139  0  2.262609  0  0  -0.333345  -0.581309  0  2.278367  0
O  O75  1  0.48205006  0.45508494  0.20664731  1  0  -0.685082  0  2.039659  0  0  -0.603636  0  2.272312  0  0  -0.63522  0  2.262519  0  0  -0.333383  -0.581394  0  2.278285  0
O  O76  1  0.89831469  0.82270642  0.63596742  1  0  -0.65151  0  1.922332  0  0  -0.582645  0  2.153281  0  0  -0.611969  0  2.142932  0  0  -0.325413  -0.561825  0  2.159685  0
O  O77  1  0.10171936  0.17725193  0.36402181  1  0  -0.65127  0  1.922642  0  0  -0.582416  0  2.15346  0  0  -0.611748  0  2.143134  0  0  -0.325278  -0.561597  0  2.159855  0
O  O78  1  0.74814815  0.51942435  0.03724240  1  0  -0.865714  0  1.875943  0  0  -0.803963  0  2.089808  0  0  -0.827308  0  2.053925  0  0  -0.609146  -0.787123  0  2.11496  0
O  O79  1  0.25185776  0.48057106  0.96275465  1  0  -0.865635  0  1.876083  0  0  -0.803914  0  2.089833  0  0  -0.827267  0  2.053967  0  0  -0.609158  -0.78708  0  2.114988  0
