# generated using pymatgen
data_Ni2H28C40N4O9
_symmetry_space_group_name_H-M   'P 1'
_cell_length_a   13.70855629
_cell_length_b   13.70864719
_cell_length_c   18.00669164
_cell_angle_alpha   103.10368705
_cell_angle_beta   103.10289635
_cell_angle_gamma   113.87011523
_symmetry_Int_Tables_number   1
_chemical_formula_structural   Ni2H28C40N4O9
_chemical_formula_sum   'Ni4 H56 C80 N8 O18'
_cell_volume   2814.67746684
_cell_formula_units_Z   2
loop_
 _symmetry_equiv_pos_site_id
 _symmetry_equiv_pos_as_xyz
  1  'x, y, z'
loop_
 _atom_site_type_symbol
 _atom_site_label
 _atom_site_symmetry_multiplicity
 _atom_site_fract_x
 _atom_site_fract_y
 _atom_site_fract_z
 _atom_site_occupancy
 _atom_site_pbe_bader_charge
 _atom_site_pbe_bader_spin_density
 _atom_site_pbe_cm5_charge
 _atom_site_pbe_ddec_charge
 _atom_site_pbe_ddec_spin_density
 _atom_site_pbe_ddec_sum_bond_order
 _atom_site_pbe_magmom
Ni  Ni0  1  0.19490375  0.21082276  0.19814924  1  1.285376  1.256177  0.732314  0.917155  1.563252  2.786856  1.232
Ni  Ni1  1  0.00340015  0.98743584  0.19813994  1  1.288316  1.260968  0.731113  0.914999  1.569595  2.786861  1.236
Ni  Ni2  1  0.96080797  0.44489745  0.69814890  1  1.28527  1.255987  0.732405  0.917416  1.563026  2.786716  1.231
Ni  Ni3  1  0.73742054  0.25338740  0.69813314  1  1.288172  1.261204  0.730948  0.914854  1.569891  2.786444  1.237
H  H4  1  0.00895743  0.24973249  0.24125446  1  0.154968  0.001965  0.1278  0.107119  0.000853  1.002999  0.001
H  H5  1  0.99119432  0.41481087  0.31618093  1  0.073927  0.00112  0.113815  0.122718  0.000548  0.980432  0.0
H  H6  1  0.34787283  0.62980072  0.36020686  1  0.050541  0.000893  0.105506  0.111298  0.000442  1.006096  0.0
H  H7  1  0.34898884  0.45578187  0.28248750  1  0.10469  0.001668  0.118948  0.087942  0.000575  1.030156  0.001
H  H8  1  0.07499350  0.61610424  0.38757173  1  0.02597  9.8e-05  0.104639  0.083158  7.1e-05  0.979346  0.0
H  H9  1  0.31191313  0.67787077  0.49775045  1  0.053788  -4.2e-05  0.107437  0.086587  -3.2e-05  0.975787  0.0
H  H10  1  0.18618484  0.47730262  0.50226454  1  0.101074  0.0004  0.116105  0.132559  0.000193  0.97706  0.0
H  H11  1  0.08032912  0.38837065  0.58565764  1  0.157343  0.000579  0.125562  0.102396  0.0002  1.001281  0.0
H  H12  1  0.04067925  0.66870477  0.67732485  1  0.139513  0.000545  0.126899  0.106558  0.000145  0.990372  0.0
H  H13  1  0.14473706  0.77195910  0.59819024  1  0.074216  0.000307  0.107461  0.11611  0.00016  1.002921  0.0
H  H14  1  0.33758164  0.06413061  0.05394907  1  0.060198  0.000323  0.100055  0.102578  0.00018  1.013578  0.0
H  H15  1  0.37469245  0.96220547  0.93855124  1  0.040773  0.000393  0.092125  0.087355  0.000196  1.020716  0.0
H  H16  1  0.22164135  0.76881907  0.84039155  1  0.061576  0.000192  0.094772  0.092318  0.000111  1.034153  0.0
H  H17  1  0.00018606  0.77850184  0.97246396  1  0.107243  0.000453  0.104446  0.109576  0.000276  1.02767  0.0
H  H18  1  0.23266290  0.99153084  0.24149003  1  0.151218  0.001965  0.128291  0.107997  0.000851  1.003906  0.001
H  H19  1  0.32513609  0.90121029  0.31640807  1  0.081137  0.00112  0.114293  0.123304  0.00055  0.980354  0.0
H  H20  1  0.01228307  0.73043135  0.36021013  1  0.06348  0.000887  0.105815  0.110409  0.000444  1.005283  0.0
H  H21  1  0.93376467  0.82701579  0.28261308  1  0.125806  0.001661  0.118294  0.087279  0.000579  1.030552  0.001
H  H22  1  0.31242241  0.77116401  0.38758145  1  0.05599  9.8e-05  0.105283  0.083908  7.1e-05  0.979655  0.0
H  H23  1  0.18584795  0.81966381  0.49779201  1  0.054796  -4.3e-05  0.106131  0.085132  -3.3e-05  0.976515  0.0
H  H24  1  0.31593752  0.02473242  0.50224015  1  0.102882  0.000409  0.115882  0.131623  0.000196  0.977628  0.0
H  H25  1  0.50513009  0.19715463  0.58556644  1  0.135061  0.00059  0.125331  0.102416  0.000205  1.002967  0.0
H  H26  1  0.63683574  0.00870626  0.67709906  1  0.113473  0.000556  0.126593  0.105533  0.000151  0.991589  0.0
H  H27  1  0.45365210  0.82623223  0.59810863  1  0.066448  0.000314  0.107351  0.11682  0.000163  1.002833  0.0
H  H28  1  0.71645341  0.98976442  0.05386188  1  0.082267  0.000322  0.100673  0.103413  0.000182  1.01457  0.0
H  H29  1  0.56376907  0.97618278  0.93849898  1  0.049117  0.000391  0.091719  0.086787  0.000196  1.021479  0.0
H  H30  1  0.61859114  0.07146900  0.84032761  1  0.070778  0.000186  0.094954  0.092025  0.000112  1.034038  0.0
H  H31  1  0.97219472  0.19386838  0.97226502  1  0.112932  0.000449  0.103656  0.109242  0.000276  1.02766  0.0
H  H32  1  0.99973541  0.25895241  0.74125860  1  0.155055  0.001963  0.127796  0.107145  0.000852  1.002969  0.001
H  H33  1  0.16481974  0.24119179  0.81618533  1  0.073884  0.00112  0.113795  0.122686  0.000548  0.980435  0.0
H  H34  1  0.37979631  0.59787970  0.86021160  1  0.050499  0.000893  0.105518  0.111282  0.000442  1.006183  0.0
H  H35  1  0.20576643  0.59898500  0.78249532  1  0.104564  0.001667  0.118961  0.087936  0.000575  1.030295  0.001
H  H36  1  0.36611048  0.32500471  0.88757591  1  0.026172  9.8e-05  0.104628  0.083174  7.1e-05  0.979339  0.0
H  H37  1  0.42788343  0.56192421  0.99775334  1  0.054046  -4.2e-05  0.107413  0.086493  -3.2e-05  0.975793  0.0
H  H38  1  0.22732424  0.43620902  0.00227816  1  0.100863  0.0004  0.116106  0.132542  0.000193  0.977064  0.0
H  H39  1  0.13837971  0.33034649  0.08566103  1  0.157438  0.00058  0.125612  0.102482  0.0002  1.00119  0.0
H  H40  1  0.41870216  0.29066831  0.17731518  1  0.139587  0.000546  0.126924  0.106571  0.000146  0.990309  0.0
H  H41  1  0.52195293  0.39473064  0.09818290  1  0.074255  0.000307  0.107468  0.116117  0.00016  1.00315  0.0
H  H42  1  0.81413016  0.58757507  0.55395597  1  0.06002  0.000323  0.100036  0.102607  0.00018  1.01368  0.0
H  H43  1  0.71221475  0.62469587  0.43855946  1  0.040782  0.000393  0.09213  0.087332  0.000196  1.020663  0.0
H  H44  1  0.51883433  0.47164702  0.34038804  1  0.061614  0.000192  0.094824  0.092325  0.000111  1.034317  0.0
H  H45  1  0.52849311  0.25018396  0.47245313  1  0.107272  0.000453  0.104445  0.109503  0.000277  1.02767  0.0
H  H46  1  0.74153038  0.48264754  0.74148215  1  0.151221  0.001965  0.128293  0.108012  0.000851  1.00379  0.001
H  H47  1  0.65122335  0.57513645  0.81640636  1  0.081197  0.001121  0.114251  0.123271  0.00055  0.980166  0.0
H  H48  1  0.48041424  0.26228097  0.86019551  1  0.063393  0.000888  0.105765  0.11036  0.000444  1.005399  0.0
H  H49  1  0.57699023  0.18374882  0.78260186  1  0.125757  0.001663  0.118283  0.087227  0.000579  1.03049  0.001
H  H50  1  0.52116843  0.56242849  0.88757827  1  0.056052  9.8e-05  0.105291  0.083879  7.1e-05  0.979637  0.0
H  H51  1  0.56967323  0.43585688  0.99779136  1  0.054569  -4.3e-05  0.106123  0.085121  -3.3e-05  0.976372  0.0
H  H52  1  0.77474193  0.56594147  0.00223379  1  0.102809  0.000408  0.115875  0.131629  0.000196  0.977592  0.0
H  H53  1  0.94716574  0.75513402  0.08557355  1  0.134864  0.000589  0.125294  0.102326  0.000204  1.003035  0.0
H  H54  1  0.75871942  0.88683786  0.17711995  1  0.113561  0.000556  0.126557  0.105457  0.000151  0.991694  0.0
H  H55  1  0.57623674  0.70365452  0.09811904  1  0.066285  0.000314  0.107342  0.116822  0.000162  1.002859  0.0
H  H56  1  0.73976239  0.96644042  0.55385247  1  0.082438  0.000322  0.100664  0.103424  0.000182  1.01447  0.0
H  H57  1  0.72619524  0.81377481  0.43848361  1  0.049171  0.000391  0.091747  0.086791  0.000196  1.02139  0.0
H  H58  1  0.82147609  0.86860432  0.34031484  1  0.070624  0.000187  0.094933  0.09207  0.000112  1.034029  0.0
H  H59  1  0.94385793  0.22219953  0.47226289  1  0.112815  0.000449  0.103698  0.109314  0.000276  1.027667  0.0
C  C60  1  0.08062913  0.33590394  0.26642701  1  0.477965  -0.00268  0.069484  0.138472  -0.003221  3.880648  -0.002
C  C61  1  0.07227861  0.42891014  0.30921752  1  0.015716  0.004698  -0.077855  -0.175087  0.00286  3.921779  0.004
C  C62  1  0.16790581  0.53760526  0.34456174  1  -0.014639  -0.004402  0.005042  0.126758  -0.004903  3.986246  -0.003
C  C63  1  0.26957851  0.54796353  0.33423293  1  -0.011232  0.004751  -0.095561  -0.199871  0.002886  3.98522  0.004
C  C64  1  0.27151744  0.45189362  0.29070437  1  0.487368  -0.002445  0.0475  0.0939  -0.003075  3.969265  -0.002
C  C65  1  0.16399257  0.63684846  0.39624815  1  0.016943  -0.000185  -0.071362  -0.074484  -0.000324  3.815145  0.0
C  C66  1  0.23359932  0.68535643  0.49056427  1  -0.017369  -0.000463  -0.07541  -0.083195  -0.000543  3.841667  0.0
C  C67  1  0.17473140  0.63318141  0.54281192  1  -0.030541  -0.002541  0.004766  0.12827  -0.002816  3.983322  -0.002
C  C68  1  0.15642999  0.52402324  0.54053159  1  -0.044985  0.002092  -0.084247  -0.183351  0.001233  3.93398  0.002
C  C69  1  0.09792449  0.47369210  0.58679021  1  0.477662  -0.001373  0.055398  0.100648  -0.001599  3.931107  -0.001
C  C70  1  0.07454328  0.63050189  0.63726091  1  0.467951  -0.002473  0.054239  0.102705  -0.002972  3.937974  -0.002
C  C71  1  0.13265254  0.68667680  0.59282406  1  -0.035193  0.001705  -0.093476  -0.199753  0.000975  3.968728  0.001
C  C72  1  0.16746866  0.92798975  0.02100959  1  -0.084501  0.020605  -0.021185  -0.032624  0.013268  3.966777  0.016
C  C73  1  0.27273723  0.97935124  0.01078942  1  -0.007028  -0.000652  -0.088798  -0.091764  -0.001167  3.984198  0.0
C  C74  1  0.29261887  0.92210807  0.94628495  1  -0.047245  0.001303  -0.106963  -0.110664  0.000701  4.0766  0.001
C  C75  1  0.20755087  0.81387401  0.89152028  1  -0.028555  -0.001863  -0.091051  -0.097205  -0.002179  3.998607  -0.001
C  C76  1  0.10209409  0.76156919  0.90111616  1  -0.088723  0.013838  -0.020229  -0.031724  0.008743  3.957902  0.011
C  C77  1  0.08285099  0.81926721  0.96611242  1  0.036532  0.000525  -0.078392  -0.103018  -0.000293  3.926298  0.001
C  C78  1  0.14624037  0.99105502  0.08998847  1  1.563957  -0.000304  0.217139  0.576185  -0.000384  4.168128  -0.002
C  C79  1  0.00799158  0.64391764  0.84224756  1  1.60451  -0.000913  0.2048  0.573602  -0.000854  4.202274  -0.002
C  C80  1  0.18607729  0.93056659  0.26662095  1  0.541811  -0.00278  0.066594  0.135121  -0.003212  3.886653  -0.002
C  C81  1  0.23709979  0.88024222  0.30939458  1  -0.02497  0.00479  -0.080275  -0.177699  0.002878  3.923115  0.004
C  C82  1  0.17664768  0.80682781  0.34462877  1  -0.0462  -0.00441  0.005202  0.127478  -0.004906  3.985779  -0.003
C  C83  1  0.06467127  0.78625310  0.33425509  1  -0.02306  0.004777  -0.094403  -0.197083  0.002897  3.984319  0.004
C  C84  1  0.01939680  0.83897629  0.29078565  1  0.463468  -0.002421  0.049287  0.095492  -0.003078  3.968041  -0.002
C  C85  1  0.23212623  0.75913364  0.39627124  1  -0.018057  -0.000183  -0.070694  -0.075186  -0.000324  3.816305  0.0
C  C86  1  0.25696083  0.80499720  0.49058360  1  0.008403  -0.000458  -0.074895  -0.082392  -0.000543  3.84213  0.0
C  C87  1  0.36810656  0.90947879  0.54276277  1  -0.098939  -0.002565  0.004242  0.128893  -0.002834  3.980829  -0.002
C  C88  1  0.38405616  0.01633166  0.54043840  1  -0.0606  0.002119  -0.082599  -0.180875  0.00125  3.933273  0.002
C  C89  1  0.48879617  0.11298172  0.58666716  1  0.539414  -0.001385  0.054651  0.100097  -0.001602  3.935783  -0.001
C  C90  1  0.56283500  0.00680122  0.63711431  1  0.529657  -0.002479  0.055098  0.104943  -0.002971  3.938291  -0.002
C  C91  1  0.46029409  0.90612000  0.59275130  1  -0.021035  0.001747  -0.093117  -0.201249  0.000991  3.969289  0.001
C  C92  1  0.85354054  0.09297363  0.02087832  1  0.016274  0.020552  -0.022932  -0.03468  0.013276  3.963863  0.016
C  C93  1  0.73808085  0.03136738  0.01070253  1  -0.039471  -0.000645  -0.089748  -0.092271  -0.001159  3.983754  0.0
C  C94  1  0.65357458  0.02400433  0.94620065  1  -0.063828  0.001303  -0.108225  -0.112384  0.000701  4.07927  0.001
C  C95  1  0.68381650  0.07749766  0.89143465  1  -0.098684  -0.001834  -0.090931  -0.097686  -0.002176  3.999153  -0.001
C  C96  1  0.79887803  0.13939483  0.90098459  1  -0.011088  0.013763  -0.01901  -0.028725  0.008711  3.952687  0.011
C  C97  1  0.88318201  0.14673005  0.96594830  1  -0.069153  0.000615  -0.075637  -0.100569  -0.000293  3.923067  0.001
C  C98  1  0.94375827  0.09892988  0.08988158  1  1.557062  -0.000282  0.218506  0.57834  -0.000363  4.164766  -0.002
C  C99  1  0.83411048  0.19821219  0.84211516  1  1.606592  -0.000932  0.204365  0.572991  -0.000876  4.201765  -0.002
C  C100  1  0.08590470  0.33062787  0.76643179  1  0.477779  -0.002676  0.069343  0.138188  -0.003218  3.880475  -0.002
C  C101  1  0.17891377  0.32227764  0.80921768  1  0.015626  0.004696  -0.077799  -0.174984  0.002859  3.921805  0.004
C  C102  1  0.28760491  0.41790653  0.84456684  1  -0.014501  -0.004402  0.005035  0.126773  -0.004903  3.986165  -0.003
C  C103  1  0.29796197  0.51958321  0.83424010  1  -0.011187  0.004753  -0.095614  -0.199844  0.002887  3.985093  0.004
C  C104  1  0.20188466  0.52151392  0.79070577  1  0.487645  -0.002444  0.04751  0.093818  -0.003075  3.969231  -0.002
C  C105  1  0.38685861  0.41400542  0.89625270  1  0.016425  -0.000185  -0.071342  -0.0746  -0.000324  3.815283  0.0
C  C106  1  0.43536775  0.48361100  0.99056974  1  -0.017088  -0.000463  -0.0754  -0.083022  -0.000543  3.841583  0.0
C  C107  1  0.38318776  0.42474083  0.04281442  1  -0.02345  -0.002541  0.004711  0.128255  -0.002816  3.983168  -0.002
C  C108  1  0.27403851  0.40644680  0.04053757  1  -0.044879  0.002093  -0.084248  -0.183309  0.001234  3.934092  0.002
C  C109  1  0.22369864  0.34793514  0.08678994  1  0.477746  -0.001373  0.055344  0.1005  -0.0016  3.931023  -0.001
C  C110  1  0.38050437  0.32453949  0.13725321  1  0.468116  -0.002473  0.054251  0.102747  -0.002972  3.93814  -0.002
C  C111  1  0.43667963  0.38265224  0.09281789  1  -0.042396  0.001707  -0.093405  -0.199725  0.000976  3.968828  0.001
C  C112  1  0.67798235  0.41745973  0.52100618  1  -0.084379  0.020602  -0.021271  -0.032864  0.013267  3.966797  0.016
C  C113  1  0.72935600  0.52273477  0.51079567  1  -0.006958  -0.000652  -0.088722  -0.091754  -0.001168  3.98418  0.0
C  C114  1  0.67211717  0.54261621  0.44628874  1  -0.047187  0.001304  -0.107004  -0.110595  0.000701  4.076577  0.001
C  C115  1  0.56387986  0.45755846  0.39152218  1  -0.028555  -0.001863  -0.091102  -0.097296  -0.002179  3.999037  -0.001
C  C116  1  0.51157053  0.35209463  0.40111162  1  -0.089002  0.013831  -0.020228  -0.031728  0.008738  3.958293  0.011
C  C117  1  0.56926596  0.33285132  0.46610499  1  0.036669  0.000524  -0.078307  -0.102695  -0.000294  3.926359  0.001
C  C118  1  0.74105461  0.39623384  0.58998394  1  1.564257  -0.000306  0.217294  0.576565  -0.000385  4.168048  -0.002
C  C119  1  0.39392727  0.25801095  0.34224069  1  1.603621  -0.000918  0.204708  0.573465  -0.000859  4.201945  -0.002
C  C120  1  0.68056039  0.43607309  0.76661593  1  0.5413  -0.002781  0.066635  0.135087  -0.003214  3.887051  -0.002
C  C121  1  0.63024035  0.48709030  0.80938750  1  -0.024622  0.004788  -0.080349  -0.177739  0.002877  3.923746  0.004
C  C122  1  0.55683091  0.42665391  0.84462546  1  -0.046411  -0.004414  0.005272  0.127404  -0.004911  3.985835  -0.003
C  C123  1  0.53623264  0.31466369  0.83424206  1  -0.021729  0.004778  -0.094313  -0.196965  0.002899  3.984311  0.004
C  C124  1  0.58894961  0.26938292  0.79077760  1  0.46246  -0.002422  0.049234  0.095476  -0.003079  3.96803  -0.002
C  C125  1  0.50914265  0.48213286  0.89627597  1  -0.018096  -0.000183  -0.070708  -0.07507  -0.000324  3.816546  0.0
C  C126  1  0.55500538  0.50697085  0.99058669  1  0.008821  -0.000459  -0.074801  -0.082371  -0.000543  3.842045  0.0
C  C127  1  0.65948853  0.61811182  0.04276180  1  -0.099609  -0.002564  0.004069  0.128761  -0.002832  3.980754  -0.002
C  C128  1  0.76634063  0.63406093  0.04043737  1  -0.060184  0.002117  -0.082527  -0.180805  0.001249  3.933034  0.002
C  C129  1  0.86299699  0.73880479  0.08667371  1  0.540618  -0.001385  0.054634  0.100064  -0.001601  3.935517  -0.001
C  C130  1  0.75681655  0.81283677  0.13712843  1  0.529669  -0.002478  0.055244  0.105044  -0.00297  3.938436  -0.002
C  C131  1  0.65613012  0.71029608  0.09276267  1  -0.020959  0.001745  -0.093085  -0.201242  0.000991  3.969069  0.001
C  C132  1  0.84295824  0.10353347  0.52087023  1  0.016347  0.020551  -0.022984  -0.034688  0.013275  3.963938  0.016
C  C133  1  0.78135849  0.98807174  0.51068766  1  -0.039569  -0.000644  -0.089718  -0.092308  -0.001158  3.983934  0.0
C  C134  1  0.77401220  0.90358074  0.44618984  1  -0.055426  0.001303  -0.108273  -0.112341  0.000701  4.079417  0.001
C  C135  1  0.82750346  0.93382943  0.39142246  1  -0.106864  -0.001834  -0.0908  -0.097673  -0.002176  3.999335  -0.001
C  C136  1  0.88938622  0.04889107  0.40097759  1  -0.011402  0.013763  -0.019035  -0.028861  0.008712  3.953119  0.011
C  C137  1  0.89672136  0.13318760  0.46594708  1  -0.069138  0.000616  -0.075724  -0.100684  -0.000292  3.923379  0.001
C  C138  1  0.84892603  0.19375389  0.58987406  1  1.557104  -0.000281  0.218576  0.578632  -0.000363  4.164566  -0.002
C  C139  1  0.94821724  0.08412440  0.34211529  1  1.606794  -0.000931  0.204273  0.57306  -0.000877  4.201343  -0.002
N  N140  1  0.17884896  0.34768370  0.25740219  1  -1.200785  0.070849  -0.313291  -0.209782  0.04499  3.551818  0.062
N  N141  1  0.05752135  0.52591494  0.63430434  1  -1.205446  0.024208  -0.312693  -0.206699  0.016058  3.547086  0.021
N  N142  1  0.07882832  0.90984532  0.25751963  1  -1.206607  0.071228  -0.312391  -0.208928  0.045218  3.551974  0.063
N  N143  1  0.57680750  0.10841939  0.63420591  1  -1.214776  0.024642  -0.314023  -0.209396  0.016328  3.547722  0.022
N  N144  1  0.09767355  0.42885164  0.75740135  1  -1.200854  0.070847  -0.313204  -0.209595  0.04499  3.551235  0.062
N  N145  1  0.27592783  0.30752778  0.13429716  1  -1.206127  0.024232  -0.312736  -0.206676  0.016072  3.547228  0.021
N  N146  1  0.65982733  0.32881569  0.75751830  1  -1.206458  0.07124  -0.312337  -0.208798  0.045228  3.551694  0.063
N  N147  1  0.85843142  0.82681300  0.13421794  1  -1.215612  0.02461  -0.314042  -0.209301  0.016309  3.547748  0.022
O  O148  1  0.22563858  0.09243652  0.13375281  1  -1.118905  0.086722  -0.296115  -0.521582  0.052118  2.364449  0.08
O  O149  1  0.05197171  0.93912967  0.09961912  1  -1.134443  0.0852  -0.292308  -0.542122  0.050914  2.375203  0.079
O  O150  1  0.91661500  0.59999431  0.85397175  1  -1.143385  0.029721  -0.314727  -0.51805  0.017193  2.103644  0.026
O  O151  1  0.03615719  0.60213427  0.78338076  1  -1.118367  0.093968  -0.312371  -0.560428  0.056241  2.386019  0.086
O  O152  1  0.90815142  0.04134150  0.13365227  1  -1.111755  0.087143  -0.296748  -0.5227  0.052417  2.362563  0.08
O  O153  1  0.04765516  0.16055581  0.09953604  1  -1.133126  0.085289  -0.29343  -0.544284  0.050902  2.375241  0.079
O  O154  1  0.93726369  0.25392676  0.85388710  1  -1.148403  0.029692  -0.316141  -0.519306  0.017165  2.101589  0.026
O  O155  1  0.74711051  0.18124290  0.78329863  1  -1.117334  0.093536  -0.310735  -0.559071  0.056064  2.387501  0.085
O  O156  1  0.84243196  0.47562748  0.63375481  1  -1.119228  0.086707  -0.296181  -0.521781  0.052108  2.36481  0.08
O  O157  1  0.68913081  0.30195960  0.59961040  1  -1.134472  0.085199  -0.292387  -0.542311  0.050914  2.375147  0.079
O  O158  1  0.34998188  0.16659690  0.35396173  1  -1.142566  0.029822  -0.314797  -0.51818  0.017252  2.102419  0.026
O  O159  1  0.35214283  0.28616311  0.28337814  1  -1.118364  0.093905  -0.312297  -0.560301  0.056203  2.386707  0.086
O  O160  1  0.79134425  0.15814069  0.63364907  1  -1.111727  0.087158  -0.296769  -0.522909  0.052427  2.362599  0.08
O  O161  1  0.91055463  0.29765043  0.59953292  1  -1.133076  0.085275  -0.293407  -0.544352  0.050896  2.375093  0.079
O  O162  1  0.00393139  0.18728630  0.35388790  1  -1.148494  0.029715  -0.31607  -0.519296  0.017178  2.10112  0.026
O  O163  1  0.93126451  0.99713424  0.28330055  1  -1.117456  0.093521  -0.310729  -0.559118  0.056058  2.387826  0.085
O  O164  1  0.12487286  0.12488885  0.24961701  1  -0.617575  0.624314  -0.377605  -0.524313  0.370941  1.914537  0.529
O  O165  1  0.87488414  0.37486843  0.74961424  1  -0.617395  0.624305  -0.377552  -0.524234  0.370931  1.914325  0.529
