# generated using pymatgen
data_Nd2H22C8S3(NO10)2
_symmetry_space_group_name_H-M   'P 1'
_cell_length_a   6.62808645
_cell_length_b   12.62029548
_cell_length_c   13.52765095
_cell_angle_alpha   79.37726045
_cell_angle_beta   75.89006076
_cell_angle_gamma   74.78491505
_symmetry_Int_Tables_number   1
_chemical_formula_structural   Nd2H22C8S3(NO10)2
_chemical_formula_sum   'Nd4 H44 C16 S6 N4 O40'
_cell_volume   1050.16415307
_cell_formula_units_Z   2
loop_
 _symmetry_equiv_pos_site_id
 _symmetry_equiv_pos_as_xyz
  1  'x, y, z'
loop_
 _atom_site_type_symbol
 _atom_site_label
 _atom_site_symmetry_multiplicity
 _atom_site_fract_x
 _atom_site_fract_y
 _atom_site_fract_z
 _atom_site_occupancy
 _atom_site_hle17_bader_spin_density
 _atom_site_hle17_ddec_charge
 _atom_site_hle17_ddec_spin_density
 _atom_site_hle17_ddec_sum_bond_order
 _atom_site_hle17_magmom
 _atom_site_hse06_10hf_bader_spin_density
 _atom_site_hse06_10hf_ddec_charge
 _atom_site_hse06_10hf_ddec_spin_density
 _atom_site_hse06_10hf_ddec_sum_bond_order
 _atom_site_hse06_10hf_magmom
 _atom_site_hse06_bader_spin_density
 _atom_site_hse06_ddec_charge
 _atom_site_hse06_ddec_spin_density
 _atom_site_hse06_ddec_sum_bond_order
 _atom_site_hse06_magmom
 _atom_site_pbe_bader_charge
 _atom_site_pbe_bader_spin_density
 _atom_site_pbe_cm5_charge
 _atom_site_pbe_ddec_charge
 _atom_site_pbe_ddec_spin_density
 _atom_site_pbe_ddec_sum_bond_order
 _atom_site_pbe_magmom
Nd  Nd0  1  0.09931298  0.54938322  0.13160821  1  0  2.385959  0  1.586783  0  0  2.288486  0  1.948428  0  0  2.325858  0  1.905098  0  2.28474  0  1.502631  2.261047  0  1.979038  0
Nd  Nd1  1  0.78026561  0.95068557  0.36840028  1  0  2.385821  0  1.586495  0  0  2.288456  0  1.948065  0  0  2.325813  0  1.904718  0  2.284661  0  1.502753  2.261009  0  1.978682  0
Nd  Nd2  1  0.90068708  0.45061682  0.86839205  1  0  2.385946  0  1.586683  0  0  2.288474  0  1.948314  0  0  2.32585  0  1.904983  0  2.284792  0  1.502621  2.261038  0  1.978923  0
Nd  Nd3  1  0.21973382  0.04931447  0.63159905  1  0  2.385826  0  1.586425  0  0  2.288472  0  1.947995  0  0  2.325828  0  1.904652  0  2.284566  0  1.5028  2.261024  0  1.978614  0
H  H4  1  0.31593603  0.97606982  0.91018325  1  0  0.116368  0  0.936815  0  0  0.129396  0  0.994731  0  0  0.131373  0  0.993853  0  0.14949  0  0.125389  0.127848  0  0.995533  0
H  H5  1  0.20247076  0.52395756  0.58972236  1  0  0.116821  0  0.934947  0  0  0.130215  0  0.992858  0  0  0.132179  0  0.991934  0  0.150627  0  0.12534  0.128664  0  0.993733  0
H  H6  1  0.68406476  0.02392856  0.08981720  1  0  0.116352  0  0.936823  0  0  0.129376  0  0.994756  0  0  0.131354  0  0.993877  0  0.149477  0  0.125372  0.127828  0  0.995559  0
H  H7  1  0.79753177  0.47604164  0.41027745  1  0  0.116888  0  0.935014  0  0  0.130289  0  0.992882  0  0  0.132255  0  0.991957  0  0.15062  0  0.125388  0.128738  0  0.993758  0
H  H8  1  0.20036143  0.91033623  0.03255945  1  0  0.112363  0  0.89779  0  0  0.129083  0  0.950218  0  0  0.130288  0  0.950083  0  0.130188  0  0.13093  0.128088  0  0.950497  0
H  H9  1  0.14335255  0.58976898  0.46729426  1  0  0.113019  0  0.898256  0  0  0.130152  0  0.950437  0  0  0.131321  0  0.95029  0  0.120414  0  0.131291  0.129191  0  0.95071  0
H  H10  1  0.79963925  0.08966215  0.96744267  1  0  0.112217  0  0.897828  0  0  0.128963  0  0.950264  0  0  0.130168  0  0.950129  0  0.130195  0  0.130853  0.127968  0  0.950544  0
H  H11  1  0.85664962  0.41023105  0.53270545  1  0  0.112982  0  0.898317  0  0  0.130112  0  0.950485  0  0  0.13128  0  0.950337  0  0.120483  0  0.131288  0.129151  0  0.950757  0
H  H12  1  0.69539043  0.63929212  0.27905120  1  0  0.443194  0  0.853701  0  0  0.411174  0  0.91977  0  0  0.421966  0  0.903818  0  0.649561  0  0.305552  0.403528  0  0.931079  0
H  H13  1  0.61379844  0.86051832  0.22099873  1  0  0.443446  0  0.853543  0  0  0.41096  0  0.920562  0  0  0.421765  0  0.904579  0  0.649691  0  0.304972  0.40329  0  0.931923  0
H  H14  1  0.30460953  0.36070957  0.72094978  1  0  0.443187  0  0.853708  0  0  0.411171  0  0.919771  0  0  0.421962  0  0.903822  0  0.64975  0  0.305543  0.403525  0  0.93108  0
H  H15  1  0.38620025  0.13948172  0.77900134  1  0  0.443471  0  0.853502  0  0  0.410987  0  0.920519  0  0  0.421792  0  0.904536  0  0.649698  0  0.304986  0.403316  0  0.931883  0
H  H16  1  0.86155336  0.68236983  0.31868797  1  0  0.437322  0  0.845976  0  0  0.407554  0  0.916359  0  0  0.4175  0  0.901371  0  0.636349  0  0.313186  0.400442  0  0.927084  0
H  H17  1  0.86260761  0.81758717  0.18148353  1  0  0.436742  0  0.845978  0  0  0.407368  0  0.916305  0  0  0.417296  0  0.901354  0  0.631294  0  0.313251  0.400267  0  0.927019  0
H  H18  1  0.13844880  0.31763021  0.68131173  1  0  0.437347  0  0.845964  0  0  0.407578  0  0.916333  0  0  0.417524  0  0.901344  0  0.636617  0  0.313198  0.400466  0  0.927058  0
H  H19  1  0.13738960  0.18241287  0.81851802  1  0  0.436733  0  0.845966  0  0  0.407365  0  0.9163  0  0  0.417293  0  0.901349  0  0.631273  0  0.313246  0.400264  0  0.927015  0
H  H20  1  0.11577055  0.32815536  0.27979314  1  0  0.442244  0  0.846507  0  0  0.414563  0  0.904245  0  0  0.424679  0  0.889433  0  0.646125  0  0.300125  0.407381  0  0.914772  0
H  H21  1  0.72369059  0.17206905  0.22016643  1  0  0.443346  0  0.845268  0  0  0.415622  0  0.903166  0  0  0.425698  0  0.888401  0  0.644048  0  0.300755  0.408462  0  0.913674  0
H  H22  1  0.88423087  0.67184467  0.72020730  1  0  0.442244  0  0.846505  0  0  0.414571  0  0.904234  0  0  0.424681  0  0.88943  0  0.646115  0  0.300127  0.407388  0  0.914762  0
H  H23  1  0.27630948  0.82793264  0.77983289  1  0  0.443367  0  0.84524  0  0  0.415644  0  0.903135  0  0  0.425717  0  0.888375  0  0.64406  0  0.300765  0.408483  0  0.913645  0
H  H24  1  0.32945342  0.36364993  0.26204537  1  0  0.42088  0  0.89234  0  0  0.387616  0  0.961258  0  0  0.398152  0  0.945862  0  0.622776  0  0.291351  0.380176  0  0.972108  0
H  H25  1  0.95505825  0.13635340  0.23796851  1  0  0.418728  0  0.895468  0  0  0.385559  0  0.964599  0  0  0.396147  0  0.949089  0  0.646051  0  0.289998  0.37811  0  0.975491  0
H  H26  1  0.67054590  0.63635011  0.73795563  1  0  0.420873  0  0.892348  0  0  0.387617  0  0.961262  0  0  0.398149  0  0.945872  0  0.622766  0  0.291339  0.380173  0  0.972119  0
H  H27  1  0.04494219  0.86364746  0.76203091  1  0  0.418738  0  0.895455  0  0  0.385583  0  0.964562  0  0  0.396163  0  0.949064  0  0.64605  0  0.290012  0.378133  0  0.975455  0
H  H28  1  0.63050942  0.79160756  0.87390973  1  0  0.144588  0  0.922269  0  0  0.151452  0  0.985349  0  0  0.155065  0  0.983178  0  0.169562  0  0.130265  0.148796  0  0.987076  0
H  H29  1  0.29671116  0.70847778  0.62603678  1  0  0.143197  0  0.922699  0  0  0.150412  0  0.985754  0  0  0.154047  0  0.983531  0  0.166792  0  0.129883  0.147748  0  0.987469  0
H  H30  1  0.36949449  0.20839330  0.12608933  1  0  0.144513  0  0.922296  0  0  0.151394  0  0.985363  0  0  0.155011  0  0.983183  0  0.169601  0  0.130233  0.148736  0  0.98709  0
H  H31  1  0.70328926  0.29152143  0.37396358  1  0  0.143226  0  0.922726  0  0  0.150421  0  0.985795  0  0  0.154055  0  0.983569  0  0.166819  0  0.129892  0.147758  0  0.987507  0
H  H32  1  0.42719637  0.74708741  0.97489152  1  0  0.150406  0  0.925856  0  0  0.158129  0  0.988302  0  0  0.161976  0  0.985721  0  0.176508  0  0.134664  0.155273  0  0.990369  0
H  H33  1  0.14969361  0.75301697  0.52494672  1  0  0.150005  0  0.926356  0  0  0.157635  0  0.989271  0  0  0.161524  0  0.986634  0  0.157275  0  0.134324  0.154766  0  0.991371  0
H  H34  1  0.57280701  0.25291180  0.02510588  1  0  0.15039  0  0.925839  0  0  0.158119  0  0.988288  0  0  0.161962  0  0.985713  0  0.176647  0  0.134649  0.15526  0  0.99036  0
H  H35  1  0.85030507  0.24698141  0.47505429  1  0  0.150031  0  0.92636  0  0  0.157671  0  0.989236  0  0  0.161562  0  0.986597  0  0.157288  0  0.134336  0.154801  0  0.991339  0
H  H36  1  0.13842864  0.11614769  0.03278313  1  0  0.116812  0  0.90616  0  0  0.132358  0  0.958843  0  0  0.13384  0  0.958396  0  0.126095  0  0.13124  0.131163  0  0.959436  0
H  H37  1  0.28712600  0.38401380  0.46695734  1  0  0.115687  0  0.905383  0  0  0.130924  0  0.958011  0  0  0.132413  0  0.957513  0  0.125184  0  0.12997  0.129722  0  0.958596  0
H  H38  1  0.86157041  0.88385152  0.96721703  1  0  0.11683  0  0.906166  0  0  0.13236  0  0.958847  0  0  0.133841  0  0.9584  0  0.1261  0  0.131234  0.131165  0  0.959441  0
H  H39  1  0.71287516  0.61598541  0.53304228  1  0  0.115649  0  0.905406  0  0  0.130887  0  0.958038  0  0  0.132374  0  0.957543  0  0.125168  0  0.129968  0.129685  0  0.958622  0
H  H40  1  0.28893973  0.03688566  0.12515443  1  0  0.114198  0  0.914935  0  0  0.124291  0  0.977748  0  0  0.126265  0  0.976701  0  0.102269  0  0.128402  0.122789  0  0.978623  0
H  H41  1  0.45058995  0.46325761  0.37476085  1  0  0.114621  0  0.914797  0  0  0.12483  0  0.976869  0  0  0.126803  0  0.975817  0  0.111518  0  0.128523  0.123288  0  0.977767  0
H  H42  1  0.71106069  0.96311355  0.87484593  1  0  0.114229  0  0.914926  0  0  0.124309  0  0.977735  0  0  0.126281  0  0.976689  0  0.102269  0  0.128403  0.122807  0  0.97861  0
H  H43  1  0.54941396  0.53674326  0.62523820  1  0  0.114607  0  0.91478  0  0  0.124804  0  0.976868  0  0  0.126786  0  0.975804  0  0.111531  0  0.128527  0.123263  0  0.977766  0
H  H44  1  0.52392133  0.85795637  0.08204797  1  0  0.279924  0  0.896096  0  0  0.261845  0  0.957011  0  0  0.269607  0  0.951586  0  0.505075  0  0.319261  0.25635  0  0.960877  0
H  H45  1  0.46386304  0.64200559  0.41797505  1  0  0.280023  0  0.895762  0  0  0.262368  0  0.956441  0  0  0.270154  0  0.950997  0  0.50826  0  0.319259  0.256843  0  0.960344  0
H  H46  1  0.47607809  0.14204201  0.91795230  1  0  0.279872  0  0.896163  0  0  0.261839  0  0.957022  0  0  0.269602  0  0.951598  0  0.504998  0  0.319278  0.256342  0  0.960887  0
H  H47  1  0.53613913  0.35799445  0.58202466  1  0  0.280023  0  0.895772  0  0  0.26237  0  0.956458  0  0  0.270156  0  0.951015  0  0.508263  0  0.319268  0.256845  0  0.960361  0
C  C48  1  0.32243059  0.95620690  0.99196083  1  0  -0.029003  0  3.5073  0  0  -0.087125  0  3.757514  0  0  -0.084257  0  3.76669  0  0.167425  0  -0.052983  -0.088893  0  3.751362  0
C  C49  1  0.27070669  0.54385442  0.50797030  1  0  -0.029109  0  3.50498  0  0  -0.089232  0  3.756674  0  0  -0.086233  0  3.765656  0  0.183373  0  -0.053771  -0.091128  0  3.750668  0
C  C50  1  0.67756946  0.04379148  0.00804037  1  0  -0.028821  0  3.507188  0  0  -0.086993  0  3.757431  0  0  -0.084123  0  3.766601  0  0.167621  0  -0.052868  -0.088761  0  3.751277  0
C  C51  1  0.72929832  0.45614396  0.49202906  1  0  -0.029166  0  3.505067  0  0  -0.08925  0  3.756699  0  0  -0.086253  0  3.765682  0  0.183666  0  -0.053814  -0.091147  0  3.750694  0
C  C52  1  0.74183920  0.68803442  0.00538524  1  0  0.759034  0  3.822368  0  0  0.714129  0  4.120626  0  0  0.749191  0  4.108098  0  1.648614  0  0.238221  0.690277  0  4.128639  0
C  C53  1  0.43559869  0.81195322  0.49455978  1  0  0.758118  0  3.82251  0  0  0.712574  0  4.121971  0  0  0.747645  0  4.10943  0  1.633569  0  0.237281  0.688699  0  4.130039  0
C  C54  1  0.25815863  0.31195899  0.99461006  1  0  0.759209  0  3.822149  0  0  0.714244  0  4.120476  0  0  0.749307  0  4.107948  0  1.648375  0  0.238312  0.690394  0  4.128486  0
C  C55  1  0.56438596  0.18805427  0.50544549  1  0  0.758061  0  3.822768  0  0  0.71253  0  4.1222  0  0  0.747602  0  4.109659  0  1.633753  0  0.237253  0.688654  0  4.130265  0
C  C56  1  0.57596401  0.77628642  0.95760203  1  0  -0.184229  0  3.479516  0  0  -0.236287  0  3.716262  0  0  -0.239194  0  3.720861  0  0.12094  0  -0.053923  -0.234282  0  3.713411  0
C  C57  1  0.31032270  0.72374593  0.54234816  1  0  -0.180164  0  3.477256  0  0  -0.232201  0  3.713208  0  0  -0.235122  0  3.717796  0  0.151705  0  -0.05224  -0.230173  0  3.710317  0
C  C58  1  0.42403927  0.22371444  0.04239610  1  0  -0.184163  0  3.47949  0  0  -0.236225  0  3.716241  0  0  -0.23913  0  3.720841  0  0.120787  0  -0.05388  -0.234214  0  3.713382  0
C  C59  1  0.68967700  0.27625494  0.45765200  1  0  -0.180269  0  3.477412  0  0  -0.232277  0  3.713313  0  0  -0.235194  0  3.71789  0  0.151646  0  -0.05225  -0.230251  0  3.710422  0
C  C60  1  0.28978521  0.05868535  0.04266100  1  0  -0.027321  0  3.506108  0  0  -0.085029  0  3.757337  0  0  -0.082212  0  3.766641  0  0.220558  0  -0.051344  -0.086854  0  3.751194  0
C  C61  1  0.39097424  0.44138919  0.45722892  1  0  -0.030724  0  3.506729  0  0  -0.086858  0  3.756064  0  0  -0.084056  0  3.765274  0  0.220434  0  -0.052021  -0.088612  0  3.74993  0
C  C62  1  0.71021447  0.94131386  0.95734009  1  0  -0.027412  0  3.506148  0  0  -0.085053  0  3.75732  0  0  -0.082236  0  3.766628  0  0.220329  0  -0.051367  -0.086878  0  3.751176  0
C  C63  1  0.60903040  0.55861001  0.54277033  1  0  -0.030632  0  3.506638  0  0  -0.086795  0  3.756037  0  0  -0.083999  0  3.765243  0  0.220188  0  -0.052055  -0.088548  0  3.749899  0
S  S64  1  0.33910551  0.58999172  0.85668295  1  0  1.674759  0  5.757174  0  0  1.552793  0  6.299109  0  0  1.609742  0  6.258588  0  3.855753  0  0.60305  1.513194  0  6.326232  0
S  S65  1  0.78581924  0.90995202  0.64330873  1  0  1.677881  0  5.755106  0  0  1.556354  0  6.296298  0  0  1.613417  0  6.255772  0  3.8542  0  0.605342  1.516746  0  6.323394  0
S  S66  1  0.66089475  0.41000666  0.14331492  1  0  1.674772  0  5.757156  0  0  1.552795  0  6.299094  0  0  1.609755  0  6.258566  0  3.855826  0  0.603082  1.513196  0  6.326216  0
S  S67  1  0.21417825  0.09005050  0.35669270  1  0  1.677842  0  5.755124  0  0  1.55628  0  6.296353  0  0  1.613362  0  6.255814  0  3.854202  0  0.605251  1.516674  0  6.323445  0
S  S68  1  0.26566795  0.74998719  0.25007421  1  0  1.626967  0  5.772185  0  0  1.499591  0  6.323475  0  0  1.556114  0  6.284856  0  3.820773  0  0.590532  1.460476  0  6.349085  0
S  S69  1  0.73433111  0.25001367  0.74992502  1  0  1.626994  0  5.772233  0  0  1.499643  0  6.3235  0  0  1.556166  0  6.284879  0  3.820773  0  0.59054  1.460526  0  6.349111  0
N  N70  1  0.53435465  0.88134920  0.00252855  1  0  -0.0723  0  3.383648  0  0  0.004776  0  3.599638  0  0  -0.0069  0  3.617851  0  -1.013724  0  -0.353454  0.012705  0  3.587221  0
N  N71  1  0.41838065  0.61865003  0.49750430  1  0  -0.070323  0  3.383047  0  0  0.006538  0  3.598014  0  0  -0.005285  0  3.616455  0  -1.030145  0  -0.35146  0.014512  0  3.585488  0
N  N72  1  0.46564367  0.11865001  0.99747235  1  0  -0.07223  0  3.383569  0  0  0.004824  0  3.599593  0  0  -0.006853  0  3.617808  0  -1.013624  0  -0.353471  0.012756  0  3.587174  0
N  N73  1  0.58162015  0.38135001  0.50249522  1  0  -0.070304  0  3.383154  0  0  0.006538  0  3.598056  0  0  -0.005283  0  3.616494  0  -1.030317  0  -0.351536  0.014512  0  3.58553  0
O  O74  1  0.23197473  0.63438601  0.95575584  1  0  -0.819876  0  1.99134  0  0  -0.771847  0  2.261885  0  0  -0.792573  0  2.242627  0  -1.358119  0  -0.414963  -0.75714  0  2.274789  0
O  O75  1  0.82195308  0.86551551  0.54423590  1  0  -0.820163  0  1.992522  0  0  -0.77263  0  2.263551  0  0  -0.793321  0  2.244121  0  -1.354575  0  -0.415642  -0.757858  0  2.276381  0
O  O76  1  0.76802349  0.36561485  0.04424580  1  0  -0.819905  0  1.991505  0  0  -0.771883  0  2.26208  0  0  -0.792606  0  2.242816  0  -1.35815  0  -0.414965  -0.757174  0  2.274983  0
O  O77  1  0.17804425  0.13448618  0.45576305  1  0  -0.82006  0  1.992523  0  0  -0.772531  0  2.263573  0  0  -0.793227  0  2.244155  0  -1.354633  0  -0.415589  -0.757762  0  2.27641  0
O  O78  1  0.40948190  0.68143995  0.77945971  1  0  -0.74972  0  1.934635  0  0  -0.678447  0  2.163222  0  0  -0.701844  0  2.145878  0  -1.357537  0  -0.342353  -0.661911  0  2.174916  0
O  O79  1  0.87034467  0.81851126  0.72062710  1  0  -0.74988  0  1.935219  0  0  -0.678409  0  2.163347  0  0  -0.702043  0  2.146096  0  -1.355727  0  -0.342372  -0.661875  0  2.175078  0
O  O80  1  0.59051805  0.31856009  0.22054221  1  0  -0.749704  0  1.934571  0  0  -0.678406  0  2.16314  0  0  -0.701824  0  2.145808  0  -1.357641  0  -0.342372  -0.661875  0  2.174836  0
O  O81  1  0.12965713  0.18148961  0.27937250  1  0  -0.749937  0  1.935206  0  0  -0.678409  0  2.163299  0  0  -0.702094  0  2.146082  0  -1.355748  0  -0.342368  -0.661878  0  2.175032  0
O  O82  1  0.19192785  0.54618948  0.81653209  1  0  -0.814026  0  1.995534  0  0  -0.763666  0  2.271935  0  0  -0.785374  0  2.25321  0  -1.355137  0  -0.428775  -0.74815  0  2.284506  0
O  O83  1  0.55491385  0.95390083  0.68333307  1  0  -0.815724  0  1.994237  0  0  -0.765936  0  2.271161  0  0  -0.787604  0  2.252239  0  -1.361971  0  -0.43114  -0.750439  0  2.283832  0
O  O84  1  0.80807221  0.45381055  0.18346817  1  0  -0.814015  0  1.995468  0  0  -0.763663  0  2.271895  0  0  -0.78537  0  2.253165  0  -1.355102  0  -0.428778  -0.748147  0  2.284464  0
O  O85  1  0.44508621  0.04609921  0.31666718  1  0  -0.81571  0  1.994232  0  0  -0.765929  0  2.271175  0  0  -0.787594  0  2.252246  0  -1.361931  0  -0.431118  -0.750429  0  2.283843  0
O  O86  1  0.52887748  0.49970607  0.87108234  1  0  -0.840094  0  2.054271  0  0  -0.794731  0  2.340151  0  0  -0.815767  0  2.320647  0  -1.359338  0  -0.445933  -0.779774  0  2.353233  0
O  O87  1  0.89977739  0.00020535  0.62891211  1  0  -0.840553  0  2.052845  0  0  -0.795029  0  2.337968  0  0  -0.816055  0  2.318406  0  -1.357159  0  -0.44563  -0.780085  0  2.351068  0
O  O88  1  0.47111737  0.50029480  0.12891800  1  0  -0.840099  0  2.054228  0  0  -0.794752  0  2.340138  0  0  -0.815788  0  2.32063  0  -1.359351  0  -0.445943  -0.779792  0  2.353211  0
O  O89  1  0.10021993  0.99979468  0.37108777  1  0  -0.840556  0  2.052798  0  0  -0.795035  0  2.337936  0  0  -0.816058  0  2.318366  0  -1.357134  0  -0.445615  -0.780091  0  2.351035  0
O  O90  1  0.18961143  0.72006200  0.16540306  1  0  -0.830006  0  1.963137  0  0  -0.779656  0  2.236851  0  0  -0.800509  0  2.216738  0  -1.35559  0  -0.414505  -0.764768  0  2.250207  0
O  O91  1  0.07545593  0.77996538  0.33470943  1  0  -0.83006  0  1.962533  0  0  -0.77936  0  2.235595  0  0  -0.800258  0  2.215598  0  -1.361063  0  -0.414263  -0.764464  0  2.248897  0
O  O92  1  0.81038726  0.27993804  0.83459701  1  0  -0.830031  0  1.963153  0  0  -0.779676  0  2.236845  0  0  -0.800533  0  2.216738  0  -1.355587  0  -0.414504  -0.764788  0  2.250201  0
O  O93  1  0.92454129  0.22003631  0.66529118  1  0  -0.830081  0  1.962622  0  0  -0.779393  0  2.235675  0  0  -0.80029  0  2.215678  0  -1.360973  0  -0.414302  -0.764496  0  2.248981  0
O  O94  1  0.36657687  0.84566833  0.20883421  1  0  -0.729836  0  1.993651  0  0  -0.667463  0  2.242006  0  0  -0.690145  0  2.225742  0  -1.353749  0  -0.336475  -0.651633  0  2.252986  0
O  O95  1  0.42100123  0.65422656  0.29133736  1  0  -0.73002  0  1.994362  0  0  -0.669  0  2.243686  0  0  -0.691666  0  2.227335  0  -1.355042  0  -0.336928  -0.652949  0  2.254348  0
O  O96  1  0.63342530  0.15433171  0.79116549  1  0  -0.729847  0  1.993656  0  0  -0.667482  0  2.241978  0  0  -0.690168  0  2.225719  0  -1.353747  0  -0.336463  -0.651649  0  2.252957  0
O  O97  1  0.57899909  0.34577430  0.70866372  1  0  -0.729988  0  1.994314  0  0  -0.668986  0  2.243639  0  0  -0.691651  0  2.227288  0  -1.355073  0  -0.336922  -0.65294  0  2.254315  0
O  O98  1  0.80477208  0.70872040  0.07967116  1  0  -0.720204  0  2.003432  0  0  -0.675878  0  2.249822  0  0  -0.699179  0  2.237683  0  -1.201544  0  -0.370378  -0.65974  0  2.257896  0
O  O99  1  0.59328822  0.79125813  0.42037960  1  0  -0.719584  0  2.00501  0  0  -0.674572  0  2.251297  0  0  -0.697874  0  2.239103  0  -1.198033  0  -0.369466  -0.658439  0  2.259403  0
O  O100  1  0.19523160  0.29127881  0.92033216  1  0  -0.720154  0  2.003732  0  0  -0.675861  0  2.250238  0  0  -0.699158  0  2.238094  0  -1.201752  0  -0.370403  -0.659727  0  2.258315  0
O  O101  1  0.40671406  0.20874191  0.57961844  1  0  -0.719459  0  2.005488  0  0  -0.674482  0  2.251789  0  0  -0.697783  0  2.239602  0  -1.198153  0  -0.369407  -0.658351  0  2.259899  0
O  O102  1  0.80646554  0.59742169  0.96873719  1  0  -0.779266  0  2.154508  0  0  -0.741286  0  2.425968  0  0  -0.76503  0  2.411996  0  -1.22255  0  -0.404019  -0.724692  0  2.435028  0
O  O103  1  0.37296735  0.90259990  0.53120956  1  0  -0.780153  0  2.153494  0  0  -0.742045  0  2.425288  0  0  -0.765803  0  2.411267  0  -1.22164  0  -0.404692  -0.725444  0  2.434363  0
O  O104  1  0.19352765  0.40258415  0.03126515  1  0  -0.779464  0  2.153921  0  0  -0.741481  0  2.425475  0  0  -0.765232  0  2.411503  0  -1.222092  0  -0.404152  -0.724884  0  2.434532  0
O  O105  1  0.62702915  0.09739434  0.46878972  1  0  -0.78023  0  2.153374  0  0  -0.742082  0  2.425057  0  0  -0.765844  0  2.41104  0  -1.221731  0  -0.404696  -0.725474  0  2.434125  0
O  O106  1  0.84472081  0.62015622  0.28989542  1  0  -0.901701  0  1.880078  0  0  -0.860377  0  2.078173  0  0  -0.877232  0  2.045753  0  -1.271854  0  -0.632846  -0.848481  0  2.101003  0
O  O107  1  0.75467348  0.87980740  0.21012662  1  0  -0.901349  0  1.880092  0  0  -0.860107  0  2.078605  0  0  -0.876979  0  2.046212  0  -1.265334  0  -0.632617  -0.848125  0  2.101293  0
O  O108  1  0.15528135  0.37984381  0.71010429  1  0  -0.901727  0  1.88009  0  0  -0.860395  0  2.078152  0  0  -0.87725  0  2.045738  0  -1.272327  0  -0.632831  -0.848497  0  2.100982  0
O  O109  1  0.24532521  0.12019264  0.78987345  1  0  -0.901356  0  1.880051  0  0  -0.860117  0  2.078566  0  0  -0.876986  0  2.046173  0  -1.265336  0  -0.632617  -0.848137  0  2.10126  0
O  O110  1  0.17127901  0.39475425  0.27551069  1  0  -0.913745  0  1.820119  0  0  -0.874964  0  2.0077  0  0  -0.892642  0  1.976838  0  -1.270036  0  -0.646803  -0.862376  0  2.029264  0
O  O111  1  0.84122579  0.10534679  0.22451773  1  0  -0.913347  0  1.819992  0  0  -0.875075  0  2.006816  0  0  -0.892655  0  1.97594  0  -1.291963  0  -0.646712  -0.862572  0  2.028339  0
O  O112  1  0.82871968  0.60524579  0.72448938  1  0  -0.913725  0  1.820104  0  0  -0.874961  0  2.007651  0  0  -0.892643  0  1.976806  0  -1.270004  0  -0.646783  -0.862371  0  2.029219  0
O  O113  1  0.15877390  0.89465407  0.77548243  1  0  -0.913367  0  1.819939  0  0  -0.87511  0  2.006782  0  0  -0.892692  0  1.975922  0  -1.291975  0  -0.64673  -0.862605  0  2.028307  0
