# generated using pymatgen
data_CoH30C28N8(O5F4)2
_symmetry_space_group_name_H-M   'P 1'
_cell_length_a   8.75413404
_cell_length_b   9.60824924
_cell_length_c   11.32508900
_cell_angle_alpha   81.12741224
_cell_angle_beta   64.18270921
_cell_angle_gamma   72.70283483
_symmetry_Int_Tables_number   1
_chemical_formula_structural   CoH30C28N8(O5F4)2
_chemical_formula_sum   'Co1 H30 C28 N8 O10 F8'
_cell_volume   818.37644005
_cell_formula_units_Z   1
loop_
 _symmetry_equiv_pos_site_id
 _symmetry_equiv_pos_as_xyz
  1  'x, y, z'
loop_
 _atom_site_type_symbol
 _atom_site_label
 _atom_site_symmetry_multiplicity
 _atom_site_fract_x
 _atom_site_fract_y
 _atom_site_fract_z
 _atom_site_occupancy
 _atom_site_hse06_10hf_ddec_charge
 _atom_site_hse06_10hf_ddec_spin_density
 _atom_site_hse06_10hf_ddec_sum_bond_order
 _atom_site_hse06_10hf_magmom
 _atom_site_hse06_ddec_charge
 _atom_site_hse06_ddec_spin_density
 _atom_site_hse06_ddec_sum_bond_order
 _atom_site_hse06_magmom
 _atom_site_pbe_cm5_charge
 _atom_site_pbe_ddec_charge
 _atom_site_pbe_ddec_spin_density
 _atom_site_pbe_ddec_sum_bond_order
 _atom_site_pbe_magmom
Co  Co0  1  0.99998047  0.00001493  0.50001025  1  0.741372  1.046544  2.394058  0.991  0.841238  1.048744  2.310558  0.996  0.581975  0.683515  1.039412  2.449038  0.978
H  H1  1  0.77669148  0.25210979  0.46017883  1  0.371728  -0.000214  0.977582  0.0  0.382699  -0.000226  0.961339  0.0  0.284048  0.364298  -0.00019  0.988545  0.0
H  H2  1  0.22330104  0.74788785  0.53982351  1  0.371709  -0.000214  0.977615  0.0  0.382679  -0.000225  0.96137  0.0  0.284032  0.364283  -0.000189  0.988582  0.0
H  H3  1  0.64346357  0.29058253  0.60574117  1  0.407695  0.000779  0.90766  0.002  0.418633  0.000623  0.891505  0.002  0.294085  0.40047  0.00094  0.918318  0.002
H  H4  1  0.35654727  0.70937983  0.39427088  1  0.407694  0.000779  0.90761  0.002  0.418623  0.000623  0.891471  0.002  0.294107  0.400468  0.00094  0.918268  0.002
H  H5  1  0.33070197  0.99328292  0.51423474  1  0.083755  -9.6e-05  1.036495  0.0  0.084433  -9.8e-05  1.036025  0.0  0.120387  0.083132  -0.000121  1.037219  0.0
H  H6  1  0.66928621  0.00671709  0.48576256  1  0.083778  -9.6e-05  1.03648  0.0  0.084459  -9.8e-05  1.036011  0.0  0.120427  0.083155  -0.000121  1.037204  0.0
H  H7  1  0.38402921  0.94695568  0.35094696  1  0.099287  -4.7e-05  0.984639  0.0  0.099869  -4.7e-05  0.983241  0.0  0.125352  0.098644  -3.7e-05  0.985935  0.0
H  H8  1  0.61593372  0.05304400  0.64905600  1  0.099317  -4.8e-05  0.984547  0.0  0.099904  -4.6e-05  0.983147  0.0  0.125409  0.098674  -3.8e-05  0.985844  0.0
H  H9  1  0.10277312  0.21482830  0.60852762  1  0.104707  -8.2e-05  1.001674  0.0  0.106621  -4.6e-05  0.999789  0.0  0.125699  0.103585  -9.9e-05  1.002793  0.0
H  H10  1  0.89722663  0.78517991  0.39147373  1  0.104654  -8.3e-05  1.00179  0.0  0.106563  -4.6e-05  0.999913  0.0  0.125696  0.103531  -9.9e-05  1.002905  0.0
H  H11  1  0.99476385  0.32756468  0.51185651  1  0.114895  -8.7e-05  0.98937  0.0  0.115975  -8.2e-05  0.98859  0.0  0.129967  0.113917  -8.6e-05  0.990123  0.0
H  H12  1  0.00522986  0.67244692  0.48814818  1  0.11481  -8.7e-05  0.989423  0.0  0.115894  -8.3e-05  0.988635  0.0  0.129939  0.113831  -8.6e-05  0.990175  0.0
H  H13  1  0.23983369  0.10577964  0.22330397  1  0.091793  -5.6e-05  0.990335  0.0  0.092411  -2.7e-05  0.989082  0.0  0.120242  0.09132  -7.3e-05  0.991479  0.0
H  H14  1  0.76013376  0.89422631  0.77670294  1  0.091818  -5.6e-05  0.990386  0.0  0.092437  -2.6e-05  0.989127  0.0  0.12028  0.091339  -7.3e-05  0.991528  0.0
H  H15  1  0.07293822  0.26970279  0.29270600  1  0.102372  -4.9e-05  1.012503  0.0  0.103027  -7.6e-05  1.012396  0.0  0.123015  0.101761  -6e-05  1.012849  0.0
H  H16  1  0.92703406  0.73030837  0.70730399  1  0.102435  -4.9e-05  1.012491  0.0  0.103088  -7.7e-05  1.012369  0.0  0.12306  0.101822  -6e-05  1.012838  0.0
H  H17  1  0.53630453  0.08706468  0.16786008  1  0.086302  1.1e-05  0.966913  0.0  0.086684  9e-06  0.965728  0.0  0.117284  0.086234  1.1e-05  0.967488  0.0
H  H18  1  0.46366336  0.91293606  0.83213141  1  0.086317  1.1e-05  0.966936  0.0  0.086684  9e-06  0.965779  0.0  0.1173  0.086242  1.1e-05  0.967505  0.0
H  H19  1  0.60176815  0.23599468  0.19374763  1  0.086927  -5.6e-05  1.023889  0.0  0.08748  -5.8e-05  1.023217  0.0  0.115227  0.086563  -5.9e-05  1.024422  0.0
H  H20  1  0.39821178  0.76399925  0.80623985  1  0.087001  -5.7e-05  1.023939  0.0  0.087564  -5.8e-05  1.023266  0.0  0.115253  0.086631  -5.9e-05  1.024468  0.0
H  H21  1  0.52797035  0.29819536  0.41138470  1  0.111482  -4.7e-05  0.976127  0.0  0.112538  -3.7e-05  0.975049  0.0  0.131601  0.110462  -5.7e-05  0.977416  0.0
H  H22  1  0.47203276  0.70179245  0.58859945  1  0.111345  -4.7e-05  0.976096  0.0  0.112397  -3.7e-05  0.97502  0.0  0.131542  0.110331  -5.7e-05  0.977379  0.0
H  H23  1  0.41009877  0.19475074  0.54927614  1  0.098272  -7e-06  0.990044  0.0  0.099032  -9e-06  0.989425  0.0  0.125791  0.097919  -6e-06  0.990167  0.0
H  H24  1  0.58989989  0.80523934  0.45071097  1  0.098179  -7e-06  0.990089  0.0  0.098937  -1e-05  0.989474  0.0  0.125764  0.097827  -6e-06  0.990211  0.0
H  H25  1  0.15481905  0.46958318  0.32608399  1  0.097424  4e-06  1.003989  0.0  0.098816  0.0  1.002423  0.0  0.122315  0.096284  3e-06  1.005309  0.0
H  H26  1  0.84517478  0.53042853  0.67391271  1  0.097458  4e-06  1.004015  0.0  0.098852  0.0  1.002448  0.0  0.12234  0.096321  3e-06  1.005337  0.0
H  H27  1  0.38192006  0.45734791  0.28498150  1  0.11255  -5.9e-05  0.963912  0.0  0.113503  -3.7e-05  0.962855  0.0  0.130798  0.111758  -7.4e-05  0.964829  0.0
H  H28  1  0.61808305  0.54264415  0.71500833  1  0.112525  -5.9e-05  0.963849  0.0  0.113499  -3.7e-05  0.96277  0.0  0.130826  0.111736  -7.4e-05  0.964774  0.0
H  H29  1  0.77809781  0.57850008  0.46955115  1  0.271636  -1.3e-05  1.011476  0.0  0.282048  4e-06  1.004614  0.0  0.298699  0.264355  -0.0  1.01636  0.0
H  H30  1  0.22193249  0.42149439  0.53043389  1  0.271811  -1.3e-05  1.011254  0.0  0.282224  4e-06  1.004387  0.0  0.29881  0.264528  -0.0  1.016142  0.0
C  C31  1  0.06849591  0.92446791  0.73555621  1  0.619303  -0.002746  4.184226  -0.002  0.659842  -0.000264  4.170592  0.001  0.220501  0.591977  -0.004715  4.192183  -0.003
C  C32  1  0.93148836  0.07554064  0.26445812  1  0.619137  -0.002746  4.184142  -0.002  0.65968  -0.000262  4.170509  0.001  0.220442  0.591808  -0.004715  4.192106  -0.003
C  C33  1  0.02613795  0.97095790  0.87139502  1  -0.201313  -0.001661  4.01074  -0.001  -0.205134  -0.001166  4.020839  -0.001  -0.022915  -0.199076  -0.00152  4.004357  -0.001
C  C34  1  0.97385303  0.02905364  0.12862205  1  -0.201305  -0.001662  4.010609  -0.001  -0.205128  -0.001173  4.020712  -0.001  -0.022898  -0.199068  -0.001519  4.004223  -0.001
C  C35  1  0.10827287  0.06372555  0.89091191  1  0.159852  -0.000242  4.095457  0.0  0.171574  -0.00018  4.101725  0.0  0.090283  0.152412  -0.000223  4.092321  0.0
C  C36  1  0.89172151  0.93628819  0.10909319  1  0.159829  -0.000242  4.095174  0.0  0.171528  -0.000174  4.101456  0.0  0.090308  0.152392  -0.000223  4.092032  0.0
C  C37  1  0.08472667  0.09047930  0.01601053  1  0.153811  -0.000248  4.090333  0.0  0.162953  -9.7e-05  4.098451  0.0  0.088177  0.146932  -0.00022  4.086685  0.0
C  C38  1  0.91525951  0.90952706  0.98400167  1  0.15365  -0.000249  4.090626  0.0  0.162788  -0.000104  4.09876  0.0  0.08809  0.146771  -0.00022  4.086976  0.0
C  C39  1  0.34664595  0.03647860  0.41534079  1  -0.019739  -0.000385  3.891594  0.0  -0.010318  -0.000377  3.900828  0.0  0.012798  -0.026204  -0.000489  3.885733  0.0
C  C40  1  0.65333427  0.96352273  0.58465807  1  -0.019773  -0.000386  3.891559  0.0  -0.010336  -0.00039  3.900749  0.0  0.012685  -0.026247  -0.000491  3.885721  0.0
C  C41  1  0.11921101  0.25527545  0.50919225  1  0.010537  -0.000345  3.734107  0.0  0.018933  2e-06  3.744657  0.0  0.025723  0.004913  -0.000451  3.727358  0.0
C  C42  1  0.88078295  0.74473078  0.49081035  1  0.010636  -0.000343  3.734291  0.0  0.019048  0.0  3.744825  0.0  0.025705  0.005012  -0.00045  3.727534  0.0
C  C43  1  0.19827786  0.19642752  0.28740071  1  -0.012233  -0.000501  3.861393  0.0  -0.003106  -0.000202  3.87228  0.0  0.013968  -0.018363  -0.000604  3.854113  0.0
C  C44  1  0.80169564  0.80357930  0.71260765  1  -0.012078  -0.0005  3.861552  0.0  -0.002952  -0.000208  3.872476  0.0  0.013913  -0.018191  -0.000604  3.854243  0.0
C  C45  1  0.49932775  0.17719653  0.23206587  1  0.003087  -5.9e-05  3.913957  0.0  0.01167  -1.7e-05  3.92293  0.0  0.019513  -0.002639  -8.3e-05  3.906882  0.0
C  C46  1  0.50065821  0.82279825  0.76792395  1  0.002928  -5.9e-05  3.914255  0.0  0.011499  -1.6e-05  3.923258  0.0  0.019461  -0.002758  -8.3e-05  3.907126  0.0
C  C47  1  0.42990781  0.23502188  0.44910216  1  0.010078  -5.1e-05  3.815027  0.0  0.018651  -4.4e-05  3.823484  0.0  0.029804  0.004294  -6.4e-05  3.809232  0.0
C  C48  1  0.57009506  0.76497131  0.55088407  1  0.010253  -5.1e-05  3.814856  0.0  0.018823  -4.7e-05  3.823314  0.0  0.029812  0.00447  -6.4e-05  3.809061  0.0
C  C49  1  0.28082493  0.39702739  0.32023315  1  0.017865  -1.8e-05  3.797235  0.0  0.026626  3e-06  3.80485  0.0  0.034171  0.011882  -1.8e-05  3.792079  0.0
C  C50  1  0.71917638  0.60297544  0.67976304  1  0.017821  -1.7e-05  3.797025  0.0  0.026568  2e-06  3.804633  0.0  0.034095  0.011813  -1.7e-05  3.791923  0.0
C  C51  1  0.75917772  0.54357299  0.27919090  1  0.642047  3e-05  4.205583  0.0  0.676925  1.3e-05  4.192863  0.0  0.208373  0.618856  4.6e-05  4.212832  0.0
C  C52  1  0.24087264  0.45639797  0.72080806  1  0.641773  3e-05  4.205982  0.0  0.676653  1.6e-05  4.193257  0.0  0.208221  0.618584  4.6e-05  4.213234  0.0
C  C53  1  0.88133299  0.52232588  0.13539674  1  -0.218616  2e-06  4.033277  0.0  -0.223507  -9e-06  4.046644  0.0  -0.030022  -0.215386  2.6e-05  4.023986  0.0
C  C54  1  0.11869903  0.47767048  0.86460429  1  -0.218653  5e-06  4.033246  0.0  -0.223548  -4e-06  4.04663  0.0  -0.029968  -0.215413  2.6e-05  4.023919  0.0
C  C55  1  0.83866551  0.47032422  0.04830293  1  0.166731  -6e-06  4.091492  0.0  0.176887  2e-06  4.098106  0.0  0.090049  0.159586  -1e-06  4.088034  0.0
C  C56  1  0.16138184  0.52966744  0.95168923  1  0.166959  -9e-06  4.090794  0.0  0.17711  -0.0  4.097406  0.0  0.090078  0.159819  -0.0  4.087338  0.0
C  C57  1  0.95436820  0.44746425  0.91733047  1  0.155536  5e-06  4.086135  0.0  0.165238  -3e-06  4.093628  0.0  0.086032  0.148794  -1e-06  4.081649  0.0
C  C58  1  0.04567397  0.55255566  0.08266089  1  0.155555  6e-06  4.085909  0.0  0.165258  -0.0  4.093412  0.0  0.086157  0.14881  -1e-06  4.081413  0.0
N  N59  1  0.17109784  0.13150035  0.42380913  1  -0.165196  -0.013635  3.4259  -0.01  -0.198384  -0.01258  3.450144  -0.01  -0.331004  -0.144441  -0.012563  3.411204  -0.009
N  N60  1  0.82888176  0.86850738  0.57619712  1  -0.165375  -0.013638  3.426153  -0.01  -0.198608  -0.012546  3.450517  -0.01  -0.331004  -0.144616  -0.012565  3.411446  -0.009
N  N61  1  0.33273457  0.27624192  0.23680166  1  -0.183528  -0.001591  3.425089  -0.001  -0.198715  -0.001087  3.440233  -0.001  -0.341733  -0.172233  -0.001843  3.413585  -0.001
N  N62  1  0.66723938  0.72376395  0.76319607  1  -0.183597  -0.00159  3.42532  -0.001  -0.198778  -0.001099  3.440468  -0.001  -0.341682  -0.172303  -0.001843  3.413808  -0.001
N  N63  1  0.48076822  0.11668953  0.36397895  1  -0.200746  -0.001185  3.481364  -0.001  -0.216309  -0.001345  3.498071  -0.001  -0.346981  -0.18905  -0.001309  3.46857  -0.001
N  N64  1  0.51921673  0.88330417  0.63601309  1  -0.200679  -0.001187  3.48143  -0.001  -0.216224  -0.001344  3.498133  -0.001  -0.346925  -0.188995  -0.00131  3.46863  -0.001
N  N65  1  0.25782685  0.33729718  0.45664749  1  -0.113655  -0.00063  3.482832  -0.001  -0.129418  -0.000242  3.499802  0.0  -0.34782  -0.10284  -0.000687  3.471313  -0.001
N  N66  1  0.74217224  0.66270466  0.54334689  1  -0.113519  -0.000631  3.482634  -0.001  -0.12928  -0.000232  3.499605  0.0  -0.347791  -0.102699  -0.000686  3.471125  -0.001
O  O67  1  0.99344049  0.01809828  0.67009701  1  -0.529434  -0.011907  2.427295  -0.01  -0.571778  -0.016658  2.413281  -0.015  -0.300692  -0.503084  -0.009087  2.436578  -0.007
O  O68  1  0.00652948  0.98193016  0.32991874  1  -0.529415  -0.011895  2.427702  -0.01  -0.571767  -0.016635  2.413706  -0.015  -0.300819  -0.50307  -0.009076  2.436986  -0.007
O  O69  1  0.16767247  0.80021975  0.70263351  1  -0.523888  -0.000763  2.212086  0.0  -0.548625  -0.000505  2.203319  0.0  -0.285871  -0.507536  -0.001535  2.217855  -0.001
O  O70  1  0.83230065  0.19979793  0.29737102  1  -0.523799  -0.000763  2.211476  0.0  -0.54855  -0.000514  2.202724  0.0  -0.285813  -0.507437  -0.001535  2.217231  -0.001
O  O71  1  0.76645990  0.24185284  0.55146279  1  -0.783725  0.012657  1.999971  0.019  -0.804945  0.010428  1.965236  0.015  -0.584322  -0.767364  0.01535  2.022986  0.022
O  O72  1  0.23355410  0.75813120  0.44853503  1  -0.783707  0.012645  1.999923  0.019  -0.804913  0.010418  1.965199  0.015  -0.584327  -0.767364  0.015336  2.022916  0.022
O  O73  1  0.83916219  0.49939327  0.35555912  1  -0.567726  -2.3e-05  2.252653  0.0  -0.592064  -3.8e-05  2.241741  0.0  -0.330753  -0.550823  4.6e-05  2.259467  0.0
O  O74  1  0.16092753  0.50061005  0.64442660  1  -0.567515  -2.3e-05  2.252858  0.0  -0.59187  -3.3e-05  2.241989  0.0  -0.330718  -0.550609  4.6e-05  2.259657  0.0
O  O75  1  0.59862370  0.60049036  0.31158180  1  -0.587557  0.000254  2.119874  0.0  -0.608618  0.000183  2.106245  0.0  -0.330561  -0.57301  0.000324  2.128555  0.0
O  O76  1  0.40142745  0.39941108  0.68844819  1  -0.587574  0.000254  2.119922  0.0  -0.608645  0.000178  2.106304  0.0  -0.330487  -0.573021  0.000324  2.1286  0.0
F  F77  1  0.21738044  0.12845981  0.78616710  1  -0.1108  -0.000124  1.439673  0.0  -0.125781  -4.8e-05  1.436659  0.0  -0.077058  -0.105345  -0.000114  1.446869  0.0
F  F78  1  0.78259933  0.87154671  0.21384807  1  -0.110919  -0.000124  1.439344  0.0  -0.125849  -4.7e-05  1.436298  0.0  -0.07721  -0.105465  -0.000114  1.446537  0.0
F  F79  1  0.17451232  0.17748107  0.02715089  1  -0.104753  -7e-05  1.412167  0.0  -0.114028  -3.5e-05  1.404092  0.0  -0.077837  -0.098639  -5e-05  1.418522  0.0
F  F80  1  0.82548064  0.82252834  0.97285872  1  -0.104626  -6.9e-05  1.412321  0.0  -0.113901  -3.6e-05  1.404254  0.0  -0.077733  -0.098515  -5e-05  1.418676  0.0
F  F81  1  0.68303733  0.43664749  0.09015181  1  -0.10938  -6e-06  1.415127  0.0  -0.116869  -5e-06  1.403425  0.0  -0.080135  -0.103911  -8e-06  1.423337  0.0
F  F82  1  0.31701564  0.56332768  0.90984843  1  -0.109505  -6e-06  1.414972  0.0  -0.116994  -5e-06  1.403273  0.0  -0.080225  -0.104037  -8e-06  1.423182  0.0
F  F83  1  0.90423838  0.38821151  0.84273433  1  -0.118061  -4e-06  1.407028  0.0  -0.126065  -3e-06  1.39645  0.0  -0.08715  -0.112162  -5e-06  1.414257  0.0
F  F84  1  0.09578398  0.61184062  0.15723669  1  -0.118045  -3e-06  1.407357  0.0  -0.126053  -3e-06  1.396784  0.0  -0.087176  -0.112146  -5e-06  1.414586  0.0
