# generated using pymatgen
data_Zn4H24C40N8O19
_symmetry_space_group_name_H-M   'P 1'
_cell_length_a   18.32437563
_cell_length_b   18.24501812
_cell_length_c   24.79842382
_cell_angle_alpha   111.60598778
_cell_angle_beta   111.67203265
_cell_angle_gamma   90.01719567
_symmetry_Int_Tables_number   1
_chemical_formula_structural   Zn4H24C40N8O19
_chemical_formula_sum   'Zn8 H48 C80 N16 O38'
_cell_volume   7073.74519317
_cell_formula_units_Z   2
loop_
 _symmetry_equiv_pos_site_id
 _symmetry_equiv_pos_as_xyz
  1  'x, y, z'
loop_
 _atom_site_type_symbol
 _atom_site_label
 _atom_site_symmetry_multiplicity
 _atom_site_fract_x
 _atom_site_fract_y
 _atom_site_fract_z
 _atom_site_occupancy
 _atom_site_pbe_bader_charge
 _atom_site_pbe_bader_spin_density
 _atom_site_pbe_cm5_charge
 _atom_site_pbe_ddec_charge
 _atom_site_pbe_ddec_spin_density
 _atom_site_pbe_ddec_sum_bond_order
 _atom_site_pbe_magmom
Zn  Zn0  1  0.61537920  0.02711373  0.05203094  1  1.308136  0  0.669807  0.960725  0  2.352369  0
Zn  Zn1  1  0.02308101  0.61624475  0.05190036  1  1.311815  0  0.673922  0.966607  0  2.345709  0
Zn  Zn2  1  0.43649844  0.02493969  0.05207541  1  1.307471  0  0.669366  0.960193  0  2.3519  0
Zn  Zn3  1  0.02861830  0.43535107  0.05168426  1  1.31314  0  0.673673  0.965978  0  2.345998  0
Zn  Zn4  1  0.47507101  0.06406268  0.95054604  1  1.318983  0  0.680899  0.966927  0  2.371066  0
Zn  Zn5  1  0.88740416  0.47487911  0.95091350  1  1.309475  0  0.676175  0.951544  0  2.402286  0
Zn  Zn6  1  0.47536380  0.88633060  0.95053262  1  1.321761  0  0.68086  0.966973  0  2.370438  0
Zn  Zn7  1  0.06318005  0.47588057  0.95077482  1  1.313647  0  0.676335  0.951507  0  2.403644  0
H  H8  1  0.50078717  0.57472891  0.91673693  1  0.057124  0  0.095671  0.104301  0  1.024594  0
H  H9  1  0.34665291  0.50577209  0.92204791  1  0.047229  0  0.095962  0.10675  0  1.018552  0
H  H10  1  0.41617970  0.34243318  0.91709402  1  0.041711  0  0.095967  0.104423  0  1.024137  0
H  H11  1  0.57528200  0.41623794  0.92221380  1  0.060032  0  0.095823  0.106378  0  1.018718  0
H  H12  1  0.49895912  0.27886011  0.85783682  1  0.036844  0  0.096522  0.103639  0  1.003179  0
H  H13  1  0.28051785  0.36154016  0.85672247  1  0.020514  0  0.096662  0.102611  0  1.002209  0
H  H14  1  0.35867760  0.57877772  0.85773160  1  0.060408  0  0.096517  0.103571  0  1.003702  0
H  H15  1  0.57624716  0.49504746  0.85657354  1  0.047975  0  0.096771  0.103379  0  1.00318  0
H  H16  1  0.73820927  0.14371472  0.24591620  1  0.11537  0  0.109853  0.115834  0  0.988539  0
H  H17  1  0.10133155  0.73819625  0.24564994  1  0.114699  0  0.109878  0.115622  0  0.98841  0
H  H18  1  0.50763037  0.10226809  0.24615867  1  0.136857  0  0.109913  0.116081  0  0.989094  0
H  H19  1  0.14479175  0.50686615  0.24568213  1  0.126575  0  0.110143  0.116219  0  0.988908  0
H  H20  1  0.79769255  0.20341065  0.36427095  1  0.12226  0  0.107899  0.106502  0  1.011632  0
H  H21  1  0.16025043  0.79766832  0.36397491  1  0.116723  0  0.108165  0.106766  0  1.011888  0
H  H22  1  0.56679431  0.16108784  0.36452584  1  0.108402  0  0.107445  0.105656  0  1.011842  0
H  H23  1  0.20467628  0.56611301  0.36403663  1  0.119233  0  0.107865  0.106285  0  1.011206  0
H  H24  1  0.92738671  0.36719558  0.63932642  1  0.101147  0  0.105657  0.116936  0  1.034714  0
H  H25  1  0.27225873  0.92738099  0.63886956  1  0.096242  0  0.105121  0.116326  0  1.034766  0
H  H26  1  0.71191712  0.27256489  0.63892365  1  0.125302  0  0.106044  0.117343  0  1.034883  0
H  H27  1  0.36688745  0.71149625  0.63875217  1  0.1197  0  0.105495  0.116777  0  1.035964  0
H  H28  1  0.76367997  0.93507572  0.06593240  1  0.644415  0  0.316918  0.376885  0  0.929509  0
H  H29  1  0.12763997  0.76544874  0.06455969  1  0.650239  0  0.315587  0.375541  0  0.934343  0
H  H30  1  0.30242088  0.13111912  0.06601804  1  0.638129  0  0.316485  0.375111  0  0.93117  0
H  H31  1  0.93675105  0.29906707  0.06451556  1  0.6475  0  0.315722  0.375983  0  0.93416  0
H  H32  1  0.86629922  0.15960767  0.06949345  1  0.630322  0  0.3311  0.364371  0  0.898212  0
H  H33  1  0.16351136  0.20560159  0.06968716  1  0.622691  0  0.331072  0.364545  0  0.897825  0
H  H34  1  0.20305578  0.90985988  0.06957881  1  0.634686  0  0.330542  0.363539  0  0.897889  0
H  H35  1  0.90616880  0.86415839  0.06979009  1  0.644462  0  0.331592  0.36501  0  0.89765  0
H  H36  1  0.48752620  0.69906399  0.98357008  1  0.457122  0  0.297789  0.294825  0  0.963982  0
H  H37  1  0.56873587  0.76732049  0.03729931  1  0.443079  0  0.302019  0.291582  0  0.945265  0
H  H38  1  0.27294734  0.48871248  0.98298956  1  0.423222  0  0.292851  0.293129  0  0.974487  0
H  H39  1  0.25191005  0.56855684  0.03230500  1  0.427913  0  0.29416  0.285516  0  0.973851  0
H  H40  1  0.49626482  0.28497201  0.98389844  1  0.436084  0  0.298144  0.295019  0  0.964781  0
H  H41  1  0.46877716  0.27027075  0.03755609  1  0.405537  0  0.301876  0.291277  0  0.945553  0
H  H42  1  0.70994773  0.49430981  0.98319407  1  0.452571  0  0.292311  0.292694  0  0.97358  0
H  H43  1  0.78022808  0.46380409  0.03251057  1  0.430141  0  0.294669  0.286545  0  0.973478  0
H  H44  1  0.48293216  0.14442871  0.85004963  1  0.414816  0  0.30015  0.295339  0  0.948515  0
H  H45  1  0.55946615  0.10096570  0.87903652  1  0.443369  0  0.2943  0.289709  0  0.980253  0
H  H46  1  0.10381661  0.32615997  0.87925032  1  0.436251  0  0.293143  0.288463  0  0.98675  0
H  H47  1  0.14787811  0.36908460  0.84767201  1  0.425481  0  0.299826  0.293969  0  0.951282  0
H  H48  1  0.36690516  0.70538158  0.84993853  1  0.426858  0  0.299855  0.295108  0  0.947679  0
H  H49  1  0.31951103  0.77796679  0.87905939  1  0.419323  0  0.294132  0.289758  0  0.98026  0
H  H50  1  0.77569840  0.55296721  0.87937628  1  0.410013  0  0.293494  0.288759  0  0.987243  0
H  H51  1  0.70000879  0.47837397  0.84766200  1  0.411798  0  0.300328  0.294685  0  0.951356  0
H  H52  1  0.02099232  0.44180538  0.73510286  1  0.608322  0  0.34617  0.372776  0  0.858311  0
H  H53  1  0.29336884  0.02138733  0.73485909  1  0.60429  0  0.346121  0.372814  0  0.857714  0
H  H54  1  0.71350451  0.29351608  0.73445963  1  0.587287  0  0.346547  0.374175  0  0.85597  0
H  H55  1  0.44121830  0.71315411  0.73463770  1  0.608948  0  0.346622  0.373667  0  0.85692  0
C  C56  1  0.41784227  0.91782207  0.83589633  1  1.542194  0  0.233795  0.661005  0  4.110938  0
C  C57  1  0.91779334  0.41812705  0.83608496  1  1.543204  0  0.233025  0.657602  0  4.113988  0
C  C58  1  0.73428482  0.18105969  0.33804835  1  0.030636  0  -0.078911  -0.104466  0  3.961786  0
C  C59  1  0.15668947  0.73410510  0.33768757  1  -0.151128  0  -0.079619  -0.10636  0  3.960798  0
C  C60  1  0.60384446  0.15714732  0.33819661  1  -0.011007  0  -0.079238  -0.104855  0  3.959615  0
C  C61  1  0.18180933  0.60328744  0.33772290  1  0.011481  0  -0.078487  -0.105157  0  3.958419  0
C  C62  1  0.68584189  0.18586471  0.37156910  1  0.085664  0  -0.001707  0.020678  0  3.99394  0
C  C63  1  0.18604428  0.68547718  0.37115638  1  0.069833  0  -0.001364  0.023375  0  3.988914  0
C  C64  1  0.61943951  0.11954574  0.23911115  1  -0.050291  0  -0.011896  -0.031036  0  3.959494  0
C  C65  1  0.11948138  0.61900491  0.23866955  1  0.041135  0  -0.013003  -0.033594  0  3.96315  0
C  C66  1  0.78176376  0.28185401  0.56313524  1  1.010791  0  0.243352  0.254652  0  3.955498  0
C  C67  1  0.28188342  0.78153372  0.56284209  1  1.009729  0  0.243116  0.253889  0  3.955229  0
C  C68  1  0.72061158  0.22064622  0.44095711  1  0.913942  0  0.242663  0.251027  0  3.971838  0
C  C69  1  0.22085652  0.72030353  0.44058224  1  0.918308  0  0.24283  0.2509  0  3.969647  0
C  C70  1  0.89361698  0.35962773  0.66556997  1  -0.00159  0  -0.114562  -0.296531  0  3.996868  0
C  C71  1  0.30610347  0.89355693  0.66517877  1  0.029005  0  -0.115433  -0.29732  0  3.997273  0
C  C72  1  0.77191650  0.30641770  0.66533547  1  -0.039642  0  -0.115501  -0.29759  0  3.997397  0
C  C73  1  0.35930107  0.77159929  0.66511447  1  -0.058397  0  -0.116052  -0.298671  0  4.000065  0
C  C74  1  0.92639188  0.39232913  0.73150529  1  0.491545  0  0.093132  0.329346  0  4.073818  0
C  C75  1  0.33912245  0.92635297  0.73113255  1  0.499733  0  0.093115  0.328799  0  4.079941  0
C  C76  1  0.80473049  0.33959912  0.73126027  1  0.511015  0  0.093303  0.329652  0  4.07666  0
C  C77  1  0.39184806  0.80453739  0.73107259  1  0.50008  0  0.093123  0.329719  0  4.078055  0
C  C78  1  0.88266530  0.38309466  0.76574066  1  0.073548  0  -0.029536  -0.246861  0  3.861479  0
C  C79  1  0.38257878  0.88257698  0.76542461  1  0.108283  0  -0.029043  -0.24521  0  3.861256  0
C  C80  1  0.81640603  0.31657433  0.63257369  1  -0.03762  0  -0.003619  0.082265  0  4.052489  0
C  C81  1  0.31638705  0.81619183  0.63225216  1  -0.058712  0  -0.004869  0.079723  0  4.056307  0
C  C82  1  0.58398979  0.08414653  0.16836736  1  1.562272  0  0.22932  0.607064  0  4.154754  0
C  C83  1  0.08400500  0.58361887  0.16797727  1  1.538109  0  0.230395  0.608466  0  4.154337  0
C  C84  1  0.63926212  0.12867972  0.99340128  1  1.513683  0  0.212498  0.599278  0  4.160521  0
C  C85  1  0.86099993  0.63687017  0.99272221  1  1.497859  0  0.211451  0.600472  0  4.160539  0
C  C86  1  0.35386422  0.86477760  0.99337000  1  1.503166  0  0.211889  0.59709  0  4.165203  0
C  C87  1  0.13139716  0.35550585  0.99234688  1  1.505409  0  0.211387  0.59914  0  4.163821  0
C  C88  1  0.63948801  0.86023614  0.00279195  1  1.531874  0  0.225403  0.617445  0  4.13836  0
C  C89  1  0.86001535  0.36369703  0.00508986  1  1.496016  0  0.222942  0.607485  0  4.150153  0
C  C90  1  0.36341616  0.14275429  0.00282458  1  1.534519  0  0.225599  0.617166  0  4.138494  0
C  C91  1  0.14485106  0.64130868  0.00503809  1  1.507752  0  0.2229  0.606587  0  4.150725  0
C  C92  1  0.58707387  0.68128490  0.96371637  1  0.450137  0  0.077269  0.22893  0  4.103823  0
C  C93  1  0.28784046  0.59196445  0.96977446  1  0.425047  0  0.077143  0.235185  0  4.092131  0
C  C94  1  0.37685370  0.28277158  0.96398878  1  0.383691  0  0.077451  0.229408  0  4.103305  0
C  C95  1  0.68180673  0.37782620  0.96993900  1  0.429793  0  0.077205  0.23415  0  4.094405  0
C  C96  1  0.58720281  0.22271323  0.90686615  1  0.43645  0  0.076392  0.231502  0  4.092208  0
C  C97  1  0.22450383  0.32156725  0.90541522  1  0.420264  0  0.076873  0.228661  0  4.093343  0
C  C98  1  0.31948849  0.68400773  0.90680009  1  0.379191  0  0.076343  0.231773  0  4.093814  0
C  C99  1  0.68102115  0.58373704  0.90541074  1  0.40297  0  0.077057  0.230984  0  4.09208  0
C  C100  1  0.55890525  0.60092373  0.92393194  1  -0.078939  0  -0.118702  -0.203845  0  4.070286  0
C  C101  1  0.32607910  0.56328130  0.92834147  1  -0.036796  0  -0.119088  -0.205023  0  4.066454  0
C  C102  1  0.36524766  0.32329790  0.92420238  1  -0.002681  0  -0.119004  -0.204686  0  4.071222  0
C  C103  1  0.60213872  0.36500809  0.92848144  1  -0.050299  0  -0.118475  -0.203817  0  4.065098  0
C  C104  1  0.55816024  0.28852583  0.89474244  1  -0.071897  0  -0.117582  -0.205595  0  4.077901  0
C  C105  1  0.28974629  0.33740648  0.89264119  1  -0.014378  0  -0.117781  -0.201862  0  4.07069  0
C  C106  1  0.33638327  0.60603601  0.89464613  1  -0.04137  0  -0.117619  -0.205893  0  4.078504  0
C  C107  1  0.60293302  0.55513857  0.89249297  1  -0.034367  0  -0.117918  -0.204292  0  4.072108  0
C  C108  1  0.71644883  0.66159675  0.95410654  1  0.035159  0  -0.014491  -0.027591  0  3.913285  0
C  C109  1  0.29164789  0.71964130  0.95595791  1  0.025822  0  -0.016882  -0.031017  0  3.918678  0
C  C110  1  0.23769716  0.29245299  0.95408197  1  0.041534  0  -0.014833  -0.027061  0  3.91425  0
C  C111  1  0.66417768  0.23631212  0.95604887  1  -0.010224  0  -0.016546  -0.030212  0  3.919384  0
C  C112  1  0.71573150  0.30997506  0.97764627  1  0.044812  0  -0.017196  -0.026823  0  3.946937  0
C  C113  1  0.30965796  0.25951399  0.97363259  1  0.021143  0  -0.015132  -0.024467  0  3.952666  0
C  C114  1  0.26164161  0.66756161  0.97750513  1  0.041147  0  -0.016572  -0.025951  0  3.946416  0
C  C115  1  0.66397326  0.71417955  0.97348787  1  0.007734  0  -0.015622  -0.025054  0  3.95442  0
C  C116  1  0.69256693  0.79884224  0.00418153  1  0.014133  0  -0.032562  -0.19472  0  3.977137  0
C  C117  1  0.20689978  0.69574957  0.00742449  1  0.045486  0  -0.036539  -0.20404  0  3.988043  0
C  C118  1  0.31170999  0.20551854  0.00426770  1  0.054286  0  -0.032984  -0.195096  0  3.976961  0
C  C119  1  0.80038551  0.31170156  0.00754332  1  0.044917  0  -0.036184  -0.204277  0  3.985645  0
C  C120  1  0.69383991  0.18039671  0.98559107  1  0.049332  0  -0.030251  -0.184096  0  3.902971  0
C  C121  1  0.18266931  0.29303560  0.98425249  1  -0.024624  0  -0.032562  -0.18988  0  3.907875  0
C  C122  1  0.29151063  0.80514444  0.98551934  1  0.053444  0  -0.029515  -0.182271  0  3.899306  0
C  C123  1  0.80163159  0.69118461  0.98444111  1  0.02491  0  -0.032197  -0.187708  0  3.908115  0
C  C124  1  0.77303781  0.82674529  0.02663190  1  0.488365  0  0.075406  0.176653  0  4.095853  0
C  C125  1  0.19931099  0.77612519  0.02810699  1  0.449089  0  0.078139  0.184282  0  4.09189  0
C  C126  1  0.25364106  0.19996772  0.02663782  1  0.461559  0  0.075647  0.176674  0  4.095221  0
C  C127  1  0.82863822  0.25202000  0.02822564  1  0.494938  0  0.07756  0.18443  0  4.088809  0
C  C128  1  0.77527819  0.18799745  0.02004304  1  0.492798  0  0.08866  0.216173  0  4.038654  0
C  C129  1  0.19042196  0.24588342  0.01891485  1  0.570133  0  0.09144  0.221552  0  4.032708  0
C  C130  1  0.24451455  0.83201925  0.01998164  1  0.528459  0  0.089204  0.216112  0  4.035521  0
C  C131  1  0.82853332  0.77304720  0.01904376  1  0.554297  0  0.091291  0.22066  0  4.035289  0
C  C132  1  0.70126515  0.14801225  0.27239328  1  -0.112774  0  -0.078005  -0.083377  0  3.963455  0
C  C133  1  0.12389837  0.70104404  0.27202604  1  0.012345  0  -0.076496  -0.080752  0  3.961165  0
C  C134  1  0.57104482  0.12445466  0.27253038  1  -0.102837  0  -0.077193  -0.082278  0  3.963403  0
C  C135  1  0.14862634  0.57045202  0.27205628  1  -0.132299  0  -0.07712  -0.081665  0  3.964184  0
N  N136  1  0.67375349  0.21458430  0.47103378  1  -0.514744  0  -0.154764  -0.149027  0  3.211649  0
N  N137  1  0.25742559  0.67340545  0.47066604  1  -0.595605  0  -0.15536  -0.151032  0  3.213599  0
N  N138  1  0.79753569  0.25679778  0.47096686  1  -0.614282  0  -0.15547  -0.150707  0  3.21108  0
N  N139  1  0.21455087  0.79739776  0.47063080  1  -0.527604  0  -0.155191  -0.150745  0  3.212864  0
N  N140  1  0.70483671  0.24601854  0.53321607  1  -0.592448  0  -0.15663  -0.147227  0  3.217411  0
N  N141  1  0.28819578  0.70448010  0.53283790  1  -0.522273  0  -0.154872  -0.1437  0  3.215322  0
N  N142  1  0.82872239  0.28768450  0.53317269  1  -0.510333  0  -0.156427  -0.146359  0  3.213576  0
N  N143  1  0.24585459  0.82860711  0.53281410  1  -0.584289  0  -0.155468  -0.144326  0  3.213054  0
N  N144  1  0.54067224  0.72744352  0.99196700  1  -1.246795  0  -0.601056  -0.610013  0  3.385087  0
N  N145  1  0.28310518  0.54928725  0.00497444  1  -1.178633  0  -0.609779  -0.614412  0  3.3227  0
N  N146  1  0.45150415  0.26500278  0.99228817  1  -1.194222  0  -0.600924  -0.609258  0  3.386496  0
N  N147  1  0.72172637  0.45574886  0.00517744  1  -1.212866  0  -0.609597  -0.614132  0  3.32322  0
N  N148  1  0.54293436  0.14725016  0.86663139  1  -1.174087  0  -0.611387  -0.62214  0  3.329407  0
N  N149  1  0.14953780  0.32732857  0.86594609  1  -1.199704  0  -0.612131  -0.622311  0  3.335679  0
N  N150  1  0.32355972  0.71923855  0.86660416  1  -1.181759  0  -0.61099  -0.622245  0  3.329655  0
N  N151  1  0.71670257  0.53842635  0.86612417  1  -1.158889  0  -0.612581  -0.623585  0  3.33759  0
O  O152  1  0.50122568  0.00128635  0.00264006  1  -1.231586  0  -0.581955  -1.033498  0  2.562039  0
O  O153  1  0.00131036  0.50133695  0.00277137  1  -1.233987  0  -0.582176  -1.030137  0  2.574884  0
O  O154  1  0.40869033  0.87339185  0.86317067  1  -1.162786  0  -0.310442  -0.545483  0  2.317968  0
O  O155  1  0.98976231  0.41016734  0.86340720  1  -1.168659  0  -0.310808  -0.543334  0  2.328099  0
O  O156  1  0.45435970  0.98953581  0.86318140  1  -1.168777  0  -0.310642  -0.546053  0  2.317551  0
O  O157  1  0.87317252  0.45332675  0.86350283  1  -1.162621  0  -0.310253  -0.542653  0  2.326359  0
O  O158  1  0.63138134  0.08385413  0.14127687  1  -1.172873  0  -0.315724  -0.548255  0  2.325613  0
O  O159  1  0.05731060  0.63135050  0.14093351  1  -1.167056  0  -0.31619  -0.549879  0  2.328967  0
O  O160  1  0.50949432  0.05739222  0.14136606  1  -1.182123  0  -0.316015  -0.548542  0  2.323627  0
O  O161  1  0.08354275  0.50880334  0.14087156  1  -1.181423  0  -0.3156  -0.548759  0  2.326393  0
O  O162  1  0.56849747  0.14507929  0.98401749  1  -1.178034  0  -0.325027  -0.574988  0  2.410916  0
O  O163  1  0.83596982  0.56564133  0.98380639  1  -1.180578  0  -0.327248  -0.577666  0  2.390152  0
O  O164  1  0.41528820  0.83901869  0.98404047  1  -1.181503  0  -0.324991  -0.574324  0  2.412775  0
O  O165  1  0.14738129  0.41773396  0.98329786  1  -1.17875  0  -0.326802  -0.576592  0  2.392377  0
O  O166  1  0.57506210  0.84452409  0.95490698  1  -1.168322  0  -0.303052  -0.520264  0  2.369653  0
O  O167  1  0.83917385  0.38692268  0.95995948  1  -1.163857  0  -0.306552  -0.525401  0  2.378513  0
O  O168  1  0.37992170  0.11061444  0.95490689  1  -1.166152  0  -0.303312  -0.51997  0  2.368733  0
O  O169  1  0.12040999  0.57294661  0.95986823  1  -1.17465  0  -0.306512  -0.524832  0  2.37829  0
O  O170  1  0.34614755  0.93876553  0.01246664  1  -1.142024  0  -0.318738  -0.53441  0  2.346226  0
O  O171  1  0.07632304  0.34723569  0.01088645  1  -1.150381  0  -0.319524  -0.538531  0  2.353906  0
O  O172  1  0.66604838  0.07381353  0.01249856  1  -1.148438  0  -0.319128  -0.535535  0  2.3446  0
O  O173  1  0.93461752  0.66370316  0.01127790  1  -1.145163  0  -0.319338  -0.539349  0  2.352034  0
O  O174  1  0.38374581  0.12052817  0.04996688  1  -1.171844  0  -0.317147  -0.567766  0  2.320306  0
O  O175  1  0.11554283  0.66900031  0.04784540  1  -1.175697  0  -0.315911  -0.563751  0  2.335283  0
O  O176  1  0.66636359  0.92964466  0.04996686  1  -1.172959  0  -0.31743  -0.56819  0  2.320031  0
O  O177  1  0.93216423  0.37872723  0.04777223  1  -1.178127  0  -0.315908  -0.563684  0  2.336215  0
O  O178  1  0.80665431  0.90490341  0.05759144  1  -1.148936  0  -0.35362  -0.453332  0  2.299328  0
O  O179  1  0.15080563  0.80923588  0.05750611  1  -1.160239  0  -0.352855  -0.452427  0  2.300172  0
O  O180  1  0.25103786  0.15280965  0.05761489  1  -1.149018  0  -0.353254  -0.451297  0  2.299224  0
O  O181  1  0.90654223  0.24823862  0.05750672  1  -1.151838  0  -0.352334  -0.452793  0  2.299529  0
O  O182  1  0.80901118  0.13893776  0.04872851  1  -1.112768  0  -0.33527  -0.396033  0  2.2977  0
O  O183  1  0.14252496  0.24192404  0.04858915  1  -1.099112  0  -0.335339  -0.396306  0  2.296081  0
O  O184  1  0.23955266  0.90978893  0.04880505  1  -1.110225  0  -0.334858  -0.395156  0  2.296089  0
O  O185  1  0.90608034  0.80670909  0.04876131  1  -1.119722  0  -0.335652  -0.396287  0  2.297019  0
O  O186  1  0.00092679  0.43600990  0.76487788  1  -1.11199  0  -0.341312  -0.428105  0  2.261034  0
O  O187  1  0.32868157  0.00099935  0.76453853  1  -1.110133  0  -0.341177  -0.427836  0  2.260967  0
O  O188  1  0.76324315  0.32917373  0.76437501  1  -1.097135  0  -0.341986  -0.430084  0  2.261016  0
O  O189  1  0.43533356  0.76307129  0.76437594  1  -1.117931  0  -0.34166  -0.428873  0  2.260685  0
