# generated using pymatgen
data_Al2H11C20Br2NO10
_symmetry_space_group_name_H-M   'P 1'
_cell_length_a   6.63941108
_cell_length_b   11.19605088
_cell_length_c   11.09253780
_cell_angle_alpha   80.95950267
_cell_angle_beta   72.76946602
_cell_angle_gamma   71.63991840
_symmetry_Int_Tables_number   1
_chemical_formula_structural   Al2H11C20Br2NO10
_chemical_formula_sum   'Al2 H11 C20 Br2 N1 O10'
_cell_volume   745.61448966
_cell_formula_units_Z   1
loop_
 _symmetry_equiv_pos_site_id
 _symmetry_equiv_pos_as_xyz
  1  'x, y, z'
loop_
 _atom_site_type_symbol
 _atom_site_label
 _atom_site_symmetry_multiplicity
 _atom_site_fract_x
 _atom_site_fract_y
 _atom_site_fract_z
 _atom_site_occupancy
 _atom_site_pbe_bader_charge
 _atom_site_pbe_bader_spin_density
 _atom_site_pbe_cm5_charge
 _atom_site_pbe_ddec_charge
 _atom_site_pbe_ddec_spin_density
 _atom_site_pbe_ddec_sum_bond_order
 _atom_site_pbe_magmom
Al  Al0  1  0.49908900  0.50374274  0.50358449  1  2.501944  0  0.389681  1.639134  0  2.573317  0
Al  Al1  1  0.00313120  0.49939344  0.49910862  1  2.499358  0  0.391933  1.637178  0  2.574034  0
H  H2  1  0.29928789  0.34901738  0.57532655  1  0.624341  0  0.331019  0.406249  0  0.908262  0
H  H3  1  0.71100718  0.65438040  0.43118984  1  0.600099  0  0.348056  0.425106  0  0.867831  0
H  H4  1  0.10228591  0.56105053  0.10830881  1  0.078683  0  0.10253  0.111457  0  1.013529  0
H  H5  1  0.77074156  0.45684488  0.13320037  1  0.058444  0  0.110072  0.12631  0  0.997807  0
H  H6  1  0.24164047  0.56530957  0.87038670  1  0.103402  0  0.106207  0.106841  0  1.018704  0
H  H7  1  0.21967487  0.23921562  0.31464903  1  0.106427  0  0.106995  0.114709  0  1.026099  0
H  H8  1  0.55770566  0.12451014  0.16694404  1  0.055518  0  0.106116  0.103367  0  0.987309  0
H  H9  1  0.43108781  0.77027688  0.32167448  1  0.066702  0  0.107313  0.110161  0  1.033093  0
H  H10  1  0.66296473  0.88916965  0.16989886  1  0.086323  0  0.106691  0.104432  0  0.984582  0
H  H11  1  0.01646538  0.45809974  0.79449463  1  0.5275  0  0.308029  0.322588  0  0.970783  0
H  H12  1  0.06080849  0.42642944  0.94545191  1  0.449974  0  0.304114  0.298624  0  0.964642  0
C  C13  1  0.86436837  0.27576755  0.49281636  1  1.63402  0  0.271266  0.65934  0  4.09574  0
C  C14  1  0.64812261  0.50191710  0.73015661  1  1.528221  0  0.257939  0.646822  0  4.097745  0
C  C15  1  0.13156714  0.72723035  0.51016607  1  1.580439  0  0.271026  0.662154  0  4.098649  0
C  C16  1  0.35505805  0.50519339  0.27352920  1  1.539427  0  0.269121  0.640725  0  4.085925  0
C  C17  1  0.58067820  0.50594654  0.86898143  1  -0.0073  0  -0.032877  -0.17227  0  3.935097  0
C  C18  1  0.43185474  0.50563977  0.13295838  1  0.009675  0  -0.01354  -0.009893  0  4.023645  0
C  C19  1  0.73756440  0.47547104  0.94176497  1  0.436459  0  0.114843  0.313371  0  4.06989  0
C  C20  1  0.27746066  0.53632101  0.06084239  1  -0.04445  0  -0.111965  -0.162085  0  4.039672  0
C  C21  1  0.65578916  0.47786257  0.07474583  1  0.035917  0  -0.09532  -0.219794  0  3.914267  0
C  C22  1  0.35472779  0.53783416  0.93034526  1  -0.065776  0  -0.089782  -0.081597  0  4.039845  0
C  C23  1  0.93180039  0.13438650  0.49688068  1  0.021362  0  -0.010513  -0.116277  0  3.925085  0
C  C24  1  0.12969023  0.07064836  0.40952654  1  -0.006567  0  0.002525  0.068314  0  3.953623  0
C  C25  1  0.80450306  0.06664614  0.58501465  1  -0.125943  0  -0.015657  0.038713  0  3.94653  0
C  C26  1  0.26503358  0.13672276  0.31816039  1  -0.033393  0  -0.088604  -0.126771  0  3.952365  0
C  C27  1  0.45458425  0.07228300  0.23523987  1  -0.039014  0  -0.087269  -0.074511  0  4.025855  0
C  C28  1  0.05882234  0.86865097  0.50549781  1  0.03317  0  -0.010857  -0.11533  0  3.927175  0
C  C29  1  0.86972293  0.93262628  0.59033540  1  0.07004  0  -0.017569  0.036884  0  3.964012  0
C  C30  1  0.19257907  0.93554698  0.41290825  1  -0.033928  0  0.002  0.070831  0  3.954406  0
C  C31  1  0.38546388  0.87247842  0.32311995  1  -0.072288  0  -0.091674  -0.135947  0  3.966721  0
C  C32  1  0.51466099  0.93932292  0.23722685  1  0.033933  0  -0.086752  -0.074946  0  4.029973  0
Br  Br33  1  0.70567085  0.84025601  0.71814758  1  -0.016924  0  0.050652  -0.018492  0  1.507667  0
Br  Br34  1  0.54839386  0.15127332  0.70608981  1  -0.022948  0  0.060355  -0.021477  0  1.530679  0
N  N35  1  0.95871222  0.44085299  0.88927556  1  -1.29793  0  -0.58905  -0.608341  0  3.351868  0
O  O36  1  0.67859430  0.33381324  0.47251147  1  -1.260388  0  -0.230428  -0.58256  0  2.359754  0
O  O37  1  0.84145205  0.51115006  0.67230307  1  -1.267134  0  -0.241448  -0.611103  0  2.41492  0
O  O38  1  0.00770839  0.67261774  0.48681403  1  -1.256692  0  -0.230359  -0.591614  0  2.362976  0
O  O39  1  0.47878682  0.52752456  0.33059038  1  -1.258653  0  -0.238421  -0.598322  0  2.363066  0
O  O40  1  0.31699806  0.67313744  0.53282202  1  -1.253954  0  -0.228032  -0.579476  0  2.343266  0
O  O41  1  0.16929172  0.48409883  0.32596070  1  -1.259484  0  -0.237834  -0.591627  0  2.33772  0
O  O42  1  0.99887884  0.32687832  0.50965233  1  -1.251238  0  -0.22571  -0.577273  0  2.342638  0
O  O43  1  0.51301800  0.48704179  0.67633300  1  -1.264864  0  -0.244184  -0.607552  0  2.366851  0
O  O44  1  0.25709983  0.43999611  0.55658639  1  -1.437006  0  -0.451044  -0.983202  0  2.204472  0
O  O45  1  0.74537201  0.56329142  0.44645917  1  -1.405498  0  -0.449594  -0.98285  0  2.183147  0
