# generated using pymatgen
data_CdH13C20N3O7
_symmetry_space_group_name_H-M   'P 1'
_cell_length_a   7.28826843
_cell_length_b   10.43550690
_cell_length_c   12.21515313
_cell_angle_alpha   85.16992531
_cell_angle_beta   80.19238454
_cell_angle_gamma   81.52987283
_symmetry_Int_Tables_number   1
_chemical_formula_structural   CdH13C20N3O7
_chemical_formula_sum   'Cd2 H26 C40 N6 O14'
_cell_volume   903.81536571
_cell_formula_units_Z   2
loop_
 _symmetry_equiv_pos_site_id
 _symmetry_equiv_pos_as_xyz
  1  'x, y, z'
loop_
 _atom_site_type_symbol
 _atom_site_label
 _atom_site_symmetry_multiplicity
 _atom_site_fract_x
 _atom_site_fract_y
 _atom_site_fract_z
 _atom_site_occupancy
 _atom_site_hle17_bader_spin_density
 _atom_site_hle17_ddec_charge
 _atom_site_hle17_ddec_spin_density
 _atom_site_hle17_ddec_sum_bond_order
 _atom_site_hle17_magmom
 _atom_site_hse06_10hf_bader_spin_density
 _atom_site_hse06_10hf_ddec_charge
 _atom_site_hse06_10hf_ddec_spin_density
 _atom_site_hse06_10hf_ddec_sum_bond_order
 _atom_site_hse06_10hf_magmom
 _atom_site_hse06_bader_spin_density
 _atom_site_hse06_ddec_charge
 _atom_site_hse06_ddec_spin_density
 _atom_site_hse06_ddec_sum_bond_order
 _atom_site_hse06_magmom
 _atom_site_pbe_bader_spin_density
 _atom_site_pbe_cm5_charge
 _atom_site_pbe_ddec_charge
 _atom_site_pbe_ddec_spin_density
 _atom_site_pbe_ddec_sum_bond_order
 _atom_site_pbe_magmom
Cd  Cd0  1  0.70048710  0.16048878  0.12009734  1  0  1.147441  0  1.643866  0  0  0.94321  0  2.091597  0  0  1.00167  0  2.038809  0  0  0.776591  0.902244  0  2.127387  0
Cd  Cd1  1  0.29951117  0.83951080  0.87990186  1  0  1.147446  0  1.643879  0  0  0.943206  0  2.091619  0  0  1.001671  0  2.038829  0  0  0.776602  0.902245  0  2.127404  0
H  H2  1  0.44023955  0.71569239  0.28038013  1  0  0.09135  0  0.968467  0  0  0.103274  0  1.029022  0  0  0.104478  0  1.029893  0  0  0.10336  0.102465  0  1.028336  0
H  H3  1  0.55976149  0.28430720  0.71962206  1  0  0.09135  0  0.968488  0  0  0.103278  0  1.029036  0  0  0.104483  0  1.029905  0  0  0.103348  0.102471  0  1.028351  0
H  H4  1  0.85186905  0.88054458  0.36469436  1  0  0.13075  0  0.935908  0  0  0.136843  0  0.999852  0  0  0.141229  0  0.996573  0  0  0.118231  0.133567  0  1.002443  0
H  H5  1  0.14813024  0.11945694  0.63530377  1  0  0.130748  0  0.935926  0  0  0.13684  0  0.999875  0  0  0.141227  0  0.996594  0  0  0.118234  0.133563  0  1.002466  0
H  H6  1  0.49154572  0.87820459  0.45555239  1  0  0.118498  0  0.946653  0  0  0.122824  0  1.014219  0  0  0.127059  0  1.011045  0  0  0.110021  0.11973  0  1.016666  0
H  H7  1  0.50845469  0.12179111  0.54444606  1  0  0.118479  0  0.946629  0  0  0.122818  0  1.014193  0  0  0.127054  0  1.011017  0  0  0.110016  0.119729  0  1.016637  0
H  H8  1  0.59840527  0.80152215  0.09571871  1  0  0.108563  0  0.946658  0  0  0.121062  0  1.004045  0  0  0.124041  0  1.003036  0  0  0.107653  0.118831  0  1.004934  0
H  H9  1  0.40159279  0.19847842  0.90428370  1  0  0.108531  0  0.946731  0  0  0.121076  0  1.004072  0  0  0.124039  0  1.003083  0  0  0.107667  0.118844  0  1.004968  0
H  H10  1  0.28410331  0.72118386  0.55689864  1  0  0.120323  0  0.946223  0  0  0.126237  0  1.011221  0  0  0.130049  0  1.00842  0  0  0.115546  0.123519  0  1.01334  0
H  H11  1  0.71589534  0.27881378  0.44309984  1  0  0.120334  0  0.946223  0  0  0.126239  0  1.011232  0  0  0.130049  0  1.008432  0  0  0.115543  0.123524  0  1.013352  0
H  H12  1  0.46014137  0.30043251  0.33898442  1  0  0.090265  0  0.969464  0  0  0.096081  0  1.035717  0  0  0.098412  0  1.033693  0  0  0.117637  0.094385  0  1.037228  0
H  H13  1  0.53985987  0.69956610  0.66101618  1  0  0.09028  0  0.969473  0  0  0.09609  0  1.035733  0  0  0.098422  0  1.033706  0  0  0.117641  0.094395  0  1.037244  0
H  H14  1  0.95559834  0.60260739  0.77411950  1  0  0.128934  0  0.955985  0  0  0.137926  0  1.017449  0  0  0.141292  0  1.014293  0  0  0.113276  0.135255  0  1.020109  0
H  H15  1  0.04440214  0.39739511  0.22588172  1  0  0.128898  0  0.956053  0  0  0.137927  0  1.017471  0  0  0.141264  0  1.014351  0  0  0.11327  0.135256  0  1.020132  0
H  H16  1  0.05582953  0.37074560  0.72549096  1  0  0.108378  0  0.943663  0  0  0.119153  0  1.000397  0  0  0.121442  0  1.000912  0  0  0.107519  0.117364  0  1.000412  0
H  H17  1  0.94416975  0.62925593  0.27450962  1  0  0.108362  0  0.943681  0  0  0.119124  0  1.00043  0  0  0.121409  0  1.000951  0  0  0.107507  0.117333  0  1.000445  0
H  H18  1  0.78504968  0.75784004  0.90989249  1  0  0.113484  0  0.968349  0  0  0.120348  0  1.034285  0  0  0.123561  0  1.032763  0  0  0.10644  0.118332  0  1.034696  0
H  H19  1  0.21494978  0.24216052  0.09010979  1  0  0.113502  0  0.96822  0  0  0.120312  0  1.034227  0  0  0.123524  0  1.032708  0  0  0.106412  0.118297  0  1.034642  0
H  H20  1  0.35654495  0.52248271  0.40758946  1  0  0.110025  0  0.954602  0  0  0.11414  0  1.023135  0  0  0.117522  0  1.021837  0  0  0.107386  0.111598  0  1.024378  0
H  H21  1  0.64345768  0.47751590  0.59241183  1  0  0.110033  0  0.954588  0  0  0.11417  0  1.023111  0  0  0.117533  0  1.021832  0  0  0.107384  0.111629  0  1.024352  0
H  H22  1  0.95384067  0.19286812  0.86258983  1  0  0.080511  0  0.966703  0  0  0.08707  0  1.033909  0  0  0.089917  0  1.030854  0  0  0.112891  0.084584  0  1.036637  0
H  H23  1  0.04616139  0.80713340  0.13740966  1  0  0.080499  0  0.966711  0  0  0.087053  0  1.033911  0  0  0.089899  0  1.030859  0  0  0.112894  0.084563  0  1.036636  0
H  H24  1  0.87234966  0.00246833  0.93439020  1  0  0.413143  0  0.894914  0  0  0.384899  0  0.954942  0  0  0.394803  0  0.940541  0  0  0.288271  0.377901  0  0.965084  0
H  H25  1  0.12765120  0.99753221  0.06560867  1  0  0.413153  0  0.894899  0  0  0.38491  0  0.954922  0  0  0.394815  0  0.940521  0  0  0.288281  0.377911  0  0.965068  0
H  H26  1  0.66399161  0.00120933  0.92431019  1  0  0.430289  0  0.870426  0  0  0.399394  0  0.934112  0  0  0.410684  0  0.917686  0  0  0.290063  0.391494  0  0.945461  0
H  H27  1  0.33600824  0.99878928  0.07568974  1  0  0.430285  0  0.87043  0  0  0.399418  0  0.93406  0  0  0.410708  0  0.917635  0  0  0.290084  0.391527  0  0.945392  0
C  C28  1  0.48354165  0.61691378  0.25434825  1  0  -0.042279  0  3.681405  0  0  -0.063325  0  3.921232  0  0  -0.061197  0  3.941006  0  0  -0.062327  -0.064436  0  3.907541  0
C  C29  1  0.51645940  0.38308580  0.74565313  1  0  -0.042285  0  3.681437  0  0  -0.063332  0  3.921258  0  0  -0.061204  0  3.941029  0  0  -0.062327  -0.064447  0  3.907577  0
C  C30  1  0.75141699  0.44190280  0.00824057  1  0  0.125436  0  3.769217  0  0  0.118932  0  4.007695  0  0  0.123536  0  4.030332  0  0  0.114028  0.115858  0  3.992318  0
C  C31  1  0.24858248  0.55809776  0.99175926  1  0  0.12544  0  3.769265  0  0  0.11897  0  4.00771  0  0  0.123574  0  4.030349  0  0  0.114024  0.115882  0  3.992355  0
C  C32  1  0.29163632  0.96383026  0.34972590  1  0  -0.040244  0  3.675504  0  0  -0.033366  0  3.916874  0  0  -0.036791  0  3.935943  0  0  0.001309  -0.031396  0  3.904339  0
C  C33  1  0.70836334  0.03616932  0.65027316  1  0  -0.040302  0  3.67561  0  0  -0.033419  0  3.916969  0  0  -0.036845  0  3.936037  0  0  0.001293  -0.031434  0  3.904415  0
C  C34  1  0.64127752  0.46678677  0.11635457  1  0  0.128061  0  3.759105  0  0  0.120032  0  3.997497  0  0  0.124501  0  4.019995  0  0  0.11499  0.117076  0  3.982242  0
C  C35  1  0.35872195  0.53321378  0.88364525  1  0  0.128035  0  3.759139  0  0  0.119994  0  3.997523  0  0  0.124463  0  4.020023  0  0  0.114987  0.11704  0  3.982271  0
C  C36  1  0.06216013  0.78895923  0.46187964  1  0  0.066259  0  3.717812  0  0  0.057531  0  3.979604  0  0  0.054823  0  4.002088  0  0  0.077143  0.059322  0  3.964326  0
C  C37  1  0.93784111  0.21103937  0.53811851  1  0  0.066211  0  3.717744  0  0  0.057479  0  3.979548  0  0  0.054769  0  4.002033  0  0  0.077128  0.059272  0  3.964269  0
C  C38  1  0.43238604  0.04314843  0.28212918  1  0  0.638129  0  3.917813  0  0  0.585389  0  4.214993  0  0  0.619749  0  4.207843  0  0  0.201069  0.562088  0  4.218972  0
C  C39  1  0.56761519  0.95685018  0.71787061  1  0  0.638056  0  3.917966  0  0  0.585324  0  4.215125  0  0  0.619684  0  4.207976  0  0  0.201051  0.562023  0  4.219105  0
C  C40  1  0.99335709  0.87886209  0.38272053  1  0  -0.110094  0  3.69241  0  0  -0.144915  0  3.950337  0  0  -0.144805  0  3.969158  0  0  -0.073053  -0.144537  0  3.937464  0
C  C41  1  0.00664378  0.12113845  0.61727670  1  0  -0.110072  0  3.692386  0  0  -0.14489  0  3.950314  0  0  -0.144778  0  3.96913  0  0  -0.073042  -0.144512  0  3.937445  0
C  C42  1  0.35264333  0.87703024  0.43450019  1  0  -0.058673  0  3.686905  0  0  -0.079716  0  3.940672  0  0  -0.0813  0  3.957894  0  0  -0.072757  -0.078795  0  3.929487  0
C  C43  1  0.64735829  0.12296643  0.56549889  1  0  -0.058617  0  3.686942  0  0  -0.079674  0  3.940699  0  0  -0.081257  0  3.957923  0  0  -0.072739  -0.07876  0  3.929516  0
C  C44  1  0.58679409  0.59720313  0.14698840  1  0  0.030099  0  3.791908  0  0  0.045322  0  4.023815  0  0  0.043221  0  4.048156  0  0  -0.001257  0.046564  0  4.007392  0
C  C45  1  0.41320537  0.40279743  0.85301306  1  0  0.030064  0  3.791935  0  0  0.045288  0  4.023858  0  0  0.043188  0  4.048195  0  0  -0.001272  0.046535  0  4.007436  0
C  C46  1  0.10759037  0.96782694  0.32675862  1  0  -0.048683  0  3.698813  0  0  -0.034382  0  3.938473  0  0  -0.039845  0  3.95931  0  0  -0.005396  -0.030998  0  3.924741  0
C  C47  1  0.89240929  0.03217265  0.67324125  1  0  -0.048588  0  3.698732  0  0  -0.034285  0  3.938388  0  0  -0.039746  0  3.959222  0  0  -0.005381  -0.030906  0  3.924658  0
C  C48  1  0.01904638  0.07055101  0.25026187  1  0  0.652584  0  3.925449  0  0  0.59908  0  4.227856  0  0  0.633408  0  4.21898  0  0  0.20538  0.575555  0  4.233308  0
C  C49  1  0.98095411  0.92945148  0.74973853  1  0  0.652418  0  3.925678  0  0  0.598888  0  4.228132  0  0  0.633215  0  4.219257  0  0  0.205336  0.57536  0  4.233583  0
C  C50  1  0.63911431  0.70213093  0.07044771  1  0  -0.108582  0  3.738081  0  0  -0.129897  0  3.992493  0  0  -0.1341  0  4.014921  0  0  -0.086849  -0.126958  0  3.977405  0
C  C51  1  0.36088534  0.29786865  0.92955380  1  0  -0.10854  0  3.738062  0  0  -0.129899  0  3.992476  0  0  -0.134089  0  4.014907  0  0  -0.086839  -0.126959  0  3.977394  0
C  C52  1  0.23886779  0.78883189  0.49109638  1  0  -0.068116  0  3.6883  0  0  -0.095757  0  3.946832  0  0  -0.094264  0  3.963409  0  0  -0.068529  -0.096938  0  3.935976  0
C  C53  1  0.76113048  0.21116769  0.50890281  1  0  -0.068135  0  3.688228  0  0  -0.095776  0  3.946779  0  0  -0.094282  0  3.963354  0  0  -0.06854  -0.096963  0  3.93593  0
C  C54  1  0.49535447  0.38622628  0.28706174  1  0  0.153346  0  3.674368  0  0  0.118989  0  3.930031  0  0  0.127686  0  3.946402  0  0  0.057445  0.113314  0  3.9188  0
C  C55  1  0.50464658  0.61377330  0.71293800  1  0  0.153344  0  3.674375  0  0  0.118987  0  3.930046  0  0  0.127686  0  3.946411  0  0  0.05745  0.113312  0  3.918817  0
C  C56  1  0.91383297  0.52203281  0.83111307  1  0  -0.035542  0  3.637376  0  0  -0.064189  0  3.889108  0  0  -0.06073  0  3.90542  0  0  -0.058742  -0.06612  0  3.878187  0
C  C57  1  0.08616632  0.47796871  0.16888670  1  0  -0.035556  0  3.637474  0  0  -0.064231  0  3.889194  0  0  -0.060749  0  3.90552  0  0  -0.058774  -0.066165  0  3.878274  0
C  C58  1  0.96862274  0.39440412  0.80475074  1  0  -0.112378  0  3.725552  0  0  -0.125013  0  3.98114  0  0  -0.132662  0  4.00368  0  0  -0.082649  -0.120122  0  3.966053  0
C  C59  1  0.03137654  0.60559740  0.19524903  1  0  -0.112389  0  3.725636  0  0  -0.125028  0  3.981228  0  0  -0.132672  0  4.003761  0  0  -0.082668  -0.120133  0  3.966131  0
C  C60  1  0.74286306  0.67868485  0.96824817  1  0  -0.086773  0  3.712008  0  0  -0.110671  0  3.971622  0  0  -0.112933  0  3.993465  0  0  -0.081869  -0.108998  0  3.956436  0
C  C61  1  0.25713500  0.32131571  0.03175425  1  0  -0.086742  0  3.711832  0  0  -0.1106  0  3.971497  0  0  -0.112858  0  3.993333  0  0  -0.081863  -0.108928  0  3.956316  0
C  C62  1  0.43818383  0.51157159  0.32473534  1  0  -0.10758  0  3.718658  0  0  -0.121136  0  3.974164  0  0  -0.12843  0  3.99543  0  0  -0.080735  -0.116311  0  3.959768  0
C  C63  1  0.56181740  0.48842702  0.67526527  1  0  -0.107579  0  3.718631  0  0  -0.121163  0  3.974132  0  0  -0.128441  0  3.995406  0  0  -0.080719  -0.116337  0  3.95974  0
C  C64  1  0.80213699  0.54877607  0.93514046  1  0  0.029893  0  3.767453  0  0  0.044812  0  4.002055  0  0  0.042128  0  4.025775  0  0  -0.002352  0.046257  0  3.986155  0
C  C65  1  0.19786248  0.45122448  0.06485936  1  0  0.029898  0  3.767439  0  0  0.044801  0  4.002045  0  0  0.042118  0  4.025757  0  0  -0.002322  0.04625  0  3.986147  0
C  C66  1  0.91135488  0.29439115  0.88157318  1  0  0.14626  0  3.700377  0  0  0.114908  0  3.9547  0  0  0.123423  0  3.9722  0  0  0.052731  0.109592  0  3.94286  0
C  C67  1  0.08864579  0.70561037  0.11842645  1  0  0.146258  0  3.700503  0  0  0.114938  0  3.95478  0  0  0.123453  0  3.972281  0  0  0.052746  0.10963  0  3.942923  0
N  N68  1  0.59431156  0.36496675  0.18650576  1  0  -0.367031  0  3.284239  0  0  -0.291192  0  3.549963  0  0  -0.311738  0  3.568504  0  0  -0.325723  -0.27735  0  3.537346  0
N  N69  1  0.40568809  0.63503283  0.81349411  1  0  -0.367015  0  3.284253  0  0  -0.291172  0  3.549971  0  0  -0.311718  0  3.568514  0  0  -0.32572  -0.27733  0  3.537353  0
N  N70  1  0.80598984  0.31732977  0.98026100  1  0  -0.383864  0  3.276487  0  0  -0.311044  0  3.541573  0  0  -0.331953  0  3.561056  0  0  -0.32752  -0.29711  0  3.527822  0
N  N71  1  0.19400964  0.68267078  0.01973801  1  0  -0.383794  0  3.276626  0  0  -0.310997  0  3.541693  0  0  -0.331907  0  3.561178  0  0  -0.327497  -0.297062  0  3.527939  0
N  N72  1  0.94622053  0.69020451  0.51431126  1  0  0.51035  0  3.893245  0  0  0.534945  0  4.198601  0  0  0.557  0  4.204092  0  0  0.060308  0.520193  0  4.194813  0
N  N73  1  0.05377773  0.30979507  0.48568793  1  0  0.51035  0  3.89321  0  0  0.534938  0  4.198572  0  0  0.556993  0  4.204063  0  0  0.060287  0.520191  0  4.194777  0
O  O74  1  0.43359828  0.05730734  0.17567027  1  0  -0.668731  0  2.035066  0  0  -0.589845  0  2.27548  0  0  -0.62137  0  2.264745  0  0  -0.324701  -0.567231  0  2.281415  0
O  O75  1  0.56639999  0.94269224  0.82432975  1  0  -0.668669  0  2.035068  0  0  -0.589778  0  2.275495  0  0  -0.621304  0  2.264758  0  0  -0.324689  -0.567173  0  2.281446  0
O  O76  1  0.94167182  0.02584241  0.17521963  1  0  -0.690429  0  2.050986  0  0  -0.606606  0  2.295332  0  0  -0.636748  0  2.281053  0  0  -0.341719  -0.584981  0  2.304482  0
O  O77  1  0.05833006  0.97416008  0.82477981  1  0  -0.69038  0  2.051024  0  0  -0.606531  0  2.295342  0  0  -0.636683  0  2.281088  0  0  -0.341702  -0.584905  0  2.304487  0
O  O78  1  0.74501081  0.01416777  0.97932003  1  0  -0.839554  0  1.859056  0  0  -0.775339  0  2.052171  0  0  -0.797234  0  2.018891  0  0  -0.599624  -0.760341  0  2.074969  0
O  O79  1  0.25498886  0.98583181  0.02067903  1  0  -0.839553  0  1.859068  0  0  -0.775344  0  2.052181  0  0  -0.797239  0  2.018899  0  0  -0.599642  -0.760352  0  2.074974  0
O  O80  1  0.54852085  0.08647186  0.32911834  1  0  -0.596484  0  1.932739  0  0  -0.543882  0  2.161576  0  0  -0.570612  0  2.155313  0  0  -0.307434  -0.524488  0  2.16499  0
O  O81  1  0.45147919  0.91352578  0.67088164  1  0  -0.596454  0  1.932825  0  0  -0.543854  0  2.161652  0  0  -0.570584  0  2.155391  0  0  -0.30741  -0.524453  0  2.165054  0
O  O82  1  0.78220549  0.69998388  0.49479673  1  0  -0.37627  0  1.737352  0  0  -0.353543  0  1.944194  0  0  -0.366349  0  1.94  0  0  -0.131702  -0.345178  0  1.947382  0
O  O83  1  0.21779417  0.30001570  0.50520233  1  0  -0.376292  0  1.737365  0  0  -0.353556  0  1.944226  0  0  -0.366369  0  1.94005  0  0  -0.131697  -0.345189  0  1.947413  0
O  O84  1  0.01854818  0.60058257  0.57290353  1  0  -0.349692  0  1.772715  0  0  -0.334906  0  1.990763  0  0  -0.345191  0  1.985539  0  0  -0.118027  -0.327896  0  1.994399  0
O  O85  1  0.98144533  0.39941994  0.42710002  1  0  -0.349688  0  1.772711  0  0  -0.334895  0  1.99073  0  0  -0.345177  0  1.985503  0  0  -0.118024  -0.327888  0  1.994367  0
O  O86  1  0.01740769  0.18693944  0.26547042  1  0  -0.581386  0  1.92427  0  0  -0.543706  0  2.156318  0  0  -0.567405  0  2.149203  0  0  -0.306337  -0.526942  0  2.160909  0
O  O87  1  0.98259298  0.81306208  0.73453084  1  0  -0.58131  0  1.924408  0  0  -0.543612  0  2.156453  0  0  -0.567317  0  2.149347  0  0  -0.306305  -0.526845  0  2.161039  0
