# generated using pymatgen
data_HgH11C10BrN10
_symmetry_space_group_name_H-M   'P 1'
_cell_length_a   9.99803094
_cell_length_b   12.09949658
_cell_length_c   13.00731256
_cell_angle_alpha   89.99995062
_cell_angle_beta   90.00003603
_cell_angle_gamma   101.67767012
_symmetry_Int_Tables_number   1
_chemical_formula_structural   HgH11C10BrN10
_chemical_formula_sum   'Hg4 H44 C40 Br4 N40'
_cell_volume   1540.94058221
_cell_formula_units_Z   4
loop_
 _symmetry_equiv_pos_site_id
 _symmetry_equiv_pos_as_xyz
  1  'x, y, z'
loop_
 _atom_site_type_symbol
 _atom_site_label
 _atom_site_symmetry_multiplicity
 _atom_site_fract_x
 _atom_site_fract_y
 _atom_site_fract_z
 _atom_site_occupancy
 _atom_site_hle17_bader_spin_density
 _atom_site_hle17_ddec_charge
 _atom_site_hle17_ddec_spin_density
 _atom_site_hle17_ddec_sum_bond_order
 _atom_site_hle17_magmom
 _atom_site_hse06_10hf_bader_spin_density
 _atom_site_hse06_10hf_ddec_charge
 _atom_site_hse06_10hf_ddec_spin_density
 _atom_site_hse06_10hf_ddec_sum_bond_order
 _atom_site_hse06_10hf_magmom
 _atom_site_hse06_bader_spin_density
 _atom_site_hse06_ddec_charge
 _atom_site_hse06_ddec_spin_density
 _atom_site_hse06_ddec_sum_bond_order
 _atom_site_hse06_magmom
 _atom_site_pbe_bader_spin_density
 _atom_site_pbe_cm5_charge
 _atom_site_pbe_ddec_charge
 _atom_site_pbe_ddec_spin_density
 _atom_site_pbe_ddec_sum_bond_order
 _atom_site_pbe_magmom
Hg  Hg0  1  0.35260522  0.59772471  0.91355981  1  0  0.717353  0  2.093192  0  0  0.534018  0  2.590642  0  0  0.586079  0  2.555074  0  0  0.580943  0.498125  0  2.614393  0
Hg  Hg1  1  0.14739465  0.90227496  0.41355935  1  0  0.717323  0  2.093221  0  0  0.533979  0  2.590677  0  0  0.586042  0  2.555106  0  0  0.580932  0.498088  0  2.614428  0
Hg  Hg2  1  0.64739428  0.40227382  0.08643983  1  0  0.717336  0  2.093218  0  0  0.534003  0  2.590672  0  0  0.586063  0  2.555103  0  0  0.580931  0.49811  0  2.614425  0
Hg  Hg3  1  0.85260526  0.09772525  0.58644029  1  0  0.717316  0  2.093204  0  0  0.533972  0  2.590655  0  0  0.586033  0  2.555089  0  0  0.580943  0.498078  0  2.614406  0
H  H4  1  0.04484073  0.63257865  0.66959849  1  0  0.080195  0  0.953616  0  0  0.095556  0  1.013636  0  0  0.097506  0  1.012372  0  0  0.089205  0.094091  0  1.014694  0
H  H5  1  0.45516020  0.86742206  0.16959898  1  0  0.080168  0  0.953648  0  0  0.095552  0  1.013665  0  0  0.0975  0  1.012402  0  0  0.089201  0.094088  0  1.014724  0
H  H6  1  0.95516018  0.36742156  0.33040116  1  0  0.080177  0  0.953658  0  0  0.095543  0  1.013675  0  0  0.097492  0  1.01241  0  0  0.089203  0.094079  0  1.014733  0
H  H7  1  0.54484051  0.13257731  0.83039990  1  0  0.08014  0  0.953599  0  0  0.095527  0  1.013607  0  0  0.097477  0  1.012343  0  0  0.08918  0.094063  0  1.014668  0
H  H8  1  0.16060518  0.65149005  0.77275971  1  0  0.074925  0  0.954746  0  0  0.08947  0  1.025511  0  0  0.09059  0  1.024257  0  0  0.08579  0.088595  0  1.026451  0
H  H9  1  0.33939481  0.84851058  0.27275862  1  0  0.074901  0  0.954767  0  0  0.089462  0  1.025535  0  0  0.090581  0  1.024282  0  0  0.085792  0.088584  0  1.026479  0
H  H10  1  0.83939594  0.34851101  0.22724147  1  0  0.074899  0  0.9548  0  0  0.089465  0  1.025543  0  0  0.090584  0  1.02429  0  0  0.085806  0.088593  0  1.026476  0
H  H11  1  0.66060389  0.15148878  0.72723949  1  0  0.074912  0  0.954763  0  0  0.089453  0  1.025552  0  0  0.090573  0  1.0243  0  0  0.085781  0.088581  0  1.026484  0
H  H12  1  0.92806219  0.51979393  0.57775041  1  0  0.078343  0  0.949317  0  0  0.097663  0  1.003642  0  0  0.098571  0  1.003947  0  0  0.094773  0.096966  0  1.003529  0
H  H13  1  0.57193812  0.98020759  0.07775063  1  0  0.078346  0  0.949325  0  0  0.097662  0  1.003663  0  0  0.098572  0  1.003968  0  0  0.094771  0.096971  0  1.003544  0
H  H14  1  0.07193772  0.48020629  0.42225000  1  0  0.078329  0  0.949331  0  0  0.097651  0  1.003652  0  0  0.098558  0  1.003959  0  0  0.094776  0.096957  0  1.003534  0
H  H15  1  0.42806279  0.01979263  0.92224902  1  0  0.078353  0  0.949327  0  0  0.097675  0  1.003646  0  0  0.098581  0  1.003952  0  0  0.09478  0.09698  0  1.00353  0
H  H16  1  0.89837145  0.37584913  0.54036918  1  0  0.079583  0  0.950406  0  0  0.091838  0  1.021521  0  0  0.093334  0  1.020547  0  0  0.08875  0.090737  0  1.022316  0
H  H17  1  0.60162847  0.12415167  0.04036970  1  0  0.079619  0  0.950365  0  0  0.091853  0  1.021521  0  0  0.093343  0  1.020545  0  0  0.088751  0.090752  0  1.022317  0
H  H18  1  0.10162826  0.62415024  0.45963046  1  0  0.079591  0  0.950387  0  0  0.091842  0  1.02151  0  0  0.093337  0  1.020536  0  0  0.088754  0.090742  0  1.022305  0
H  H19  1  0.39837164  0.87584939  0.95962995  1  0  0.079592  0  0.950392  0  0  0.091835  0  1.021527  0  0  0.093329  0  1.020552  0  0  0.088746  0.090734  0  1.022322  0
H  H20  1  0.67782821  0.43903383  0.56008186  1  0  0.107134  0  0.975645  0  0  0.120679  0  1.04696  0  0  0.122445  0  1.046816  0  0  0.084758  0.119421  0  1.047054  0
H  H21  1  0.82217051  0.06096610  0.06008253  1  0  0.107134  0  0.975669  0  0  0.120679  0  1.04698  0  0  0.122446  0  1.046835  0  0  0.084754  0.119421  0  1.047075  0
H  H22  1  0.32217090  0.56096722  0.43991778  1  0  0.107156  0  0.975639  0  0  0.120703  0  1.046948  0  0  0.122469  0  1.046804  0  0  0.08477  0.119444  0  1.047042  0
H  H23  1  0.17782940  0.93903411  0.93991711  1  0  0.107137  0  0.975659  0  0  0.120683  0  1.046961  0  0  0.122449  0  1.046817  0  0  0.084762  0.119426  0  1.047056  0
H  H24  1  0.71606053  0.47487175  0.69131035  1  0  0.091614  0  0.958958  0  0  0.110229  0  1.023661  0  0  0.111703  0  1.023897  0  0  0.078589  0.109171  0  1.023409  0
H  H25  1  0.78393928  0.02512807  0.19131103  1  0  0.091605  0  0.958975  0  0  0.110223  0  1.023674  0  0  0.111698  0  1.02391  0  0  0.078582  0.109166  0  1.023422  0
H  H26  1  0.28393938  0.52512846  0.30869006  1  0  0.091622  0  0.958952  0  0  0.110237  0  1.023653  0  0  0.111711  0  1.02389  0  0  0.078592  0.109179  0  1.023401  0
H  H27  1  0.21606164  0.97487214  0.80868862  1  0  0.091665  0  0.958897  0  0  0.110234  0  1.023648  0  0  0.111707  0  1.023885  0  0  0.078585  0.109177  0  1.023396  0
H  H28  1  0.69085808  0.33247626  0.65068018  1  0  0.095572  0  0.969216  0  0  0.118633  0  1.031936  0  0  0.119095  0  1.033286  0  0  0.082525  0.118232  0  1.031115  0
H  H29  1  0.80914271  0.16752360  0.15068076  1  0  0.095595  0  0.969178  0  0  0.118657  0  1.031897  0  0  0.11912  0  1.033247  0  0  0.082535  0.118256  0  1.031079  0
H  H30  1  0.30914283  0.66752396  0.34931947  1  0  0.095565  0  0.969215  0  0  0.118625  0  1.031938  0  0  0.119087  0  1.033288  0  0  0.082517  0.118222  0  1.03112  0
H  H31  1  0.19085720  0.83247661  0.84931889  1  0  0.095581  0  0.9692  0  0  0.118646  0  1.031907  0  0  0.119108  0  1.033256  0  0  0.082534  0.118245  0  1.03109  0
H  H32  1  0.95888489  0.74100958  0.80828373  1  0  0.109346  0  0.955096  0  0  0.126018  0  1.021782  0  0  0.127712  0  1.021651  0  0  0.088822  0.124736  0  1.021995  0
H  H33  1  0.54111556  0.75899174  0.30828334  1  0  0.109347  0  0.955126  0  0  0.126012  0  1.021807  0  0  0.127707  0  1.021672  0  0  0.088823  0.124727  0  1.022025  0
H  H34  1  0.04111502  0.25899063  0.19171591  1  0  0.109347  0  0.955118  0  0  0.126007  0  1.021813  0  0  0.127699  0  1.021683  0  0  0.088813  0.124724  0  1.022025  0
H  H35  1  0.45888435  0.24100847  0.69171554  1  0  0.109357  0  0.955132  0  0  0.126018  0  1.021824  0  0  0.127713  0  1.02169  0  0  0.088823  0.124731  0  1.022044  0
H  H36  1  0.96979404  0.63244620  0.89925492  1  0  0.095716  0  0.955214  0  0  0.113434  0  1.022239  0  0  0.11462  0  1.02302  0  0  0.079233  0.112569  0  1.021698  0
H  H37  1  0.53020627  0.86755420  0.39925520  1  0  0.095711  0  0.955221  0  0  0.113426  0  1.022246  0  0  0.114611  0  1.023028  0  0  0.07922  0.11256  0  1.021705  0
H  H38  1  0.03020588  0.36755401  0.10074550  1  0  0.095718  0  0.955213  0  0  0.113435  0  1.022235  0  0  0.11462  0  1.023017  0  0  0.079228  0.112569  0  1.021696  0
H  H39  1  0.46979244  0.13244516  0.60074445  1  0  0.095713  0  0.955261  0  0  0.113451  0  1.022253  0  0  0.114636  0  1.023035  0  0  0.07924  0.112585  0  1.021712  0
H  H40  1  0.84711322  0.60678432  0.79886137  1  0  0.094548  0  0.957121  0  0  0.113831  0  1.02059  0  0  0.115305  0  1.020875  0  0  0.080775  0.112892  0  1.020085  0
H  H41  1  0.65288803  0.89321617  0.29886169  1  0  0.094591  0  0.957143  0  0  0.113867  0  1.02061  0  0  0.115341  0  1.020895  0  0  0.080794  0.112927  0  1.020106  0
H  H42  1  0.15288770  0.39321590  0.20113828  1  0  0.094586  0  0.957148  0  0  0.113863  0  1.020615  0  0  0.115337  0  1.020901  0  0  0.080792  0.112923  0  1.020111  0
H  H43  1  0.34711188  0.10678404  0.70113872  1  0  0.094581  0  0.957142  0  0  0.113856  0  1.020615  0  0  0.11533  0  1.0209  0  0  0.080779  0.112916  0  1.020111  0
H  H44  1  0.11855016  0.14625563  0.99107479  1  0  0.300489  0  0.951089  0  0  0.252402  0  1.062386  0  0  0.263577  0  1.052308  0  0  0.320977  0.244546  0  1.069408  0
H  H45  1  0.38144881  0.35374491  0.49107372  1  0  0.300504  0  0.951076  0  0  0.252409  0  1.062386  0  0  0.263585  0  1.052306  0  0  0.320961  0.244551  0  1.069407  0
H  H46  1  0.88144876  0.85374458  0.00892639  1  0  0.300504  0  0.951065  0  0  0.252401  0  1.062377  0  0  0.263576  0  1.052299  0  0  0.320974  0.244544  0  1.069399  0
H  H47  1  0.61855211  0.64625530  0.50892593  1  0  0.300506  0  0.951079  0  0  0.252417  0  1.062384  0  0  0.263592  0  1.052306  0  0  0.320961  0.24456  0  1.069405  0
C  C48  1  0.10713855  0.33730912  0.85341446  1  0  0.096152  0  3.746383  0  0  0.087071  0  4.00808  0  0  0.089472  0  4.024191  0  0  0.130948  0.085051  0  3.997373  0
C  C49  1  0.39286112  0.16269069  0.35341585  1  0  0.096186  0  3.746202  0  0  0.087106  0  4.007938  0  0  0.089522  0  4.024024  0  0  0.130963  0.085086  0  3.997227  0
C  C50  1  0.89286036  0.66269109  0.14658596  1  0  0.096219  0  3.746268  0  0  0.087156  0  4.007954  0  0  0.089555  0  4.024068  0  0  0.130977  0.085135  0  3.997247  0
C  C51  1  0.60714079  0.83730952  0.64658534  1  0  0.09619  0  3.746236  0  0  0.08713  0  4.007908  0  0  0.089498  0  4.02406  0  0  0.130981  0.08511  0  3.997196  0
C  C52  1  0.20287358  0.31220073  0.93141062  1  0  0.290699  0  3.691509  0  0  0.256911  0  3.951624  0  0  0.269955  0  3.965569  0  0  0.247869  0.248336  0  3.942147  0
C  C53  1  0.29712414  0.18779902  0.43141040  1  0  0.290665  0  3.691353  0  0  0.256845  0  3.95153  0  0  0.269892  0  3.965464  0  0  0.247836  0.24827  0  3.94205  0
C  C54  1  0.79712433  0.68779948  0.06859057  1  0  0.29063  0  3.691406  0  0  0.256813  0  3.951544  0  0  0.269859  0  3.96549  0  0  0.247821  0.248239  0  3.942067  0
C  C55  1  0.70287736  0.81219951  0.56859078  1  0  0.290616  0  3.691393  0  0  0.256826  0  3.95151  0  0  0.269891  0  3.965444  0  0  0.247814  0.248251  0  3.942029  0
C  C56  1  0.04724153  0.48386788  0.75936729  1  0  0.197044  0  3.639287  0  0  0.196207  0  3.890467  0  0  0.200721  0  3.909096  0  0  0.138158  0.19298  0  3.877925  0
C  C57  1  0.45275829  0.01613286  0.25936805  1  0  0.197033  0  3.639331  0  0  0.196202  0  3.890511  0  0  0.200709  0  3.909146  0  0  0.138166  0.192974  0  3.87797  0
C  C58  1  0.95275959  0.51613318  0.24063236  1  0  0.197047  0  3.639267  0  0  0.196209  0  3.890437  0  0  0.200717  0  3.909069  0  0  0.138163  0.192981  0  3.877899  0
C  C59  1  0.54724221  0.98386567  0.74063159  1  0  0.196954  0  3.639343  0  0  0.196112  0  3.890539  0  0  0.200621  0  3.909168  0  0  0.138157  0.192886  0  3.877995  0
C  C60  1  0.01450691  0.25799834  0.79480282  1  0  0.121996  0  3.761779  0  0  0.110517  0  4.020614  0  0  0.115451  0  4.036531  0  0  0.131376  0.106976  0  4.009807  0
C  C61  1  0.48549172  0.24200152  0.29480265  1  0  0.122014  0  3.761616  0  0  0.1105  0  4.020481  0  0  0.11543  0  4.036396  0  0  0.131349  0.106962  0  4.009669  0
C  C62  1  0.98549120  0.74200271  0.20519836  1  0  0.121943  0  3.761756  0  0  0.110444  0  4.020613  0  0  0.11538  0  4.036533  0  0  0.131333  0.106909  0  4.009803  0
C  C63  1  0.51450999  0.75799785  0.70519853  1  0  0.121946  0  3.761707  0  0  0.110437  0  4.020532  0  0  0.11538  0  4.036457  0  0  0.131335  0.106901  0  4.009718  0
C  C64  1  0.97792070  0.13626672  0.81192347  1  0  0.235136  0  3.798158  0  0  0.20785  0  4.062183  0  0  0.218164  0  4.079895  0  0  0.215167  0.201237  0  4.049718  0
C  C65  1  0.52208018  0.36373300  0.31192529  1  0  0.235109  0  3.798223  0  0  0.207885  0  4.062181  0  0  0.2182  0  4.079893  0  0  0.215173  0.201271  0  4.049714  0
C  C66  1  0.02207801  0.86373264  0.18807617  1  0  0.235228  0  3.798013  0  0  0.207955  0  4.062029  0  0  0.21827  0  4.07974  0  0  0.215212  0.201334  0  4.049575  0
C  C67  1  0.47791973  0.63626721  0.68807512  1  0  0.235107  0  3.798199  0  0  0.207894  0  4.062136  0  0  0.218209  0  4.079846  0  0  0.215168  0.201277  0  4.049671  0
C  C68  1  0.05709269  0.60876473  0.74987488  1  0  -0.131673  0  3.716551  0  0  -0.170362  0  3.965116  0  0  -0.171645  0  3.978065  0  0  -0.163135  -0.169338  0  3.956283  0
C  C69  1  0.44290728  0.89123592  0.24987535  1  0  -0.131572  0  3.716564  0  0  -0.170329  0  3.965214  0  0  -0.171606  0  3.978155  0  0  -0.163136  -0.169305  0  3.956379  0
C  C70  1  0.94290822  0.39123549  0.25012476  1  0  -0.131597  0  3.716591  0  0  -0.170307  0  3.965161  0  0  -0.171582  0  3.978099  0  0  -0.163127  -0.169283  0  3.956332  0
C  C71  1  0.55709142  0.10876345  0.75012353  1  0  -0.131521  0  3.716523  0  0  -0.170243  0  3.965104  0  0  -0.171524  0  3.978056  0  0  -0.163099  -0.169223  0  3.956273  0
C  C72  1  0.96455146  0.40362000  0.69412885  1  0  0.213475  0  3.644887  0  0  0.211004  0  3.898587  0  0  0.217398  0  3.915728  0  0  0.144173  0.206507  0  3.88692  0
C  C73  1  0.53544655  0.09638066  0.19412859  1  0  0.213447  0  3.644932  0  0  0.211011  0  3.898583  0  0  0.217401  0  3.915723  0  0  0.144153  0.206513  0  3.886919  0
C  C74  1  0.03544645  0.59638021  0.30587156  1  0  0.213577  0  3.644895  0  0  0.211115  0  3.898577  0  0  0.217512  0  3.915718  0  0  0.144222  0.206618  0  3.886913  0
C  C75  1  0.46455336  0.90361955  0.80587183  1  0  0.213535  0  3.644819  0  0  0.211083  0  3.898494  0  0  0.217479  0  3.915631  0  0  0.144199  0.206584  0  3.886828  0
C  C76  1  0.88638442  0.43350519  0.60357745  1  0  -0.137812  0  3.722822  0  0  -0.176848  0  3.972901  0  0  -0.178752  0  3.985994  0  0  -0.162443  -0.175317  0  3.963732  0
C  C77  1  0.61361554  0.06649555  0.10357801  1  0  -0.137864  0  3.722832  0  0  -0.176917  0  3.972956  0  0  -0.178806  0  3.986023  0  0  -0.162487  -0.175389  0  3.96379  0
C  C78  1  0.11361429  0.56649417  0.39642143  1  0  -0.137878  0  3.722876  0  0  -0.176921  0  3.972971  0  0  -0.178824  0  3.98606  0  0  -0.162518  -0.175391  0  3.963802  0
C  C79  1  0.38638437  0.93350466  0.89642240  1  0  -0.13788  0  3.72283  0  0  -0.176914  0  3.972906  0  0  -0.178813  0  3.985989  0  0  -0.162467  -0.175382  0  3.96374  0
C  C80  1  0.73384073  0.41968133  0.62786606  1  0  -0.276894  0  3.68405  0  0  -0.350927  0  3.928139  0  0  -0.353681  0  3.939403  0  0  -0.251299  -0.348729  0  3.920334  0
C  C81  1  0.76616004  0.08031855  0.12786669  1  0  -0.276895  0  3.684  0  0  -0.350922  0  3.928082  0  0  -0.353682  0  3.93934  0  0  -0.251278  -0.348726  0  3.920281  0
C  C82  1  0.26615818  0.58031888  0.37213358  1  0  -0.276903  0  3.684049  0  0  -0.35093  0  3.928119  0  0  -0.353683  0  3.939383  0  0  -0.25129  -0.348732  0  3.920316  0
C  C83  1  0.23383987  0.91968167  0.87213219  1  0  -0.27692  0  3.683964  0  0  -0.350917  0  3.92805  0  0  -0.353671  0  3.93931  0  0  -0.25129  -0.34872  0  3.920247  0
C  C84  1  0.95164068  0.64989154  0.81812900  1  0  -0.276584  0  3.674482  0  0  -0.346059  0  3.913923  0  0  -0.349484  0  3.925546  0  0  -0.247896  -0.343521  0  3.905909  0
C  C85  1  0.54835957  0.85010893  0.31812930  1  0  -0.276651  0  3.674543  0  0  -0.346088  0  3.914012  0  0  -0.349512  0  3.925634  0  0  -0.247902  -0.34355  0  3.905995  0
C  C86  1  0.04836023  0.35010867  0.18187065  1  0  -0.276645  0  3.674549  0  0  -0.346102  0  3.913999  0  0  -0.349527  0  3.925621  0  0  -0.247905  -0.343563  0  3.905986  0
C  C87  1  0.45163913  0.14989044  0.68187034  1  0  -0.276663  0  3.67461  0  0  -0.346127  0  3.914068  0  0  -0.349548  0  3.925687  0  0  -0.247904  -0.343586  0  3.906051  0
Br  Br88  1  0.26303111  0.66584262  0.07299643  1  0  -0.363706  0  1.027233  0  0  -0.312024  0  1.318181  0  0  -0.332308  0  1.30225  0  0  -0.203981  -0.298896  0  1.328801  0
Br  Br89  1  0.23696756  0.83415732  0.57299664  1  0  -0.363699  0  1.027234  0  0  -0.312023  0  1.318192  0  0  -0.332308  0  1.302262  0  0  -0.203978  -0.298897  0  1.328812  0
Br  Br90  1  0.73696880  0.33415759  0.92700399  1  0  -0.363705  0  1.027263  0  0  -0.312029  0  1.318224  0  0  -0.332312  0  1.302294  0  0  -0.203975  -0.298901  0  1.328844  0
Br  Br91  1  0.76303235  0.16584289  0.42700377  1  0  -0.363694  0  1.027239  0  0  -0.312014  0  1.318193  0  0  -0.3323  0  1.302264  0  0  -0.203975  -0.298889  0  1.328813  0
N  N92  1  0.98573458  0.08078650  0.90005469  1  0  -0.298864  0  3.030704  0  0  -0.264366  0  3.309918  0  0  -0.276016  0  3.323528  0  0  -0.205923  -0.256523  0  3.300644  0
N  N93  1  0.51426457  0.41921400  0.40005569  1  0  -0.298853  0  3.030732  0  0  -0.264372  0  3.309928  0  0  -0.276023  0  3.323539  0  0  -0.20588  -0.256527  0  3.300652  0
N  N94  1  0.01426454  0.91921456  0.09994572  1  0  -0.298881  0  3.030675  0  0  -0.264383  0  3.309889  0  0  -0.276034  0  3.3235  0  0  -0.205911  -0.256537  0  3.300619  0
N  N95  1  0.48573635  0.58078622  0.59994395  1  0  -0.298857  0  3.030712  0  0  -0.264382  0  3.309904  0  0  -0.276033  0  3.323517  0  0  -0.205895  -0.256537  0  3.300628  0
N  N96  1  0.37850728  0.33249843  0.03056430  1  0  -0.072656  0  3.05448  0  0  -0.047389  0  3.364595  0  0  -0.051293  0  3.37718  0  0  -0.074269  -0.044605  0  3.355681  0
N  N97  1  0.12149199  0.16750080  0.53056383  1  0  -0.072508  0  3.054582  0  0  -0.047222  0  3.364671  0  0  -0.051126  0  3.377257  0  0  -0.074176  -0.044439  0  3.355758  0
N  N98  1  0.62149263  0.66750178  0.96943534  1  0  -0.072576  0  3.054406  0  0  -0.047286  0  3.364502  0  0  -0.051189  0  3.377085  0  0  -0.074203  -0.044503  0  3.355588  0
N  N99  1  0.87850872  0.83249857  0.46943582  1  0  -0.072521  0  3.054494  0  0  -0.047223  0  3.364578  0  0  -0.051126  0  3.377164  0  0  -0.074177  -0.04444  0  3.355666  0
N  N100  1  0.88795444  0.95985484  0.78457235  1  0  -0.06995  0  2.918081  0  0  -0.076773  0  3.213665  0  0  -0.074228  0  3.227723  0  0  -0.089854  -0.078173  0  3.204094  0
N  N101  1  0.61204638  0.54014398  0.28457294  1  0  -0.069944  0  2.91814  0  0  -0.076762  0  3.213733  0  0  -0.074219  0  3.227794  0  0  -0.089856  -0.078163  0  3.204162  0
N  N102  1  0.11204626  0.04014453  0.21542729  1  0  -0.069971  0  2.918128  0  0  -0.07679  0  3.213712  0  0  -0.074246  0  3.227771  0  0  -0.089855  -0.07819  0  3.204141  0
N  N103  1  0.38795232  0.45985539  0.71542671  1  0  -0.069916  0  2.918072  0  0  -0.076737  0  3.21367  0  0  -0.074193  0  3.227729  0  0  -0.089844  -0.078138  0  3.204098  0
N  N104  1  0.92881242  0.97188152  0.88071827  1  0  -0.066651  0  2.980654  0  0  -0.050556  0  3.286798  0  0  -0.052185  0  3.298043  0  0  -0.075817  -0.049269  0  3.279344  0
N  N105  1  0.57118788  0.52811890  0.38071885  1  0  -0.066614  0  2.980673  0  0  -0.050511  0  3.286809  0  0  -0.05214  0  3.298057  0  0  -0.075807  -0.049224  0  3.279352  0
N  N106  1  0.07118749  0.02811870  0.11928137  1  0  -0.066573  0  2.980651  0  0  -0.050476  0  3.286787  0  0  -0.052106  0  3.298034  0  0  -0.075783  -0.049189  0  3.279333  0
N  N107  1  0.42881204  0.47188131  0.61928080  1  0  -0.066605  0  2.980635  0  0  -0.050498  0  3.286769  0  0  -0.052128  0  3.298018  0  0  -0.075791  -0.049212  0  3.279313  0
N  N108  1  0.94906219  0.29399404  0.71514938  1  0  -0.325424  0  3.129102  0  0  -0.289164  0  3.402177  0  0  -0.301915  0  3.417087  0  0  -0.290906  -0.279992  0  3.391586  0
N  N109  1  0.55093784  0.20600661  0.21514980  1  0  -0.32541  0  3.129035  0  0  -0.289157  0  3.402134  0  0  -0.301901  0  3.417023  0  0  -0.290881  -0.279987  0  3.391544  0
N  N110  1  0.05093893  0.70600702  0.28485027  1  0  -0.325472  0  3.129111  0  0  -0.289221  0  3.402216  0  0  -0.301965  0  3.417102  0  0  -0.290902  -0.280048  0  3.391623  0
N  N111  1  0.44906087  0.79399275  0.78485062  1  0  -0.325433  0  3.129065  0  0  -0.289181  0  3.40215  0  0  -0.301929  0  3.417048  0  0  -0.290916  -0.280011  0  3.391558  0
N  N112  1  0.31787543  0.38441031  0.95804410  1  0  -0.265948  0  3.048978  0  0  -0.227246  0  3.33925  0  0  -0.242058  0  3.353013  0  0  -0.198439  -0.217385  0  3.329549  0
N  N113  1  0.18212410  0.11558857  0.45804465  1  0  -0.265953  0  3.048907  0  0  -0.227249  0  3.339195  0  0  -0.242063  0  3.352959  0  0  -0.198433  -0.217386  0  3.329486  0
N  N114  1  0.68212348  0.61558990  0.04195632  1  0  -0.265931  0  3.04872  0  0  -0.227236  0  3.338995  0  0  -0.242048  0  3.352757  0  0  -0.198447  -0.217375  0  3.329295  0
N  N115  1  0.81787761  0.88441080  0.54195576  1  0  -0.265889  0  3.048748  0  0  -0.227204  0  3.339024  0  0  -0.242019  0  3.352782  0  0  -0.198404  -0.217342  0  3.329319  0
N  N116  1  0.19722918  0.21849148  0.98888140  1  0  -0.212437  0  3.427282  0  0  -0.146044  0  3.673324  0  0  -0.16113  0  3.686025  0  0  -0.230154  -0.135928  0  3.664813  0
N  N117  1  0.30276958  0.28150823  0.48888189  1  0  -0.212473  0  3.427339  0  0  -0.146066  0  3.673399  0  0  -0.161164  0  3.686111  0  0  -0.230146  -0.135949  0  3.664883  0
N  N118  1  0.80277073  0.78150874  0.01111901  1  0  -0.212479  0  3.427222  0  0  -0.146042  0  3.673245  0  0  -0.161135  0  3.685954  0  0  -0.230155  -0.135927  0  3.664735  0
N  N119  1  0.69723113  0.71849114  0.51111853  1  0  -0.212458  0  3.42731  0  0  -0.146076  0  3.673369  0  0  -0.161171  0  3.686073  0  0  -0.230155  -0.13596  0  3.664856  0
N  N120  1  0.11815526  0.44808890  0.83488022  1  0  -0.311154  0  3.147215  0  0  -0.275156  0  3.416578  0  0  -0.286739  0  3.432747  0  0  -0.286104  -0.266709  0  3.405382  0
N  N121  1  0.38184320  0.05191008  0.33488016  1  0  -0.311169  0  3.147197  0  0  -0.275154  0  3.416549  0  0  -0.286741  0  3.432714  0  0  -0.286105  -0.266707  0  3.405351  0
N  N122  1  0.88184324  0.55190962  0.16512096  1  0  -0.311215  0  3.147092  0  0  -0.275221  0  3.416463  0  0  -0.286803  0  3.432631  0  0  -0.286145  -0.266776  0  3.405271  0
N  N123  1  0.61815751  0.94808929  0.66512025  1  0  -0.311137  0  3.147197  0  0  -0.27513  0  3.416537  0  0  -0.286701  0  3.432716  0  0  -0.286134  -0.266685  0  3.405338  0
N  N124  1  0.30695603  0.23174742  0.05024403  1  0  -0.019283  0  2.840998  0  0  -0.031166  0  3.122926  0  0  -0.027815  0  3.134634  0  0  -0.069367  -0.033098  0  3.115002  0
N  N125  1  0.19304225  0.26825180  0.55024427  1  0  -0.019367  0  2.841253  0  0  -0.03126  0  3.123179  0  0  -0.027906  0  3.134891  0  0  -0.069438  -0.033192  0  3.115252  0
N  N126  1  0.69304367  0.76825195  0.94975562  1  0  -0.0193  0  2.841081  0  0  -0.031207  0  3.123003  0  0  -0.027853  0  3.134712  0  0  -0.069398  -0.033138  0  3.115078  0
N  N127  1  0.80695766  0.73174842  0.44975461  1  0  -0.019382  0  2.841214  0  0  -0.031283  0  3.12316  0  0  -0.02793  0  3.13487  0  0  -0.069447  -0.033214  0  3.115234  0
N  N128  1  0.91775308  0.06186483  0.73993706  1  0  -0.250288  0  3.286257  0  0  -0.169238  0  3.571403  0  0  -0.192438  0  3.593292  0  0  -0.213239  -0.153669  0  3.555939  0
N  N129  1  0.58224755  0.43813412  0.23993808  1  0  -0.250319  0  3.286348  0  0  -0.16931  0  3.571515  0  0  -0.19251  0  3.593403  0  0  -0.213259  -0.153741  0  3.556051  0
N  N130  1  0.08224683  0.93813539  0.26006336  1  0  -0.250351  0  3.286248  0  0  -0.169315  0  3.571414  0  0  -0.192514  0  3.5933  0  0  -0.213269  -0.153742  0  3.555953  0
N  N131  1  0.41775216  0.56186525  0.76006157  1  0  -0.250329  0  3.286271  0  0  -0.169329  0  3.571436  0  0  -0.192529  0  3.593324  0  0  -0.213271  -0.153758  0  3.555972  0
