# generated using pymatgen
data_CdH18C20(N5Cl)2
_symmetry_space_group_name_H-M   'P 1'
_cell_length_a   4.01463714
_cell_length_b   14.84806358
_cell_length_c   20.91968094
_cell_angle_alpha   108.28339663
_cell_angle_beta   90.01984299
_cell_angle_gamma   97.76664205
_symmetry_Int_Tables_number   1
_chemical_formula_structural   CdH18C20(N5Cl)2
_chemical_formula_sum   'Cd2 H36 C40 N20 Cl4'
_cell_volume   1171.98675250
_cell_formula_units_Z   2
loop_
 _symmetry_equiv_pos_site_id
 _symmetry_equiv_pos_as_xyz
  1  'x, y, z'
loop_
 _atom_site_type_symbol
 _atom_site_label
 _atom_site_symmetry_multiplicity
 _atom_site_fract_x
 _atom_site_fract_y
 _atom_site_fract_z
 _atom_site_occupancy
 _atom_site_hle17_bader_spin_density
 _atom_site_hle17_ddec_charge
 _atom_site_hle17_ddec_spin_density
 _atom_site_hle17_ddec_sum_bond_order
 _atom_site_hle17_magmom
 _atom_site_hse06_10hf_bader_spin_density
 _atom_site_hse06_10hf_ddec_charge
 _atom_site_hse06_10hf_ddec_spin_density
 _atom_site_hse06_10hf_ddec_sum_bond_order
 _atom_site_hse06_10hf_magmom
 _atom_site_hse06_bader_spin_density
 _atom_site_hse06_ddec_charge
 _atom_site_hse06_ddec_spin_density
 _atom_site_hse06_ddec_sum_bond_order
 _atom_site_hse06_magmom
 _atom_site_pbe_bader_spin_density
 _atom_site_pbe_cm5_charge
 _atom_site_pbe_ddec_charge
 _atom_site_pbe_ddec_spin_density
 _atom_site_pbe_ddec_sum_bond_order
 _atom_site_pbe_magmom
Cd  Cd0  1  0.00000183  0.00000160  0.99999984  1  0  0.982669  0  1.918097  0  0  0.819568  0  2.370725  0  0  0.865469  0  2.331649  0  0  0.6084  0.787001  0  2.39749  0
Cd  Cd1  1  0.99999638  0.00000023  0.49999834  1  0  0.983359  0  1.915969  0  0  0.820104  0  2.368651  0  0  0.866048  0  2.329492  0  0  0.608254  0.787504  0  2.395488  0
H  H2  1  0.37609571  0.22836417  0.08466978  1  0  0.108417  0  0.961622  0  0  0.117697  0  1.023277  0  0  0.120155  0  1.022114  0  0  0.113828  0.11588  0  1.024281  0
H  H3  1  0.14819710  0.77150638  0.41525248  1  0  0.107727  0  0.962146  0  0  0.117041  0  1.023751  0  0  0.119468  0  1.022663  0  0  0.113873  0.115249  0  1.024683  0
H  H4  1  0.62390103  0.77164405  0.91532906  1  0  0.108549  0  0.961555  0  0  0.117798  0  1.023254  0  0  0.120258  0  1.022089  0  0  0.113923  0.11598  0  1.02426  0
H  H5  1  0.85179925  0.22849110  0.58474496  1  0  0.107755  0  0.962154  0  0  0.117074  0  1.023751  0  0  0.119501  0  1.022664  0  0  0.113887  0.115284  0  1.024681  0
H  H6  1  0.23101091  0.39140138  0.05742744  1  0  0.119249  0  0.993398  0  0  0.11647  0  1.074831  0  0  0.120142  0  1.071935  0  0  0.117308  0.113765  0  1.077022  0
H  H7  1  0.84050571  0.60847158  0.44253507  1  0  0.120257  0  0.992758  0  0  0.117224  0  1.074359  0  0  0.120908  0  1.071463  0  0  0.117547  0.114498  0  1.07656  0
H  H8  1  0.76897693  0.60860398  0.94257077  1  0  0.119328  0  0.993286  0  0  0.116519  0  1.074756  0  0  0.12019  0  1.071859  0  0  0.117317  0.113811  0  1.076951  0
H  H9  1  0.15949387  0.39152736  0.55746651  1  0  0.120278  0  0.992742  0  0  0.117252  0  1.074338  0  0  0.120936  0  1.071442  0  0  0.117569  0.114528  0  1.076541  0
H  H10  1  0.73154491  0.13936083  0.91108767  1  0  0.100857  0  0.945697  0  0  0.108176  0  1.013329  0  0  0.111419  0  1.008913  0  0  0.127453  0.105752  0  1.016546  0
H  H11  1  0.59288619  0.86049024  0.58876774  1  0  0.100974  0  0.945527  0  0  0.10792  0  1.013556  0  0  0.111227  0  1.009046  0  0  0.127551  0.10546  0  1.016811  0
H  H12  1  0.26846390  0.86063666  0.08891120  1  0  0.100822  0  0.945689  0  0  0.108137  0  1.013348  0  0  0.111381  0  1.008932  0  0  0.127461  0.105715  0  1.016564  0
H  H13  1  0.40712336  0.13951370  0.41123303  1  0  0.100928  0  0.945576  0  0  0.107892  0  1.013589  0  0  0.111198  0  1.009078  0  0  0.127562  0.105433  0  1.016846  0
H  H14  1  0.58332211  0.29929540  0.90905598  1  0  0.086615  0  0.923376  0  0  0.094673  0  0.992558  0  0  0.095713  0  0.99212  0  0  0.130712  0.093806  0  0.993054  0
H  H15  1  0.28424917  0.70062244  0.59070814  1  0  0.086224  0  0.923333  0  0  0.093842  0  0.992639  0  0  0.09496  0  0.992077  0  0  0.130195  0.092928  0  0.993176  0
H  H16  1  0.41667139  0.70070136  0.09094130  1  0  0.086697  0  0.923386  0  0  0.094686  0  0.992563  0  0  0.095724  0  0.992122  0  0  0.130728  0.093819  0  0.99306  0
H  H17  1  0.71575967  0.29938008  0.40929375  1  0  0.086279  0  0.923334  0  0  0.093897  0  0.992623  0  0  0.095012  0  0.992063  0  0  0.130196  0.092982  0  0.993161  0
H  H18  1  0.73569663  0.40512166  0.97806481  1  0  0.093494  0  0.957064  0  0  0.089029  0  1.049305  0  0  0.091192  0  1.046156  0  0  0.132199  0.087325  0  1.051687  0
H  H19  1  0.33112476  0.59472474  0.52176356  1  0  0.093165  0  0.958233  0  0  0.089177  0  1.049461  0  0  0.091405  0  1.046306  0  0  0.132204  0.087428  0  1.051821  0
H  H20  1  0.26428941  0.59487512  0.02193343  1  0  0.09354  0  0.95705  0  0  0.089064  0  1.049214  0  0  0.091226  0  1.046064  0  0  0.132218  0.08736  0  1.051596  0
H  H21  1  0.66887342  0.40528137  0.47823959  1  0  0.09317  0  0.958255  0  0  0.089289  0  1.049321  0  0  0.09152  0  1.046166  0  0  0.132248  0.08754  0  1.051684  0
H  H22  1  0.84442413  0.18525138  0.79767272  1  0  0.110426  0  0.941806  0  0  0.123625  0  0.995227  0  0  0.126533  0  0.994456  0  0  0.107908  0.121509  0  0.99592  0
H  H23  1  0.65772882  0.81457886  0.70235101  1  0  0.109178  0  0.941941  0  0  0.122713  0  0.995153  0  0  0.125624  0  0.994363  0  0  0.107404  0.120588  0  0.995857  0
H  H24  1  0.15555124  0.81474897  0.20232535  1  0  0.110502  0  0.941734  0  0  0.123685  0  0.995163  0  0  0.126595  0  0.994387  0  0  0.107916  0.121569  0  0.99586  0
H  H25  1  0.34226472  0.18541797  0.29765536  1  0  0.10933  0  0.941875  0  0  0.122805  0  0.995136  0  0  0.125709  0  0.994349  0  0  0.107472  0.120683  0  0.99584  0
H  H26  1  0.08359396  0.15285998  0.68417778  1  0  0.105042  0  0.962004  0  0  0.113518  0  1.02529  0  0  0.116369  0  1.023401  0  0  0.09365  0.111344  0  1.026839  0
H  H27  1  0.92960957  0.84713247  0.81583762  1  0  0.105382  0  0.962181  0  0  0.11331  0  1.025908  0  0  0.116225  0  1.023933  0  0  0.093687  0.111074  0  1.027553  0
H  H28  1  0.91640240  0.84713751  0.31582061  1  0  0.104971  0  0.962073  0  0  0.113578  0  1.025226  0  0  0.116431  0  1.023331  0  0  0.093645  0.111397  0  1.026798  0
H  H29  1  0.07039036  0.15286221  0.18416732  1  0  0.105308  0  0.962143  0  0  0.113309  0  1.025822  0  0  0.116225  0  1.023843  0  0  0.093669  0.111072  0  1.027467  0
H  H30  1  0.46308734  0.27619427  0.65459235  1  0  0.089378  0  0.97135  0  0  0.099732  0  1.033396  0  0  0.101934  0  1.033604  0  0  0.098673  0.098073  0  1.03347  0
H  H31  1  0.18699276  0.72403286  0.84548800  1  0  0.089082  0  0.970641  0  0  0.099482  0  1.032678  0  0  0.101739  0  1.032857  0  0  0.098597  0.097837  0  1.032712  0
H  H32  1  0.53692967  0.72380467  0.34540923  1  0  0.089357  0  0.971342  0  0  0.09972  0  1.033387  0  0  0.101917  0  1.033599  0  0  0.098666  0.098068  0  1.03345  0
H  H33  1  0.81300750  0.27595748  0.15451169  1  0  0.089206  0  0.970686  0  0  0.099604  0  1.032694  0  0  0.101863  0  1.032871  0  0  0.098614  0.097958  0  1.032728  0
H  H34  1  0.63231763  0.43946813  0.73690360  1  0  0.110501  0  0.952409  0  0  0.118944  0  1.016082  0  0  0.121579  0  1.014953  0  0  0.106401  0.117011  0  1.01697  0
H  H35  1  0.19323208  0.56068251  0.76326729  1  0  0.110906  0  0.95329  0  0  0.119529  0  1.016688  0  0  0.122205  0  1.015509  0  0  0.106641  0.117579  0  1.017606  0
H  H36  1  0.36769938  0.56053081  0.26309798  1  0  0.110477  0  0.952401  0  0  0.118902  0  1.016099  0  0  0.121536  0  1.014973  0  0  0.106393  0.11697  0  1.016987  0
H  H37  1  0.80675963  0.43931068  0.23673064  1  0  0.110852  0  0.953222  0  0  0.119497  0  1.016618  0  0  0.122173  0  1.015438  0  0  0.106612  0.117546  0  1.017534  0
C  C38  1  0.22431705  0.23520398  0.04403328  1  0  0.012836  0  3.729068  0  0  -0.018936  0  3.991015  0  0  -0.016686  0  4.01079  0  0  -0.000332  -0.020437  0  3.977667  0
C  C39  1  0.98954217  0.76464613  0.45585259  1  0  0.01583  0  3.72992  0  0  -0.015845  0  3.991349  0  0  -0.013583  0  4.011138  0  0  0.000439  -0.017354  0  3.978001  0
C  C40  1  0.77569426  0.76479851  0.95596335  1  0  0.012828  0  3.729366  0  0  -0.018887  0  3.991302  0  0  -0.016637  0  4.011078  0  0  -0.000404  -0.020382  0  3.977946  0
C  C41  1  0.01046523  0.23535352  0.54414771  1  0  0.01583  0  3.729888  0  0  -0.015834  0  3.991311  0  0  -0.013571  0  4.0111  0  0  0.000463  -0.017343  0  3.977964  0
C  C42  1  0.15654220  0.31584755  0.03072513  1  0  -0.060357  0  3.647041  0  0  -0.098969  0  3.909759  0  0  -0.097795  0  3.927614  0  0  -0.002323  -0.099672  0  3.897811  0
C  C43  1  0.84150143  0.68402175  0.46922021  1  0  -0.063158  0  3.646953  0  0  -0.101496  0  3.909642  0  0  -0.100347  0  3.927519  0  0  -0.002847  -0.102181  0  3.897694  0
C  C44  1  0.84347160  0.68415493  0.96927101  1  0  -0.060671  0  3.647506  0  0  -0.099266  0  3.910259  0  0  -0.098097  0  3.928122  0  0  -0.002419  -0.099964  0  3.898313  0
C  C45  1  0.15850421  0.31597934  0.53078137  1  0  -0.063206  0  3.646893  0  0  -0.101559  0  3.90959  0  0  -0.100412  0  3.927467  0  0  -0.002921  -0.102245  0  3.897644  0
C  C46  1  0.89662733  0.18520093  0.95321332  1  0  0.158002  0  3.668374  0  0  0.095429  0  3.936938  0  0  0.109254  0  3.950103  0  0  0.135962  0.086504  0  3.927719  0
C  C47  1  0.71217035  0.81464941  0.54667889  1  0  0.157831  0  3.669756  0  0  0.0955  0  3.938621  0  0  0.109288  0  3.951737  0  0  0.135874  0.086602  0  3.929449  0
C  C48  1  0.10338788  0.81479941  0.04678331  1  0  0.158083  0  3.668348  0  0  0.095502  0  3.936982  0  0  0.109324  0  3.950151  0  0  0.136009  0.08658  0  3.927765  0
C  C49  1  0.28783314  0.18535238  0.45332093  1  0  0.157962  0  3.669638  0  0  0.09563  0  3.938521  0  0  0.109416  0  3.951637  0  0  0.135928  0.086731  0  3.929354  0
C  C50  1  0.80580680  0.34213605  0.93952934  1  0  0.085719  0  3.638801  0  0  0.00497  0  3.895391  0  0  0.014584  0  3.903115  0  0  0.059733  -0.001435  0  3.89031  0
C  C51  1  0.46401250  0.65772172  0.56033189  1  0  0.08465  0  3.640804  0  0  0.00554  0  3.893911  0  0  0.015036  0  3.901828  0  0  0.060188  -0.00074  0  3.888645  0
C  C52  1  0.19418814  0.65786359  0.06046905  1  0  0.085573  0  3.638984  0  0  0.005011  0  3.8953  0  0  0.014641  0  3.902994  0  0  0.059736  -0.001391  0  3.890218  0
C  C53  1  0.53599670  0.34228152  0.43967064  1  0  0.084505  0  3.64079  0  0  0.005396  0  3.893797  0  0  0.014892  0  3.901722  0  0  0.060125  -0.000881  0  3.88853  0
C  C54  1  0.11207245  0.33210574  0.83124982  1  0  0.084264  0  3.826143  0  0  0.065452  0  4.082625  0  0  0.070835  0  4.104993  0  0  0.094942  0.06197  0  4.067538  0
C  C55  1  0.77952940  0.66782355  0.66879584  1  0  0.084104  0  3.825837  0  0  0.065649  0  4.082272  0  0  0.071064  0  4.104639  0  0  0.095189  0.062143  0  4.067184  0
C  C56  1  0.88792356  0.66789603  0.16874760  1  0  0.084407  0  3.82633  0  0  0.065537  0  4.082784  0  0  0.070922  0  4.105152  0  0  0.09497  0.062047  0  4.067709  0
C  C57  1  0.22046236  0.33217468  0.33120702  1  0  0.084354  0  3.825772  0  0  0.065895  0  4.082127  0  0  0.071336  0  4.10446  0  0  0.095255  0.062368  0  4.06707  0
C  C58  1  0.01723876  0.24013327  0.78552415  1  0  -0.156797  0  3.76272  0  0  -0.173439  0  4.017057  0  0  -0.178816  0  4.038107  0  0  -0.094917  -0.169879  0  4.002807  0
C  C59  1  0.77644824  0.75980480  0.71447038  1  0  -0.156208  0  3.763976  0  0  -0.173345  0  4.018142  0  0  -0.17874  0  4.039205  0  0  -0.095569  -0.169763  0  4.003867  0
C  C60  1  0.98273946  0.75986780  0.21447455  1  0  -0.156922  0  3.762922  0  0  -0.173551  0  4.017288  0  0  -0.178929  0  4.038337  0  0  -0.094992  -0.169988  0  4.003045  0
C  C61  1  0.22354672  0.24019487  0.28553327  1  0  -0.156714  0  3.764268  0  0  -0.173806  0  4.01849  0  0  -0.179202  0  4.039536  0  0  -0.095741  -0.170219  0  4.004226  0
C  C62  1  0.15024877  0.22284316  0.72219973  1  0  -0.031139  0  3.72057  0  0  -0.047592  0  3.969549  0  0  -0.047135  0  3.990642  0  0  -0.079115  -0.047622  0  3.955134  0
C  C63  1  0.92657307  0.77715146  0.77783888  1  0  -0.031719  0  3.720195  0  0  -0.047531  0  3.968883  0  0  -0.047126  0  3.989941  0  0  -0.078574  -0.047523  0  3.954494  0
C  C64  1  0.84976005  0.77715435  0.27780058  1  0  -0.031093  0  3.720729  0  0  -0.047661  0  3.969684  0  0  -0.047206  0  3.990778  0  0  -0.079072  -0.04769  0  3.955259  0
C  C65  1  0.07343896  0.22284750  0.22216414  1  0  -0.031164  0  3.719809  0  0  -0.04706  0  3.968468  0  0  -0.04665  0  3.989522  0  0  -0.078398  -0.047052  0  3.954081  0
C  C66  1  0.36787928  0.29422503  0.70505553  1  0  -0.064355  0  3.752  0  0  -0.079194  0  4.002226  0  0  -0.083653  0  4.026313  0  0  -0.087502  -0.076215  0  3.985906  0
C  C67  1  0.07343598  0.70587999  0.79502338  1  0  -0.063306  0  3.749483  0  0  -0.078009  0  3.9994  0  0  -0.082558  0  4.023503  0  0  -0.087432  -0.075022  0  3.983088  0
C  C68  1  0.63213453  0.70577248  0.29494573  1  0  -0.064299  0  3.751896  0  0  -0.079143  0  4.002165  0  0  -0.083603  0  4.026267  0  0  -0.087493  -0.076167  0  3.985838  0
C  C69  1  0.92656715  0.29411609  0.20497757  1  0  -0.063793  0  3.749573  0  0  -0.078478  0  3.99955  0  0  -0.083035  0  4.023659  0  0  -0.087538  -0.075489  0  3.983232  0
C  C70  1  0.46251261  0.38513493  0.75025385  1  0  -0.115725  0  3.720733  0  0  -0.134498  0  3.96753  0  0  -0.134851  0  3.987267  0  0  -0.082886  -0.134032  0  3.954162  0
C  C71  1  0.07780987  0.61498903  0.74984646  1  0  -0.11698  0  3.72006  0  0  -0.135896  0  3.967155  0  0  -0.136302  0  3.986987  0  0  -0.08337  -0.135414  0  3.953743  0
C  C72  1  0.53749692  0.61486400  0.24974486  1  0  -0.11562  0  3.720689  0  0  -0.134445  0  3.967463  0  0  -0.134795  0  3.987192  0  0  -0.08288  -0.133983  0  3.954101  0
C  C73  1  0.92218827  0.38500705  0.25015449  1  0  -0.116738  0  3.720101  0  0  -0.135696  0  3.967155  0  0  -0.136099  0  3.986988  0  0  -0.083306  -0.135211  0  3.953738  0
C  C74  1  0.33185660  0.40362926  0.81461961  1  0  0.09491  0  3.845029  0  0  0.095972  0  4.10498  0  0  0.094766  0  4.127094  0  0  0.085138  0.096498  0  4.090169  0
C  C75  1  0.92804354  0.59636172  0.68548038  1  0  0.096174  0  3.842212  0  0  0.09676  0  4.102639  0  0  0.095545  0  4.124743  0  0  0.085327  0.097303  0  4.087818  0
C  C76  1  0.66814902  0.59637181  0.18537909  1  0  0.094741  0  3.845344  0  0  0.095972  0  4.10507  0  0  0.094767  0  4.127182  0  0  0.085175  0.0965  0  4.090256  0
C  C77  1  0.07194073  0.40363650  0.31452008  1  0  0.096065  0  3.842225  0  0  0.096725  0  4.102562  0  0  0.095502  0  4.124665  0  0  0.08529  0.097273  0  4.087743  0
N  N78  1  0.06012670  0.15498233  0.99576441  1  0  -0.363789  0  3.2924  0  0  -0.286662  0  3.566439  0  0  -0.308242  0  3.587319  0  0  -0.353081  -0.271926  0  3.551852  0
N  N79  1  0.90564502  0.84488003  0.50412616  1  0  -0.365696  0  3.294071  0  0  -0.288621  0  3.56804  0  0  -0.310158  0  3.588841  0  0  -0.353549  -0.273907  0  3.553489  0
N  N80  1  0.93988567  0.84501730  0.00423255  1  0  -0.363775  0  3.292552  0  0  -0.286703  0  3.566624  0  0  -0.308281  0  3.587504  0  0  -0.353055  -0.271968  0  3.552039  0
N  N81  1  0.09435562  0.15512104  0.49587350  1  0  -0.365717  0  3.294028  0  0  -0.288673  0  3.568036  0  0  -0.310209  0  3.588836  0  0  -0.353604  -0.273958  0  3.553491  0
N  N82  1  0.95063327  0.28294579  0.97245703  1  0  -0.100374  0  3.59009  0  0  -0.008446  0  3.812406  0  0  -0.024328  0  3.839231  0  0  -0.250933  0.002136  0  3.794053  0
N  N83  1  0.66851961  0.71690565  0.52747688  1  0  -0.098051  0  3.589443  0  0  -0.006988  0  3.811732  0  0  -0.022895  0  3.83869  0  0  -0.2509  0.003599  0  3.793303  0
N  N84  1  0.04936343  0.71705241  0.02753961  1  0  -0.100276  0  3.590256  0  0  -0.008369  0  3.812491  0  0  -0.024252  0  3.839315  0  0  -0.250931  0.00221  0  3.794142  0
N  N85  1  0.33148639  0.28309616  0.47252533  1  0  -0.098084  0  3.589359  0  0  -0.007069  0  3.811719  0  0  -0.022974  0  3.838675  0  0  -0.250924  0.00352  0  3.793292  0
N  N86  1  0.03366455  0.37701607  0.89627684  1  0  -0.050222  0  3.527997  0  0  0.028617  0  3.765291  0  0  0.014231  0  3.79045  0  0  -0.146999  0.038102  0  3.748242  0
N  N87  1  0.65645490  0.62288901  0.60373941  1  0  -0.048931  0  3.527241  0  0  0.028765  0  3.764997  0  0  0.014363  0  3.790225  0  0  -0.146564  0.038253  0  3.747906  0
N  N88  1  0.96631402  0.62298571  0.10372058  1  0  -0.0503  0  3.528046  0  0  0.028511  0  3.765265  0  0  0.01412  0  3.790423  0  0  -0.147018  0.037997  0  3.748219  0
N  N89  1  0.34353900  0.37711352  0.39626344  1  0  -0.049037  0  3.527439  0  0  0.028648  0  3.765212  0  0  0.014235  0  3.790436  0  0  -0.146582  0.038141  0  3.748127  0
N  N90  1  0.19619653  0.46926655  0.91819720  1  0  -0.082091  0  2.908699  0  0  -0.077773  0  3.203969  0  0  -0.073529  0  3.212725  0  0  -0.077412  -0.080341  0  3.197917  0
N  N91  1  0.72719601  0.53067672  0.58186122  1  0  -0.083173  0  2.910669  0  0  -0.078481  0  3.205736  0  0  -0.074255  0  3.214534  0  0  -0.077994  -0.081042  0  3.199663  0
N  N92  1  0.80379130  0.53073380  0.08180086  1  0  -0.082025  0  2.908612  0  0  -0.077718  0  3.203918  0  0  -0.073476  0  3.212681  0  0  -0.077423  -0.080285  0  3.197862  0
N  N93  1  0.27280001  0.46932508  0.41813955  1  0  -0.083096  0  2.910847  0  0  -0.078443  0  3.205994  0  0  -0.074214  0  3.214791  0  0  -0.077988  -0.081005  0  3.199918  0
N  N94  1  0.37435284  0.48555158  0.86999698  1  0  -0.220561  0  2.949649  0  0  -0.207378  0  3.238227  0  0  -0.209988  0  3.247514  0  0  -0.191995  -0.20517  0  3.231737  0
N  N95  1  0.88886340  0.51442092  0.63011676  1  0  -0.220442  0  2.950053  0  0  -0.207269  0  3.238788  0  0  -0.209866  0  3.248072  0  0  -0.191598  -0.205076  0  3.232298  0
N  N96  1  0.62564745  0.51444879  0.13000348  1  0  -0.220583  0  2.949674  0  0  -0.207458  0  3.238219  0  0  -0.210069  0  3.247508  0  0  -0.192033  -0.205249  0  3.231724  0
N  N97  1  0.11113368  0.48557801  0.36988339  1  0  -0.220453  0  2.950081  0  0  -0.20729  0  3.238791  0  0  -0.20989  0  3.248077  0  0  -0.191585  -0.205095  0  3.232296  0
Cl  Cl98  1  0.48534579  0.95400656  0.90778910  1  0  -0.605563  0  0.869027  0  0  -0.549153  0  1.126681  0  0  -0.566351  0  1.106078  0  0  -0.340508  -0.53641  0  1.140891  0
Cl  Cl99  1  0.53162315  0.04599430  0.59219578  1  0  -0.605599  0  0.868629  0  0  -0.549102  0  1.126389  0  0  -0.566347  0  1.105767  0  0  -0.34058  -0.536349  0  1.140609  0
Cl  Cl100  1  0.51465806  0.04599596  0.09221135  1  0  -0.605557  0  0.869006  0  0  -0.549161  0  1.126683  0  0  -0.56636  0  1.106079  0  0  -0.3405  -0.536416  0  1.140894  0
Cl  Cl101  1  0.46837499  0.95400676  0.40780149  1  0  -0.605562  0  0.868613  0  0  -0.549071  0  1.126389  0  0  -0.566317  0  1.105768  0  0  -0.340539  -0.536313  0  1.140613  0
