# generated using pymatgen
data_NiH30(C22O9)2
_symmetry_space_group_name_H-M   'P 1'
_cell_length_a   9.12509424
_cell_length_b   9.92439251
_cell_length_c   10.55423441
_cell_angle_alpha   83.70806457
_cell_angle_beta   77.20259131
_cell_angle_gamma   71.45945635
_symmetry_Int_Tables_number   1
_chemical_formula_structural   NiH30(C22O9)2
_chemical_formula_sum   'Ni1 H30 C44 O18'
_cell_volume   882.89146482
_cell_formula_units_Z   1
loop_
 _symmetry_equiv_pos_site_id
 _symmetry_equiv_pos_as_xyz
  1  'x, y, z'
loop_
 _atom_site_type_symbol
 _atom_site_label
 _atom_site_symmetry_multiplicity
 _atom_site_fract_x
 _atom_site_fract_y
 _atom_site_fract_z
 _atom_site_occupancy
 _atom_site_pbe_cm5_charge
 _atom_site_pbe_ddec_charge
 _atom_site_pbe_ddec_spin_density
 _atom_site_pbe_ddec_sum_bond_order
 _atom_site_pbe_magmom
Ni  Ni0  1  0.49999748  0.00000076  0.50000013  1  0.605266  0.90826  -0.018312  2.365994  -0.02
H  H1  1  0.46095809  0.04930283  0.90856159  1  0.306476  0.353145  6e-06  0.985244  0.0
H  H2  1  0.53904298  0.95068556  0.09144408  1  0.306528  0.353246  6e-06  0.985083  0.0
H  H3  1  0.10745237  0.81540624  0.52082469  1  0.303981  0.365805  -2e-05  0.970838  0.0
H  H4  1  0.89254366  0.18459925  0.47917369  1  0.304018  0.365811  -2e-05  0.970831  0.0
H  H5  1  0.40363895  0.70459211  0.27521153  1  0.311877  0.376002  -0.0  0.962938  0.0
H  H6  1  0.59636050  0.29540700  0.72478869  1  0.311893  0.376007  -0.0  0.96292  0.0
H  H7  1  0.26028449  0.01854513  0.43806520  1  0.294368  0.37187  -0.000105  0.978226  0.0
H  H8  1  0.73970975  0.98145921  0.56193744  1  0.294346  0.371823  -0.000106  0.978293  0.0
H  H9  1  0.36844981  0.05074750  0.30341077  1  0.314486  0.407584  -0.000397  0.897978  0.0
H  H10  1  0.63154181  0.94925148  0.69659008  1  0.314463  0.407543  -0.000397  0.898047  0.0
H  H11  1  0.08135418  0.01072507  0.26865891  1  0.111698  0.121195  -5.8e-05  1.014232  0.0
H  H12  1  0.91864087  0.98927391  0.73134694  1  0.111717  0.121181  -5.8e-05  1.014299  0.0
H  H13  1  0.08270328  0.20704955  0.88430317  1  0.104997  0.106142  5e-06  1.03514  0.0
H  H14  1  0.91730334  0.79294216  0.11570012  1  0.10497  0.10613  5e-06  1.035141  0.0
H  H15  1  0.79269841  0.30137004  0.93626722  1  0.10266  0.10575  2e-06  1.048004  0.0
H  H16  1  0.20730699  0.69862492  0.06373032  1  0.102667  0.10572  2e-06  1.04801  0.0
H  H17  1  0.58985375  0.32327018  0.36250260  1  0.103194  0.106629  1e-06  1.015204  0.0
H  H18  1  0.41014822  0.67673757  0.63749343  1  0.103205  0.10664  1e-06  1.015161  0.0
H  H19  1  0.30835513  0.44700014  0.41157243  1  0.100981  0.099256  7e-06  1.020345  0.0
H  H20  1  0.69164942  0.55300981  0.58842193  1  0.100968  0.09927  7e-06  1.020358  0.0
H  H21  1  0.27851540  0.39941007  0.01728150  1  0.098167  0.096688  2e-06  1.040746  0.0
H  H22  1  0.72148739  0.60058590  0.98271646  1  0.098176  0.096692  2e-06  1.040721  0.0
H  H23  1  0.55868358  0.26849495  0.96994886  1  0.1014  0.107118  5e-06  1.031836  0.0
H  H24  1  0.44131812  0.73149779  0.03005058  1  0.101351  0.106991  5e-06  1.031884  0.0
H  H25  1  0.80526295  0.75522501  0.43697256  1  0.112391  0.122391  0.000105  1.033751  0.0
H  H26  1  0.19473981  0.24477739  0.56302479  1  0.112391  0.122375  0.000105  1.033759  0.0
H  H27  1  0.76618999  0.48176497  0.16581557  1  0.104494  0.103495  3e-06  1.043158  0.0
H  H28  1  0.23381022  0.51823521  0.83418534  1  0.104486  0.103499  3e-06  1.043152  0.0
H  H29  1  0.05461010  0.37163651  0.12357340  1  0.09668  0.093824  1e-05  1.060768  0.0
H  H30  1  0.94538969  0.62836475  0.87642560  1  0.096677  0.093822  1e-05  1.060738  0.0
C  C31  1  0.77237071  0.07110314  0.35139407  1  0.228914  0.585908  0.001402  4.133473  0.0
C  C32  1  0.22762389  0.92890015  0.64860765  1  0.228915  0.585842  0.001402  4.133519  0.0
C  C33  1  0.85259883  0.12291460  0.22455758  1  -0.010332  -0.084353  0.001712  3.912057  0.001
C  C34  1  0.14740140  0.87708236  0.77544458  1  -0.010355  -0.084363  0.001712  3.912042  0.001
C  C35  1  0.01747023  0.07611284  0.19663251  1  -0.067634  -0.081986  0.001166  3.901046  0.001
C  C36  1  0.98252740  0.92388514  0.80337103  1  -0.067754  -0.081961  0.001166  3.901019  0.001
C  C37  1  0.10163337  0.10746102  0.07500849  1  -0.021238  -0.067347  -2.6e-05  4.00927  0.0
C  C38  1  0.89836504  0.89253482  0.92499605  1  -0.02124  -0.067603  -2.6e-05  4.009309  0.0
C  C39  1  0.27588742  0.06082738  0.04698645  1  0.242677  0.585908  -8.9e-05  4.09658  0.0
C  C40  1  0.72411408  0.93916310  0.95302368  1  0.242679  0.586038  -8.9e-05  4.09666  0.0
C  C41  1  0.01829391  0.18462767  0.97987888  1  -0.073209  -0.064131  0.000975  3.943229  0.001
C  C42  1  0.98171085  0.81536612  0.02012553  1  -0.073114  -0.06402  0.000976  3.942877  0.001
C  C43  1  0.85490556  0.23633208  0.00934135  1  -0.087265  -0.132683  -0.000188  3.943686  0.0
C  C44  1  0.14510100  0.76366286  0.99065880  1  -0.087294  -0.132675  -0.000188  3.943576  0.0
C  C45  1  0.76824656  0.21040119  0.13233909  1  0.014917  0.077045  0.00078  3.930434  0.001
C  C46  1  0.23175588  0.78959583  0.86766073  1  0.014926  0.077125  0.00078  3.930537  0.001
C  C47  1  0.59712421  0.28362349  0.16277334  1  -0.009172  0.056512  2.6e-05  3.98959  0.0
C  C48  1  0.40287594  0.71637674  0.83722378  1  -0.009127  0.056415  2.6e-05  3.989711  0.0
C  C49  1  0.52269043  0.33821107  0.28596309  1  -0.082201  -0.09419  5.2e-05  3.945845  0.0
C  C50  1  0.47730894  0.66179449  0.71403368  1  -0.082183  -0.094073  5.2e-05  3.945687  0.0
C  C51  1  0.36282289  0.41135152  0.31333972  1  -0.084455  -0.099375  -2.1e-05  3.943413  0.0
C  C52  1  0.63717944  0.58865518  0.68665540  1  -0.084483  -0.099502  -2.1e-05  3.943345  0.0
C  C53  1  0.27056491  0.43524573  0.21806047  1  -0.00659  0.060708  -3.1e-05  3.989402  0.0
C  C54  1  0.72943781  0.56475669  0.78193498  1  -0.006611  0.060792  -3.1e-05  3.989349  0.0
C  C55  1  0.34557667  0.38197864  0.09422156  1  -0.092641  -0.122721  -5.7e-05  3.970183  0.0
C  C56  1  0.65442423  0.61801946  0.90577562  1  -0.092652  -0.122809  -5.7e-05  3.9701  0.0
C  C57  1  0.50544020  0.30819495  0.06690440  1  -0.090902  -0.117136  2.6e-05  3.961706  0.0
C  C58  1  0.49456036  0.69180098  0.93309401  1  -0.090862  -0.116919  2.6e-05  3.961453  0.0
C  C59  1  0.09910372  0.50696058  0.24717272  1  0.014759  0.076701  -6e-05  3.934293  0.0
C  C60  1  0.90089751  0.49304288  0.75282293  1  0.014762  0.076615  -6e-05  3.934415  0.0
C  C61  1  0.02529088  0.61837614  0.33521781  1  -0.011711  -0.091083  -5e-06  3.931478  0.0
C  C62  1  0.97470813  0.38162728  0.66477923  1  -0.011718  -0.09108  -5e-06  3.931535  0.0
C  C63  1  0.11336265  0.70177712  0.37958984  1  0.242128  0.599984  2.4e-05  4.112608  0.0
C  C64  1  0.88663822  0.29822740  0.62040672  1  0.24217  0.600029  2.5e-05  4.11251  0.0
C  C65  1  0.86090957  0.67233132  0.36674722  1  -0.069841  -0.098618  0.000173  3.922063  0.0
C  C66  1  0.13909058  0.32767209  0.63325149  1  -0.069822  -0.098589  0.000173  3.921924  0.0
C  C67  1  0.76700723  0.62631925  0.30371849  1  -0.020647  -0.051877  1.9e-05  4.009019  0.0
C  C68  1  0.23299482  0.37368204  0.69628195  1  -0.020653  -0.051923  1.9e-05  4.008933  0.0
C  C69  1  0.59385619  0.69299693  0.33266508  1  0.232895  0.588187  5.3e-05  4.103141  0.0
C  C70  1  0.40614735  0.30700012  0.66733358  1  0.232929  0.588211  5.3e-05  4.103099  0.0
C  C71  1  0.83887813  0.51959267  0.21354575  1  -0.078879  -0.08056  -5.3e-05  3.96413  0.0
C  C72  1  0.16112094  0.48040751  0.78645444  1  -0.078868  -0.080575  -5.3e-05  3.964116  0.0
C  C73  1  0.00140818  0.45935905  0.18879377  1  -0.087144  -0.120663  7e-06  3.955703  0.0
C  C74  1  0.99859160  0.54064223  0.81120428  1  -0.087139  -0.120605  7e-06  3.955641  0.0
O  O75  1  0.65262463  0.03126115  0.35004356  1  -0.293337  -0.50669  0.024532  2.394088  0.025
O  O76  1  0.34737255  0.96874114  0.64995585  1  -0.29335  -0.506675  0.024532  2.394174  0.025
O  O77  1  0.83207974  0.06359719  0.45161125  1  -0.296909  -0.534874  0.001347  2.287396  0.002
O  O78  1  0.16791112  0.93640711  0.54839018  1  -0.29687  -0.534869  0.001347  2.287348  0.002
O  O79  1  0.35624818  0.00363433  0.13197753  1  -0.28023  -0.510837  -0.000133  2.241243  0.0
O  O80  1  0.64375137  0.99636150  0.86802867  1  -0.280166  -0.510765  -0.000133  2.241091  0.0
O  O81  1  0.33953283  0.08476220  0.92527341  1  -0.311418  -0.45339  -2.9e-05  2.36873  0.0
O  O82  1  0.66046745  0.91522514  0.07472873  1  -0.311507  -0.453548  -2.9e-05  2.368854  0.0
O  O83  1  0.21585333  0.74285144  0.30179321  1  -0.288946  -0.522716  1.9e-05  2.24807  0.0
O  O84  1  0.78414462  0.25715191  0.69820784  1  -0.288961  -0.522711  1.9e-05  2.247926  0.0
O  O85  1  0.06272401  0.73796077  0.50207714  1  -0.319234  -0.463183  -0.000114  2.305434  0.0
O  O86  1  0.93727239  0.26204367  0.49792033  1  -0.319305  -0.463249  -0.000114  2.305465  0.0
O  O87  1  0.52280377  0.76614868  0.42780026  1  -0.284128  -0.534047  0.00067  2.293744  0.001
O  O88  1  0.47719312  0.23385461  0.57220480  1  -0.284139  -0.534001  0.00067  2.293893  0.001
O  O89  1  0.52163770  0.66515621  0.24608398  1  -0.328149  -0.479235  9.4e-05  2.338527  0.0
O  O90  1  0.47836327  0.33484503  0.75391857  1  -0.328188  -0.47927  9.4e-05  2.338418  0.0
O  O91  1  0.33676025  0.07341097  0.39573692  1  -0.550576  -0.710268  -0.022682  2.238818  -0.023
O  O92  1  0.66323548  0.92658914  0.60426394  1  -0.550501  -0.710177  -0.022682  2.238932  -0.023
