# generated using pymatgen
data_CdH18C24N9O5
_symmetry_space_group_name_H-M   'P 1'
_cell_length_a   8.27684806
_cell_length_b   9.14601177
_cell_length_c   19.64000000
_cell_angle_alpha   95.38944292
_cell_angle_beta   99.98377994
_cell_angle_gamma   106.41684600
_symmetry_Int_Tables_number   1
_chemical_formula_structural   CdH18C24N9O5
_chemical_formula_sum   'Cd2 H36 C48 N18 O10'
_cell_volume   1388.37450482
_cell_formula_units_Z   2
loop_
 _symmetry_equiv_pos_site_id
 _symmetry_equiv_pos_as_xyz
  1  'x, y, z'
loop_
 _atom_site_type_symbol
 _atom_site_label
 _atom_site_symmetry_multiplicity
 _atom_site_fract_x
 _atom_site_fract_y
 _atom_site_fract_z
 _atom_site_occupancy
 _atom_site_hle17_bader_spin_density
 _atom_site_hle17_ddec_charge
 _atom_site_hle17_ddec_spin_density
 _atom_site_hle17_ddec_sum_bond_order
 _atom_site_hle17_magmom
 _atom_site_hse06_10hf_bader_spin_density
 _atom_site_hse06_10hf_ddec_charge
 _atom_site_hse06_10hf_ddec_spin_density
 _atom_site_hse06_10hf_ddec_sum_bond_order
 _atom_site_hse06_10hf_magmom
 _atom_site_hse06_bader_spin_density
 _atom_site_hse06_ddec_charge
 _atom_site_hse06_ddec_spin_density
 _atom_site_hse06_ddec_sum_bond_order
 _atom_site_hse06_magmom
 _atom_site_pbe_bader_charge
 _atom_site_pbe_bader_spin_density
 _atom_site_pbe_cm5_charge
 _atom_site_pbe_ddec_charge
 _atom_site_pbe_ddec_spin_density
 _atom_site_pbe_ddec_sum_bond_order
 _atom_site_pbe_magmom
Cd  Cd0  1  0.34985206  0.38198578  0.30335800  1  0  1.068485  0  1.712249  0  0  0.863479  0  2.157082  0  0  0.919987  0  2.109326  0  1.254789  0  0.783154  0.823404  0  2.189674  0
Cd  Cd1  1  0.65014442  0.61801361  0.69664171  1  0  1.068478  0  1.712201  0  0  0.863465  0  2.157017  0  0  0.919974  0  2.109266  0  1.254706  0  0.783145  0.823389  0  2.189607  0
H  H2  1  0.53271332  0.93836996  0.37817177  1  0  0.096743  0  0.967517  0  0  0.103223  0  1.035699  0  0  0.10644  0  1.03397  0  0.075345  0  0.098528  0.100842  0  1.037105  0
H  H3  1  0.46728522  0.06162828  0.62182703  1  0  0.096732  0  0.967444  0  0  0.103182  0  1.03566  0  0  0.106398  0  1.03393  0  0.075377  0  0.098528  0.100803  0  1.037061  0
H  H4  1  0.39401746  0.22116071  0.53120222  1  0  0.102243  0  0.953087  0  0  0.10937  0  1.020333  0  0  0.113093  0  1.017675  0  0.094799  0  0.101081  0.106661  0  1.022336  0
H  H5  1  0.60598069  0.77883638  0.46879701  1  0  0.102255  0  0.953042  0  0  0.109357  0  1.020318  0  0  0.113087  0  1.01765  0  0.094806  0  0.101067  0.106646  0  1.022322  0
H  H6  1  0.77164459  0.81361897  0.85819565  1  0  0.092741  0  1.009764  0  0  0.08909  0  1.0948  0  0  0.093897  0  1.088361  0  0.227107  0  0.12749  0.085605  0  1.099317  0
H  H7  1  0.22835023  0.18638273  0.14180201  1  0  0.092699  0  1.009791  0  0  0.089066  0  1.094813  0  0  0.093874  0  1.088374  0  0.227158  0  0.127486  0.085583  0  1.099329  0
H  H8  1  0.27445303  0.62862574  0.90258708  1  0  0.111517  0  0.949937  0  0  0.124809  0  1.004758  0  0  0.127506  0  1.003589  0  0.113793  0  0.123632  0.122884  0  1.005671  0
H  H9  1  0.72554669  0.37137596  0.09741552  1  0  0.111507  0  0.950006  0  0  0.124813  0  1.004811  0  0  0.127511  0  1.003642  0  0.113062  0  0.123613  0.122887  0  1.005723  0
H  H10  1  0.44023712  0.66625422  0.01898762  1  0  0.10312  0  0.941331  0  0  0.116379  0  0.994823  0  0  0.119589  0  0.99349  0  0.075752  0  0.107049  0.114088  0  0.995852  0
H  H11  1  0.55976177  0.33374864  0.98101192  1  0  0.103098  0  0.941308  0  0  0.116348  0  0.994814  0  0  0.119556  0  0.993483  0  0.075767  0  0.107045  0.114058  0  0.995842  0
H  H12  1  0.56587852  0.80791104  0.13859138  1  0  0.11314  0  0.947149  0  0  0.123674  0  1.005112  0  0  0.126996  0  1.002686  0  0.104286  0  0.111064  0.121203  0  1.006968  0
H  H13  1  0.43412233  0.19209758  0.86140855  1  0  0.113114  0  0.94716  0  0  0.12366  0  1.005108  0  0  0.12698  0  1.002683  0  0.103753  0  0.111068  0.121193  0  1.006962  0
H  H14  1  0.91408447  0.15936753  0.05637271  1  0  0.095427  0  0.94378  0  0  0.10673  0  1.001207  0  0  0.109762  0  0.999635  0  0.088805  0  0.105313  0.104507  0  1.002422  0
H  H15  1  0.08591647  0.84063417  0.94362488  1  0  0.095393  0  0.943809  0  0  0.106676  0  1.001269  0  0  0.109708  0  0.999698  0  0.088818  0  0.105303  0.104464  0  1.00247  0
H  H16  1  0.75966968  0.36963014  0.33151557  1  0  0.092526  0  0.965816  0  0  0.100883  0  1.035249  0  0  0.10335  0  1.033735  0  0.091009  0  0.101738  0.099095  0  1.036366  0
H  H17  1  0.24033426  0.63036233  0.66848286  1  0  0.092484  0  0.9658  0  0  0.10085  0  1.035234  0  0  0.103316  0  1.03372  0  0.090887  0  0.101727  0.099064  0  1.03635  0
H  H18  1  0.73613290  0.44504854  0.45002388  1  0  0.117773  0  0.950735  0  0  0.128511  0  1.01064  0  0  0.131816  0  1.008645  0  0.103794  0  0.112218  0.126131  0  1.012189  0
H  H19  1  0.26387055  0.55494971  0.54997426  1  0  0.117765  0  0.950716  0  0  0.128502  0  1.010627  0  0  0.131815  0  1.008613  0  0.103734  0  0.112215  0.126118  0  1.012184  0
H  H20  1  0.04841146  0.16197473  0.52606928  1  0  0.112486  0  0.954872  0  0  0.12252  0  1.017163  0  0  0.125627  0  1.015661  0  0.094423  0  0.110263  0.120187  0  1.018511  0
H  H21  1  0.95158669  0.83802236  0.47393250  1  0  0.112523  0  0.954862  0  0  0.122561  0  1.017139  0  0  0.125665  0  1.015642  0  0.094554  0  0.110291  0.120229  0  1.018487  0
H  H22  1  0.06982341  0.08572033  0.40497252  1  0  0.102016  0  0.937228  0  0  0.114654  0  0.993109  0  0  0.116914  0  0.992357  0  0.083616  0  0.108832  0.112947  0  0.993797  0
H  H23  1  0.93017681  0.91427561  0.59503139  1  0  0.101989  0  0.937223  0  0  0.11464  0  0.993091  0  0  0.1169  0  0.992338  0  0.083676  0  0.108816  0.112948  0  0.993761  0
H  H24  1  0.01773946  0.22729067  0.62754718  1  0  0.120587  0  1.008297  0  0  0.124514  0  1.077847  0  0  0.128709  0  1.073866  0  0.178957  0  0.118534  0.121447  0  1.080804  0
H  H25  1  0.98226193  0.77270872  0.37245493  1  0  0.120504  0  1.008388  0  0  0.124471  0  1.077903  0  0  0.128668  0  1.073919  0  0.178963  0  0.118511  0.121403  0  1.080862  0
H  H26  1  0.89349657  0.35075710  0.73351417  1  0  0.101166  0  0.935312  0  0  0.11633  0  0.983994  0  0  0.118701  0  0.9831  0  0.10246  0  0.118621  0.114635  0  0.984735  0
H  H27  1  0.10650393  0.64924691  0.26648655  1  0  0.101152  0  0.93529  0  0  0.116311  0  0.983979  0  0  0.118682  0  0.983087  0  0.102331  0  0.118621  0.114618  0  0.984721  0
H  H28  1  0.69593391  0.48842184  0.54672122  1  0  0.115096  0  0.948226  0  0  0.12415  0  1.009835  0  0  0.127591  0  1.00496  0  0.188687  0  0.141948  0.121592  0  1.013373  0
H  H29  1  0.30406832  0.51157640  0.45327887  1  0  0.115116  0  0.948146  0  0  0.124167  0  1.009774  0  0  0.127608  0  1.004899  0  0.188596  0  0.14195  0.121613  0  1.013307  0
H  H30  1  0.28106673  0.50192252  0.76927942  1  0  0.10546  0  0.957223  0  0  0.11358  0  1.019703  0  0  0.115653  0  1.019225  0  0.118798  0  0.120564  0.112021  0  1.020213  0
H  H31  1  0.71892970  0.49808034  0.23072197  1  0  0.105521  0  0.957206  0  0  0.11366  0  1.019662  0  0  0.115734  0  1.01918  0  0.11885  0  0.12061  0.112097  0  1.020179  0
H  H32  1  0.78115640  0.02111240  0.93572700  1  0  0.11541  0  0.929976  0  0  0.1303  0  0.979604  0  0  0.133272  0  0.97868  0  0.085794  0  0.115268  0.128152  0  0.980401  0
H  H33  1  0.21884828  0.97888584  0.06427123  1  0  0.115368  0  0.929974  0  0  0.130181  0  0.979702  0  0  0.133151  0  0.97878  0  0.085805  0  0.115223  0.128044  0  0.980485  0
H  H34  1  0.58546938  0.92080109  0.25157758  1  0  0.281817  0  0.952573  0  0  0.266313  0  1.029111  0  0  0.273343  0  1.020869  0  0.482648  0  0.28711  0.261149  0  1.035123  0
H  H35  1  0.41453113  0.07920292  0.74842111  1  0  0.281778  0  0.952606  0  0  0.266285  0  1.029131  0  0  0.273312  0  1.020895  0  0.482607  0  0.287103  0.26112  0  1.035144  0
H  H36  1  0.57686425  0.09748211  0.27589477  1  0  0.302324  0  0.933031  0  0  0.288109  0  1.003042  0  0  0.29471  0  0.997187  0  0.481816  0  0.292549  0.283337  0  1.007274  0
H  H37  1  0.42313792  0.90251959  0.72410393  1  0  0.302343  0  0.932994  0  0  0.288119  0  1.003037  0  0  0.294722  0  0.997177  0  0.481754  0  0.292551  0.283346  0  1.007269  0
C  C38  1  0.42282580  0.18757506  0.39582173  1  0  0.617102  0  3.957599  0  0  0.568113  0  4.246718  0  0  0.60201  0  4.241307  0  1.515418  0  0.185846  0.545213  0  4.249352  0
C  C39  1  0.57717191  0.81242434  0.60417756  1  0  0.617166  0  3.957537  0  0  0.568192  0  4.24661  0  0  0.602088  0  4.241199  0  1.515287  0  0.185889  0.545292  0  4.249245  0
C  C40  1  0.45865764  0.08844975  0.44921453  1  0  -0.066595  0  3.768288  0  0  -0.041771  0  3.9987  0  0  -0.048718  0  4.021324  0  -0.038245  0  -0.020856  -0.037188  0  3.983332  0
C  C41  1  0.54134576  0.91155195  0.55078528  1  0  -0.066633  0  3.768253  0  0  -0.041776  0  3.998612  0  0  -0.048723  0  4.021237  0  -0.038235  0  -0.020823  -0.037194  0  3.983246  0
C  C42  1  0.51785623  0.96368201  0.43153403  1  0  -0.060372  0  3.722598  0  0  -0.085549  0  3.975927  0  0  -0.086365  0  3.99714  0  -0.035461  0  -0.088077  -0.084876  0  3.96154  0
C  C43  1  0.48214555  0.03631854  0.56846511  1  0  -0.060363  0  3.72254  0  0  -0.085542  0  3.975909  0  0  -0.086352  0  3.997114  0  -0.035771  0  -0.088133  -0.084869  0  3.961524  0
C  C44  1  0.44018244  0.12397380  0.51799587  1  0  -0.077491  0  3.725505  0  0  -0.102898  0  3.980698  0  0  -0.103885  0  4.000614  0  -0.007401  0  -0.090116  -0.102121  0  3.967154  0
C  C45  1  0.55981934  0.87602675  0.48200327  1  0  -0.077508  0  3.725418  0  0  -0.102898  0  3.98059  0  0  -0.103891  0  4.000506  0  -0.007444  0  -0.090135  -0.102121  0  3.967047  0
C  C46  1  0.63669499  0.74745779  0.85207543  1  0  0.175627  0  3.633529  0  0  0.110687  0  3.891013  0  0  0.124974  0  3.901116  0  0.933287  0  0.143325  0.101514  0  3.883855  0
C  C47  1  0.36330351  0.25254391  0.14792403  1  0  0.175706  0  3.633576  0  0  0.110737  0  3.891053  0  0  0.125025  0  3.901156  0  0.933216  0  0.14337  0.101563  0  3.883894  0
C  C48  1  0.37732856  0.64582446  0.87404104  1  0  -0.069895  0  3.683957  0  0  -0.119045  0  3.943233  0  0  -0.118512  0  3.961635  0  0.30896  0  -0.003126  -0.119378  0  3.930868  0
C  C49  1  0.62267318  0.35417954  0.12596028  1  0  -0.069853  0  3.684041  0  0  -0.119039  0  3.9433  0  0  -0.118509  0  3.961704  0  0.309725  0  -0.003092  -0.119371  0  3.930935  0
C  C50  1  0.60391466  0.83395071  0.97008116  1  0  0.195174  0  3.777161  0  0  0.171647  0  4.035228  0  0  0.177938  0  4.058125  0  0.305858  0  0.097667  0.16746  0  4.019721  0
C  C51  1  0.39609326  0.16604984  0.02992046  1  0  0.195115  0  3.77722  0  0  0.171569  0  4.035279  0  0  0.17786  0  4.058175  0  0.306386  0  0.097664  0.167381  0  4.019774  0
C  C52  1  0.54127815  0.77639985  0.02704252  1  0  -0.157829  0  3.756515  0  0  -0.176041  0  4.014311  0  0  -0.180843  0  4.034705  0  -0.058219  0  -0.093435  -0.172879  0  4.000515  0
C  C53  1  0.45872236  0.22360416  0.97295820  1  0  -0.157771  0  3.756532  0  0  -0.175971  0  4.014357  0  0  -0.180773  0  4.03475  0  -0.058624  0  -0.09345  -0.17281  0  4.000562  0
C  C54  1  0.61275356  0.85617471  0.09454524  1  0  -0.06998  0  3.718341  0  0  -0.094409  0  3.967347  0  0  -0.093709  0  3.985887  0  0.000774  0  -0.080264  -0.094682  0  3.954835  0
C  C55  1  0.38724818  0.14382930  0.90545506  1  0  -0.069993  0  3.718314  0  0  -0.094421  0  3.967317  0  0  -0.093722  0  3.985856  0  0.001105  0  -0.080244  -0.094702  0  3.954811  0
C  C56  1  0.74968564  0.99380255  0.10575545  1  0  0.011254  0  3.800109  0  0  0.026375  0  4.042909  0  0  0.023608  0  4.065328  0  0.006481  0  -0.005306  0.027915  0  4.027841  0
C  C57  1  0.25031486  0.00620146  0.89424374  1  0  0.011172  0  3.800161  0  0  0.026315  0  4.042958  0  0  0.02355  0  4.065374  0  0.006511  0  -0.005341  0.027854  0  4.027895  0
C  C58  1  0.80896468  0.05175876  0.04771325  1  0  -0.082084  0  3.756995  0  0  -0.10547  0  4.009028  0  0  -0.106039  0  4.029871  0  -0.062406  0  -0.084199  -0.10482  0  3.994847  0
C  C59  1  0.19103912  0.94824409  0.95228562  1  0  -0.08197  0  3.757005  0  0  -0.105319  0  4.009009  0  0  -0.105889  0  4.029855  0  -0.06251  0  -0.084168  -0.104679  0  3.994828  0
C  C60  1  0.92017219  0.17268026  0.28676028  1  0  0.261045  0  3.69976  0  0  0.219367  0  3.973024  0  0  0.234934  0  3.987313  0  0.929968  0  0.233031  0.208994  0  3.963382  0
C  C61  1  0.07982763  0.82731452  0.71324050  1  0  0.261141  0  3.699743  0  0  0.219342  0  3.973163  0  0  0.234919  0  3.987441  0  0.930055  0  0.233004  0.208967  0  3.963522  0
C  C62  1  0.84328109  0.07534459  0.17505966  1  0  0.22654  0  3.768834  0  0  0.189013  0  4.046238  0  0  0.201894  0  4.061122  0  0.960136  0  0.217331  0.180593  0  4.036129  0
C  C63  1  0.15671775  0.92466172  0.82493900  1  0  0.226617  0  3.768806  0  0  0.189036  0  4.046262  0  0  0.201913  0  4.061152  0  0.960124  0  0.217345  0.180614  0  4.036154  0
C  C64  1  0.91199804  0.21822257  0.35931339  1  0  -0.01685  0  3.808056  0  0  0.00076  0  4.051285  0  0  -0.003923  0  4.073707  0  0.000668  0  -0.010997  0.003682  0  4.036193  0
C  C65  1  0.08799526  0.78177106  0.64068636  1  0  -0.016923  0  3.808158  0  0  0.000743  0  4.051379  0  0  -0.003944  0  4.073803  0  0.000858  0  -0.011023  0.003664  0  4.036291  0
C  C66  1  0.82053978  0.32091100  0.37347810  1  0  -0.064457  0  3.743866  0  0  -0.089591  0  3.998028  0  0  -0.088106  0  4.017442  0  0.031593  0  -0.08422  -0.090359  0  3.984897  0
C  C67  1  0.17945999  0.67908724  0.62652282  1  0  -0.064384  0  3.743877  0  0  -0.089548  0  3.998041  0  0  -0.088061  0  4.017455  0  0.031497  0  -0.084178  -0.090314  0  3.984908  0
C  C68  1  0.80821264  0.36497156  0.44141908  1  0  -0.142636  0  3.729794  0  0  -0.167001  0  3.990947  0  0  -0.172401  0  4.01126  0  -0.007605  0  -0.08862  -0.163587  0  3.977436  0
C  C69  1  0.19179042  0.63502553  0.55858203  1  0  -0.142639  0  3.729636  0  0  -0.167004  0  3.990817  0  0  -0.172402  0  4.011131  0  -0.007614  0  -0.088631  -0.163591  0  3.977303  0
C  C70  1  0.88528310  0.30434879  0.49646313  1  0  0.197191  0  3.761094  0  0  0.186289  0  4.011008  0  0  0.193843  0  4.033145  0  0.266661  0  0.105246  0.181338  0  3.995971  0
C  C71  1  0.11471259  0.69564829  0.50353642  1  0  0.197217  0  3.761127  0  0  0.186318  0  4.011035  0  0  0.193871  0  4.033172  0  0.266746  0  0.105281  0.181365  0  3.995999  0
C  C72  1  0.98245696  0.20580351  0.48345222  1  0  -0.144219  0  3.689353  0  0  -0.163504  0  3.942191  0  0  -0.168985  0  3.962465  0  0.02449  0  -0.085815  -0.159923  0  3.92861  0
C  C73  1  0.01753918  0.79419127  0.51654880  1  0  -0.144307  0  3.689321  0  0  -0.163596  0  3.942175  0  0  -0.169076  0  3.96245  0  0.024295  0  -0.085894  -0.160018  0  3.928601  0
C  C74  1  0.99553286  0.16336539  0.41509363  1  0  -0.038316  0  3.701136  0  0  -0.06296  0  3.952856  0  0  -0.061314  0  3.971863  0  -0.02735  0  -0.071639  -0.06381  0  3.939929  0
C  C75  1  0.00446328  0.83662939  0.58490637  1  0  -0.038229  0  3.701153  0  0  -0.062882  0  3.952859  0  0  -0.061235  0  3.971865  0  -0.027378  0  -0.071576  -0.063747  0  3.939939  0
C  C76  1  0.93040406  0.29633464  0.62596578  1  0  -0.048959  0  3.649823  0  0  -0.091469  0  3.913972  0  0  -0.089722  0  3.931564  0  0.312186  0  0.001374  -0.092563  0  3.902207  0
C  C77  1  0.06960297  0.70367052  0.37403445  1  0  -0.048817  0  3.649805  0  0  -0.091361  0  3.913941  0  0  -0.089612  0  3.931531  0  0.312385  0  0.001408  -0.092456  0  3.902176  0
C  C78  1  0.87132708  0.36127467  0.67842674  1  0  0.001445  0  3.76573  0  0  -0.032166  0  4.032766  0  0  -0.030545  0  4.053579  0  0.369189  0  -0.00569  -0.033246  0  4.018588  0
C  C79  1  0.12867470  0.63872588  0.32157392  1  0  0.001422  0  3.765697  0  0  -0.032184  0  4.032755  0  0  -0.030564  0  4.053567  0  0.36914  0  -0.0057  -0.033265  0  4.018578  0
C  C80  1  0.76553420  0.43371687  0.58267994  1  0  0.182728  0  3.627123  0  0  0.119292  0  3.895516  0  0  0.134067  0  3.908187  0  0.942067  0  0.148446  0.10976  0  3.886578  0
C  C81  1  0.23446635  0.56628368  0.41731961  1  0  0.182744  0  3.627149  0  0  0.11929  0  3.895559  0  0  0.134065  0  3.908233  0  0.942269  0  0.148456  0.109758  0  3.886622  0
C  C82  1  0.38242071  0.58530548  0.80811278  1  0  0.016884  0  3.747668  0  0  -0.021296  0  4.022789  0  0  -0.018097  0  4.0425  0  0.390333  0  -0.000704  -0.023483  0  4.009589  0
C  C83  1  0.61757778  0.41469622  0.19188871  1  0  0.016773  0  3.747765  0  0  -0.021411  0  4.022873  0  0  -0.018213  0  4.042591  0  0.390141  0  -0.000794  -0.0236  0  4.009671  0
C  C84  1  0.73633997  0.97384557  0.98037235  1  0  -0.152338  0  3.755426  0  0  -0.170298  0  4.011164  0  0  -0.175471  0  4.033306  0  0.052329  0  -0.089321  -0.166917  0  3.996242  0
C  C85  1  0.26366672  0.02615497  0.01962715  1  0  -0.152332  0  3.755439  0  0  -0.170245  0  4.011195  0  0  -0.175418  0  4.033337  0  0.052485  0  -0.08932  -0.166873  0  3.996275  0
N  N86  1  0.54496955  0.64918464  0.79543021  1  0  -0.360418  0  3.255663  0  0  -0.281454  0  3.537574  0  0  -0.302638  0  3.553877  0  -1.197538  0  -0.349953  -0.267047  0  3.526114  0
N  N87  1  0.45502733  0.35081591  0.20456907  1  0  -0.360467  0  3.255716  0  0  -0.281524  0  3.537672  0  0  -0.302709  0  3.553974  0  -1.197481  0  -0.349967  -0.267116  0  3.526214  0
N  N88  1  0.54000728  0.74891648  0.90174655  1  0  -0.091921  0  3.602346  0  0  0.020618  0  3.789422  0  0  0.006464  0  3.813433  0  -1.263474  0  -0.22489  0.030028  0  3.772925  0
N  N89  1  0.45999406  0.25108637  0.09825469  1  0  -0.091855  0  3.602474  0  0  0.020741  0  3.789504  0  0  0.006587  0  3.813516  0  -1.263508  0  -0.224853  0.030151  0  3.773007  0
N  N90  1  0.05843057  0.21086108  0.25823130  1  0  -0.292557  0  3.11428  0  0  -0.240025  0  3.406965  0  0  -0.256288  0  3.422146  0  -0.703111  0  -0.230715  -0.228916  0  3.396487  0
N  N91  1  0.94157210  0.78913486  0.74177075  1  0  -0.292564  0  3.114283  0  0  -0.239988  0  3.406981  0  0  -0.256254  0  3.422159  0  -0.703089  0  -0.230664  -0.228878  0  3.396504  0
N  N92  1  0.01134221  0.14868853  0.18895543  1  0  -0.283568  0  3.002234  0  0  -0.263306  0  3.283054  0  0  -0.273092  0  3.297851  0  -0.729816  0  -0.231886  -0.256648  0  3.272924  0
N  N93  1  0.98865742  0.85132009  0.81104492  1  0  -0.283585  0  3.00221  0  0  -0.263307  0  3.283031  0  0  -0.273091  0  3.29783  0  -0.729849  0  -0.231908  -0.256649  0  3.272902  0
N  N94  1  0.78072630  0.08807730  0.23503801  1  0  0.00941  0  3.54043  0  0  0.090796  0  3.766862  0  0  0.07711  0  3.790102  0  -0.8514  0  -0.131119  0.099496  0  3.751113  0
N  N95  1  0.21927553  0.91191979  0.76496098  1  0  0.009283  0  3.540534  0  0  0.09073  0  3.766993  0  0  0.077042  0  3.790234  0  -0.851389  0  -0.131135  0.099432  0  3.751241  0
N  N96  1  0.60712328  0.03016090  0.23791762  1  0  -0.521385  0  2.908139  0  0  -0.531615  0  3.155508  0  0  -0.54069  0  3.153061  0  -0.774812  0  -0.505273  -0.524539  0  3.157149  0
N  N97  1  0.39287806  0.96984195  0.76208107  1  0  -0.52129  0  2.908127  0  0  -0.531546  0  3.155504  0  0  -0.540621  0  3.153059  0  -0.774723  0  -0.50528  -0.52447  0  3.157145  0
N  N98  1  0.86264973  0.34334371  0.56509502  1  0  -0.090313  0  3.592363  0  0  0.001838  0  3.799403  0  0  -0.014446  0  3.826254  0  -1.248755  0  -0.219168  0.012602  0  3.7811  0
N  N99  1  0.13735205  0.65665683  0.43490564  1  0  -0.090354  0  3.592432  0  0  0.00181  0  3.799485  0  0  -0.014476  0  3.826338  0  -1.248755  0  -0.219163  0.012575  0  3.781182  0
N  N100  1  0.76937656  0.44670787  0.65076565  1  0  -0.387564  0  3.298436  0  0  -0.308784  0  3.582914  0  0  -0.331519  0  3.602832  0  -1.194039  0  -0.361088  -0.293162  0  3.568758  0
N  N101  1  0.23062483  0.55329152  0.34923544  1  0  -0.3876  0  3.298497  0  0  -0.308813  0  3.582977  0  0  -0.331549  0  3.602895  0  -1.194179  0  -0.361113  -0.293193  0  3.568826  0
N  N102  1  0.63803501  0.70924353  0.31634963  1  0  0.690159  0  4.14353  0  0  0.733077  0  4.420878  0  0  0.761766  0  4.426356  0  0.803748  0  0.095265  0.713799  0  4.416636  0
N  N103  1  0.36196309  0.29075702  0.68364873  1  0  0.690432  0  4.14334  0  0  0.733221  0  4.420835  0  0  0.761911  0  4.42631  0  0.803737  0  0.095361  0.713942  0  4.416593  0
O  O104  1  0.42161941  0.14628889  0.33178978  1  0  -0.649914  0  1.974728  0  0  -0.58641  0  2.20557  0  0  -0.614016  0  2.197468  0  -1.182579  0  -0.336259  -0.566952  0  2.21039  0
O  O105  1  0.57837143  0.85370473  0.66820927  1  0  -0.649967  0  1.974779  0  0  -0.586456  0  2.205615  0  0  -0.614063  0  2.197512  0  -1.182548  0  -0.336274  -0.566998  0  2.210434  0
O  O106  1  0.39631962  0.31407879  0.41658937  1  0  -0.637777  0  1.975252  0  0  -0.573178  0  2.21824  0  0  -0.602333  0  2.21024  0  -1.162376  0  -0.332769  -0.552677  0  2.222862  0
O  O107  1  0.60367809  0.68592061  0.58340738  1  0  -0.637771  0  1.975141  0  0  -0.573218  0  2.218182  0  0  -0.602377  0  2.210187  0  -1.162291  0  -0.332771  -0.552708  0  2.222786  0
O  O108  1  0.63187421  0.59009783  0.34651454  1  0  -0.490181  0  1.779247  0  0  -0.469354  0  2.006745  0  0  -0.488162  0  1.999066  0  -0.573212  0  -0.200481  -0.456019  0  2.011521  0
O  O109  1  0.36812390  0.40990272  0.65348432  1  0  -0.490251  0  1.779216  0  0  -0.469355  0  2.006726  0  0  -0.488175  0  1.999068  0  -0.573279  0  -0.200513  -0.45603  0  2.011522  0
O  O110  1  0.52057277  0.70301670  0.26404302  1  0  -0.481489  0  1.726125  0  0  -0.474722  0  1.924367  0  0  -0.489713  0  1.917341  0  -0.551533  0  -0.201471  -0.464077  0  1.928936  0
O  O111  1  0.47942533  0.29698384  0.73595635  1  0  -0.481655  0  1.726045  0  0  -0.474882  0  1.924358  0  0  -0.489872  0  1.917331  0  -0.551486  0  -0.201557  -0.464237  0  1.928932  0
O  O112  1  0.76061900  0.83171251  0.33877823  1  0  -0.455485  0  1.768804  0  0  -0.452126  0  1.977297  0  0  -0.465982  0  1.971662  0  -0.531251  0  -0.185003  -0.442358  0  1.98093  0
O  O113  1  0.23938239  0.16828689  0.66121930  1  0  -0.455571  0  1.768884  0  0  -0.452116  0  1.977364  0  0  -0.465969  0  1.971724  0  -0.531254  0  -0.184978  -0.442346  0  1.980998  0
