# generated using pymatgen
data_NdH4(C3O4)2
_symmetry_space_group_name_H-M   'P 1'
_cell_length_a   6.97067670
_cell_length_b   7.08329475
_cell_length_c   16.82335993
_cell_angle_alpha   90.00016540
_cell_angle_beta   89.99986225
_cell_angle_gamma   100.85313777
_symmetry_Int_Tables_number   1
_chemical_formula_structural   NdH4(C3O4)2
_chemical_formula_sum   'Nd4 H16 C24 O32'
_cell_volume   815.80144694
_cell_formula_units_Z   4
loop_
 _symmetry_equiv_pos_site_id
 _symmetry_equiv_pos_as_xyz
  1  'x, y, z'
loop_
 _atom_site_type_symbol
 _atom_site_label
 _atom_site_symmetry_multiplicity
 _atom_site_fract_x
 _atom_site_fract_y
 _atom_site_fract_z
 _atom_site_occupancy
 _atom_site_hle17_bader_spin_density
 _atom_site_hle17_ddec_charge
 _atom_site_hle17_ddec_spin_density
 _atom_site_hle17_ddec_sum_bond_order
 _atom_site_hle17_magmom
 _atom_site_hse06_10hf_bader_spin_density
 _atom_site_hse06_10hf_ddec_charge
 _atom_site_hse06_10hf_ddec_spin_density
 _atom_site_hse06_10hf_ddec_sum_bond_order
 _atom_site_hse06_10hf_magmom
 _atom_site_hse06_bader_spin_density
 _atom_site_hse06_ddec_charge
 _atom_site_hse06_ddec_spin_density
 _atom_site_hse06_ddec_sum_bond_order
 _atom_site_hse06_magmom
 _atom_site_pbe_bader_spin_density
 _atom_site_pbe_cm5_charge
 _atom_site_pbe_ddec_charge
 _atom_site_pbe_ddec_spin_density
 _atom_site_pbe_ddec_sum_bond_order
 _atom_site_pbe_magmom
Nd  Nd0  1  0.50985297  0.25793110  0.41966637  1  0  2.298974  0  1.548324  0  0  2.190673  0  1.897348  0  0  2.229814  0  1.858838  0  0  1.476401  2.096041  0  2.044923  0
Nd  Nd1  1  0.99014684  0.74206764  0.91966702  1  0  2.299031  0  1.548237  0  0  2.190733  0  1.897251  0  0  2.229873  0  1.858742  0  0  1.47643  2.096121  0  2.044802  0
Nd  Nd2  1  0.49014519  0.74207247  0.58033256  1  0  2.299007  0  1.548288  0  0  2.190695  0  1.897309  0  0  2.229838  0  1.858799  0  0  1.476419  2.096051  0  2.044915  0
Nd  Nd3  1  0.00985447  0.25793015  0.08033369  1  0  2.298989  0  1.548313  0  0  2.190692  0  1.897343  0  0  2.229836  0  1.85883  0  0  1.476415  2.096087  0  2.044874  0
H  H4  1  0.84674902  0.59417339  0.38164249  1  0  0.42734  0  0.87594  0  0  0.393738  0  0.943844  0  0  0.40483  0  0.927976  0  0  0.294758  0.385855  0  0.95491  0
H  H5  1  0.65325470  0.40582941  0.88164069  1  0  0.427312  0  0.875983  0  0  0.393677  0  0.943943  0  0  0.404775  0  0.928065  0  0  0.294713  0.385802  0  0.954994  0
H  H6  1  0.15325430  0.40582726  0.61835881  1  0  0.427304  0  0.875988  0  0  0.393693  0  0.94391  0  0  0.404787  0  0.928037  0  0  0.294723  0.385815  0  0.954965  0
H  H7  1  0.34674719  0.59417125  0.11835764  1  0  0.427364  0  0.875908  0  0  0.393737  0  0.943854  0  0  0.404832  0  0.92798  0  0  0.294738  0.385855  0  0.954917  0
H  H8  1  0.94953202  0.41989483  0.41242572  1  0  0.440394  0  0.84794  0  0  0.413301  0  0.90446  0  0  0.423668  0  0.88934  0  0  0.303869  0.405472  0  0.915805  0
H  H9  1  0.55046783  0.58010387  0.91242483  1  0  0.440382  0  0.847952  0  0  0.413285  0  0.904477  0  0  0.423653  0  0.889355  0  0  0.303859  0.405453  0  0.915829  0
H  H10  1  0.05046929  0.58010296  0.58757499  1  0  0.440399  0  0.84793  0  0  0.413309  0  0.904444  0  0  0.423676  0  0.889324  0  0  0.303875  0.405476  0  0.915794  0
H  H11  1  0.44953062  0.41989395  0.08757469  1  0  0.440408  0  0.847917  0  0  0.413317  0  0.904434  0  0  0.423684  0  0.889314  0  0  0.303866  0.405487  0  0.915781  0
H  H12  1  0.77386988  0.01272497  0.32112453  1  0  0.43636  0  0.856214  0  0  0.405307  0  0.91955  0  0  0.41582  0  0.904197  0  0  0.30104  0.397406  0  0.931039  0
H  H13  1  0.72613383  0.98727604  0.82112218  1  0  0.43638  0  0.856181  0  0  0.405304  0  0.919555  0  0  0.415817  0  0.904201  0  0  0.30103  0.397407  0  0.931037  0
H  H14  1  0.22613172  0.98727426  0.67887677  1  0  0.436387  0  0.856182  0  0  0.405336  0  0.919516  0  0  0.415849  0  0.904162  0  0  0.301049  0.397435  0  0.931003  0
H  H15  1  0.27386978  0.01272605  0.17887615  1  0  0.436376  0  0.856192  0  0  0.405316  0  0.919539  0  0  0.415829  0  0.904183  0  0  0.301037  0.397416  0  0.931022  0
H  H16  1  0.81139241  0.22395013  0.28409399  1  0  0.447374  0  0.841751  0  0  0.417574  0  0.903172  0  0  0.428508  0  0.886869  0  0  0.307555  0.409661  0  0.914739  0
H  H17  1  0.68861147  0.77605066  0.78409320  1  0  0.447351  0  0.841799  0  0  0.417541  0  0.903234  0  0  0.428475  0  0.88693  0  0  0.30753  0.409628  0  0.914802  0
H  H18  1  0.18861206  0.77604907  0.71590731  1  0  0.447377  0  0.841754  0  0  0.417576  0  0.903178  0  0  0.42851  0  0.886874  0  0  0.307553  0.409663  0  0.914746  0
H  H19  1  0.31139156  0.22394856  0.21590572  1  0  0.447369  0  0.841758  0  0  0.417566  0  0.903188  0  0  0.4285  0  0.886885  0  0  0.307558  0.409652  0  0.914758  0
C  C20  1  0.35271064  0.83146420  0.32966694  1  0  0.244927  0  3.841978  0  0  0.224496  0  4.124449  0  0  0.238647  0  4.133497  0  0  0.123298  0.214773  0  4.115001  0
C  C21  1  0.14728730  0.16853703  0.82966664  1  0  0.24481  0  3.841933  0  0  0.22437  0  4.124386  0  0  0.238519  0  4.133435  0  0  0.123258  0.214644  0  4.114941  0
C  C22  1  0.64728208  0.16854086  0.67033258  1  0  0.244895  0  3.841853  0  0  0.224484  0  4.124261  0  0  0.238635  0  4.133307  0  0  0.123278  0.214758  0  4.114807  0
C  C23  1  0.85271229  0.83146654  0.17033466  1  0  0.244782  0  3.842054  0  0  0.22433  0  4.12459  0  0  0.238476  0  4.13364  0  0  0.123238  0.214617  0  4.115145  0
C  C24  1  0.35475336  0.72662412  0.25325051  1  0  0.216313  0  3.813986  0  0  0.190683  0  4.094092  0  0  0.203851  0  4.10599  0  0  0.118643  0.180941  0  4.087647  0
C  C25  1  0.14524407  0.27337234  0.75325153  1  0  0.216253  0  3.813975  0  0  0.19068  0  4.094016  0  0  0.203853  0  4.10591  0  0  0.118637  0.180921  0  4.087582  0
C  C26  1  0.64524165  0.27337804  0.74674663  1  0  0.216261  0  3.814002  0  0  0.190656  0  4.094041  0  0  0.203826  0  4.105935  0  0  0.118643  0.180904  0  4.087603  0
C  C27  1  0.85475295  0.72662548  0.24675096  1  0  0.216384  0  3.813979  0  0  0.190744  0  4.094151  0  0  0.203914  0  4.106051  0  0  0.118685  0.180983  0  4.087718  0
C  C28  1  0.40258719  0.56138386  0.29760954  1  0  0.183196  0  3.903846  0  0  0.157375  0  4.194331  0  0  0.16939  0  4.206246  0  0  0.09805  0.150143  0  4.180803  0
C  C29  1  0.09741119  0.43861142  0.79761081  1  0  0.183306  0  3.903822  0  0  0.157486  0  4.194269  0  0  0.1695  0  4.206178  0  0  0.098062  0.150258  0  4.180733  0
C  C30  1  0.59740725  0.43861542  0.70238879  1  0  0.183204  0  3.903753  0  0  0.157354  0  4.194229  0  0  0.169368  0  4.206139  0  0  0.097951  0.150123  0  4.180694  0
C  C31  1  0.90258669  0.56138352  0.20239049  1  0  0.183121  0  3.903837  0  0  0.157319  0  4.194322  0  0  0.16933  0  4.206237  0  0  0.098029  0.150102  0  4.180785  0
C  C32  1  0.40709683  0.66753807  0.37145395  1  0  0.204446  0  3.880811  0  0  0.182379  0  4.168407  0  0  0.19486  0  4.178248  0  0  0.107575  0.17474  0  4.152863  0
C  C33  1  0.09290120  0.33245764  0.87145331  1  0  0.204436  0  3.880819  0  0  0.182359  0  4.168429  0  0  0.194843  0  4.178269  0  0  0.10759  0.174729  0  4.152867  0
C  C34  1  0.59289760  0.33246121  0.62854676  1  0  0.204277  0  3.880925  0  0  0.182193  0  4.168528  0  0  0.194675  0  4.178368  0  0  0.107506  0.17456  0  4.152965  0
C  C35  1  0.90709725  0.66754017  0.12854621  1  0  0.204447  0  3.88085  0  0  0.182384  0  4.168453  0  0  0.194873  0  4.178286  0  0  0.107541  0.174736  0  4.152914  0
C  C36  1  0.86027375  0.01980281  0.49044085  1  0  0.236356  0  3.853138  0  0  0.214946  0  4.134489  0  0  0.228527  0  4.143093  0  0  0.122584  0.206079  0  4.120646  0
C  C37  1  0.63972631  0.98019922  0.99044036  1  0  0.236389  0  3.853139  0  0  0.214971  0  4.134481  0  0  0.22855  0  4.143086  0  0  0.122613  0.20611  0  4.120641  0
C  C38  1  0.13972355  0.98020365  0.50956045  1  0  0.236354  0  3.853211  0  0  0.214965  0  4.134527  0  0  0.228546  0  4.143133  0  0  0.122608  0.206103  0  4.12068  0
C  C39  1  0.36027614  0.01980432  0.00955797  1  0  0.23633  0  3.853208  0  0  0.214934  0  4.134502  0  0  0.228514  0  4.143108  0  0  0.122605  0.206078  0  4.120655  0
C  C40  1  0.94570873  0.87602575  0.53286032  1  0  0.210042  0  3.868363  0  0  0.187115  0  4.150879  0  0  0.200602  0  4.160148  0  0  0.117367  0.178456  0  4.140076  0
C  C41  1  0.55429315  0.12397933  0.03285887  1  0  0.210075  0  3.868333  0  0  0.187175  0  4.150817  0  0  0.200663  0  4.160084  0  0  0.117393  0.178511  0  4.140014  0
C  C42  1  0.05428971  0.12397926  0.46714098  1  0  0.210109  0  3.868228  0  0  0.18716  0  4.15078  0  0  0.200645  0  4.160048  0  0  0.117371  0.1785  0  4.139975  0
C  C43  1  0.44571074  0.87602420  0.96713946  1  0  0.210111  0  3.868416  0  0  0.187183  0  4.15093  0  0  0.20067  0  4.160198  0  0  0.117401  0.178516  0  4.140134  0
O  O44  1  0.32387699  0.99608554  0.34634743  1  0  -0.582542  0  2.184972  0  0  -0.542655  0  2.434567  0  0  -0.563278  0  2.430998  0  0  -0.381524  -0.520461  0  2.438431  0
O  O45  1  0.17612088  0.00390859  0.84634868  1  0  -0.582498  0  2.184799  0  0  -0.542595  0  2.434363  0  0  -0.563218  0  2.430796  0  0  -0.381539  -0.520403  0  2.438227  0
O  O46  1  0.67612031  0.00391372  0.65365149  1  0  -0.582504  0  2.184757  0  0  -0.542616  0  2.434314  0  0  -0.563242  0  2.430747  0  0  -0.381518  -0.520416  0  2.438176  0
O  O47  1  0.82388044  0.99608920  0.15365500  1  0  -0.582466  0  2.185003  0  0  -0.542555  0  2.434589  0  0  -0.563179  0  2.431024  0  0  -0.381486  -0.520366  0  2.438454  0
O  O48  1  0.33577819  0.77341539  0.18202280  1  0  -0.483672  0  2.086435  0  0  -0.424137  0  2.293584  0  0  -0.44754  0  2.293831  0  0  -0.266664  -0.408448  0  2.294498  0
O  O49  1  0.16422215  0.22657919  0.68202315  1  0  -0.48355  0  2.08628  0  0  -0.42411  0  2.293489  0  0  -0.447498  0  2.293705  0  0  -0.266651  -0.408421  0  2.294417  0
O  O50  1  0.66422083  0.22658530  0.81797612  1  0  -0.483582  0  2.08637  0  0  -0.424038  0  2.293484  0  0  -0.447444  0  2.293737  0  0  -0.266603  -0.408346  0  2.294398  0
O  O51  1  0.83577888  0.77341716  0.31797756  1  0  -0.483602  0  2.086433  0  0  -0.424112  0  2.293642  0  0  -0.447511  0  2.293891  0  0  -0.26666  -0.408416  0  2.294562  0
O  O52  1  0.44227388  0.39601351  0.28567958  1  0  -0.564339  0  2.097949  0  0  -0.514662  0  2.331152  0  0  -0.534561  0  2.325939  0  0  -0.336402  -0.493684  0  2.334227  0
O  O53  1  0.05772512  0.60398457  0.78568049  1  0  -0.564422  0  2.097894  0  0  -0.514753  0  2.331102  0  0  -0.534667  0  2.325923  0  0  -0.336424  -0.493782  0  2.334174  0
O  O54  1  0.55772428  0.60399006  0.71431875  1  0  -0.564304  0  2.097713  0  0  -0.514592  0  2.33089  0  0  -0.534505  0  2.325712  0  0  -0.336326  -0.493612  0  2.33396  0
O  O55  1  0.94227505  0.39601467  0.21431962  1  0  -0.564334  0  2.097991  0  0  -0.514668  0  2.331207  0  0  -0.534572  0  2.326007  0  0  -0.336415  -0.493698  0  2.334277  0
O  O56  1  0.45521387  0.61690653  0.44039196  1  0  -0.670539  0  2.18301  0  0  -0.629538  0  2.44873  0  0  -0.649922  0  2.442839  0  0  -0.390046  -0.600096  0  2.450979  0
O  O57  1  0.04478413  0.38309103  0.94039381  1  0  -0.670527  0  2.182937  0  0  -0.629539  0  2.448688  0  0  -0.649926  0  2.442799  0  0  -0.390037  -0.600104  0  2.450917  0
O  O58  1  0.54478199  0.38309274  0.55960577  1  0  -0.670481  0  2.183004  0  0  -0.629465  0  2.448698  0  0  -0.649853  0  2.442811  0  0  -0.390012  -0.600024  0  2.450935  0
O  O59  1  0.95521489  0.61690965  0.05960809  1  0  -0.670531  0  2.183032  0  0  -0.629507  0  2.448704  0  0  -0.649895  0  2.44281  0  0  -0.390018  -0.600067  0  2.450949  0
O  O60  1  0.68092206  0.02697822  0.48337220  1  0  -0.652007  0  2.24577  0  0  -0.606571  0  2.502197  0  0  -0.627124  0  2.496728  0  0  -0.391965  -0.578613  0  2.504223  0
O  O61  1  0.81907661  0.97301659  0.98337390  1  0  -0.652044  0  2.245772  0  0  -0.606617  0  2.50221  0  0  -0.627169  0  2.496741  0  0  -0.392006  -0.578668  0  2.50424  0
O  O62  1  0.31907496  0.97301960  0.51662791  1  0  -0.652007  0  2.245796  0  0  -0.606594  0  2.502239  0  0  -0.62715  0  2.496773  0  0  -0.39197  -0.578636  0  2.504265  0
O  O63  1  0.18092442  0.02697976  0.01662681  1  0  -0.651985  0  2.245793  0  0  -0.606585  0  2.502262  0  0  -0.627141  0  2.496797  0  0  -0.391974  -0.578638  0  2.504287  0
O  O64  1  0.86422586  0.72890128  0.57076115  1  0  -0.549354  0  2.093271  0  0  -0.504919  0  2.32224  0  0  -0.525342  0  2.318323  0  0  -0.312856  -0.484287  0  2.325077  0
O  O65  1  0.63577671  0.27110114  0.07076157  1  0  -0.549372  0  2.093224  0  0  -0.504972  0  2.32221  0  0  -0.525397  0  2.318293  0  0  -0.312904  -0.484344  0  2.325042  0
O  O66  1  0.13577545  0.27110371  0.42923837  1  0  -0.549418  0  2.09312  0  0  -0.504967  0  2.322095  0  0  -0.525398  0  2.31819  0  0  -0.312893  -0.484337  0  2.324929  0
O  O67  1  0.36422546  0.72890096  0.92923973  1  0  -0.549426  0  2.093388  0  0  -0.504977  0  2.322348  0  0  -0.525403  0  2.318436  0  0  -0.312901  -0.484346  0  2.325182  0
O  O68  1  0.73540013  0.14015965  0.32451218  1  0  -0.928041  0  1.890492  0  0  -0.883723  0  2.079868  0  0  -0.901301  0  2.047931  0  0  -0.645503  -0.863762  0  2.106991  0
O  O69  1  0.76460356  0.85984138  0.82451083  1  0  -0.928052  0  1.890486  0  0  -0.883721  0  2.079888  0  0  -0.901299  0  2.047951  0  0  -0.645469  -0.863765  0  2.107012  0
O  O70  1  0.26460147  0.85983958  0.67548853  1  0  -0.928082  0  1.890479  0  0  -0.883763  0  2.079863  0  0  -0.901342  0  2.047927  0  0  -0.645506  -0.863801  0  2.106987  0
O  O71  1  0.23539833  0.14015929  0.17548810  1  0  -0.928063  0  1.890489  0  0  -0.883731  0  2.079853  0  0  -0.901312  0  2.047914  0  0  -0.645511  -0.863772  0  2.106972  0
O  O72  1  0.83046914  0.47703956  0.41627344  1  0  -0.915254  0  1.853191  0  0  -0.871377  0  2.040282  0  0  -0.889436  0  2.008725  0  0  -0.646158  -0.850205  0  2.066785  0
O  O73  1  0.66953126  0.52296203  0.91627355  1  0  -0.915211  0  1.853201  0  0  -0.871322  0  2.040325  0  0  -0.889382  0  2.00876  0  0  -0.646122  -0.850157  0  2.066823  0
O  O74  1  0.16953102  0.52295968  0.58372608  1  0  -0.915217  0  1.853191  0  0  -0.871334  0  2.040288  0  0  -0.889391  0  2.00872  0  0  -0.646139  -0.850164  0  2.06679  0
O  O75  1  0.33046747  0.47703722  0.08372656  1  0  -0.915276  0  1.853123  0  0  -0.871394  0  2.040245  0  0  -0.889451  0  2.008672  0  0  -0.64614  -0.850226  0  2.066745  0
