# generated using pymatgen
data_Co3H33C57N3O13
_symmetry_space_group_name_H-M   'P 1'
_cell_length_a   18.75370554
_cell_length_b   18.75411879
_cell_length_c   18.75412331
_cell_angle_alpha   60.21576933
_cell_angle_beta   60.21533634
_cell_angle_gamma   60.21450461
_symmetry_Int_Tables_number   1
_chemical_formula_structural   Co3H33C57N3O13
_chemical_formula_sum   'Co6 H66 C114 N6 O26'
_cell_volume   4686.80086819
_cell_formula_units_Z   2
loop_
 _symmetry_equiv_pos_site_id
 _symmetry_equiv_pos_as_xyz
  1  'x, y, z'
loop_
 _atom_site_type_symbol
 _atom_site_label
 _atom_site_symmetry_multiplicity
 _atom_site_fract_x
 _atom_site_fract_y
 _atom_site_fract_z
 _atom_site_occupancy
 _atom_site_pbe_bader_charge
 _atom_site_pbe_bader_spin_density
 _atom_site_pbe_cm5_charge
 _atom_site_pbe_ddec_charge
 _atom_site_pbe_ddec_spin_density
 _atom_site_pbe_ddec_sum_bond_order
 _atom_site_pbe_magmom
Co  Co0  1  0.84817932  0.65183427  0.74997981  1  1.372105  1.977583  0.718521  1.049206  2.169474  2.74335  1.959
Co  Co1  1  0.65185837  0.75001089  0.84813898  1  1.372824  1.979138  0.718707  1.049749  2.171212  2.742392  1.96
Co  Co2  1  0.75001519  0.84817809  0.65180719  1  1.371713  1.976075  0.718453  1.048994  2.167823  2.743748  1.957
Co  Co3  1  0.15179668  0.34821483  0.24998803  1  1.37128  1.975675  0.7182  1.048354  2.167367  2.744286  1.957
Co  Co4  1  0.34812842  0.25004237  0.15183975  1  1.372522  1.977475  0.718536  1.04927  2.169383  2.743541  1.959
Co  Co5  1  0.24996474  0.15186666  0.34816085  1  1.372709  1.979626  0.718587  1.049623  2.171738  2.742177  1.961
H  H6  1  0.88034752  0.54475193  0.59306003  1  0.098384  0.000156  0.108103  0.110452  5.5e-05  1.007487  0.0
H  H7  1  0.92294841  0.48377775  0.48140605  1  0.055517  0.000133  0.105946  0.109399  4.7e-05  0.996026  0.0
H  H8  1  0.86618587  0.74385874  0.29727404  1  0.031531  0.000131  0.100702  0.100279  4.5e-05  1.002753  0.0
H  H9  1  0.82155311  0.80415702  0.41102840  1  0.08896  0.000246  0.105752  0.109875  6.7e-05  0.99283  0.0
H  H10  1  0.03966160  0.46718883  0.35591436  1  0.146905  0.000282  0.117412  0.089982  -9.1e-05  1.07484  0.0
H  H11  1  0.54477001  0.59306104  0.88033914  1  0.098266  0.000156  0.108087  0.110438  5.5e-05  1.00766  0.0
H  H12  1  0.48376876  0.48143895  0.92293766  1  0.055792  0.000133  0.106035  0.109657  4.7e-05  0.996072  0.0
H  H13  1  0.74383966  0.29726413  0.86620348  1  0.031899  0.000131  0.10077  0.100379  4.5e-05  1.002925  0.0
H  H14  1  0.80416822  0.41098680  0.82157554  1  0.088626  0.000246  0.105723  0.109799  6.7e-05  0.992939  0.0
H  H15  1  0.46715176  0.35595213  0.03964794  1  0.146397  0.000284  0.117452  0.089949  -8.9e-05  1.074831  0.0
H  H16  1  0.59307182  0.88031885  0.54479297  1  0.098972  0.000156  0.108155  0.110545  5.5e-05  1.007648  0.0
H  H17  1  0.48145493  0.92290737  0.48378218  1  0.055655  0.000133  0.105931  0.109496  4.7e-05  0.995933  0.0
H  H18  1  0.29728890  0.86615438  0.74385086  1  0.031302  0.000131  0.100737  0.100415  4.5e-05  1.002926  0.0
H  H19  1  0.41101135  0.82153952  0.80416894  1  0.088805  0.000246  0.1057  0.109722  6.7e-05  0.992943  0.0
H  H20  1  0.35593094  0.03963952  0.46717670  1  0.147019  0.000287  0.117351  0.089894  -8.9e-05  1.074925  0.0
H  H21  1  0.95523464  0.61965333  0.90695430  1  0.09807  0.000156  0.108125  0.110533  5.5e-05  1.007587  0.0
H  H22  1  0.01622231  0.57705065  0.01859993  1  0.05549  0.000133  0.105931  0.109405  4.7e-05  0.996027  0.0
H  H23  1  0.75613412  0.63382125  0.20273021  1  0.031378  0.000131  0.100774  0.10041  4.5e-05  1.002751  0.0
H  H24  1  0.69582434  0.67844982  0.08899073  1  0.088642  0.000247  0.105698  0.109773  6.7e-05  0.993006  0.0
H  H25  1  0.03281207  0.46036228  0.14406731  1  0.146776  0.000282  0.117389  0.089745  -9.1e-05  1.075075  0.0
H  H26  1  0.90693377  0.95519938  0.61967981  1  0.099502  0.000156  0.108122  0.110491  5.5e-05  1.007733  0.0
H  H27  1  0.01856124  0.01620641  0.57707076  1  0.055869  0.000133  0.105962  0.109582  4.7e-05  0.996059  0.0
H  H28  1  0.20273414  0.75613489  0.63378627  1  0.031254  0.000131  0.1008  0.100408  4.5e-05  1.003095  0.0
H  H29  1  0.08900460  0.69581554  0.67842630  1  0.088351  0.000247  0.105705  0.109813  6.7e-05  0.993046  0.0
H  H30  1  0.14404829  0.03283893  0.46036125  1  0.146573  0.000287  0.117457  0.089912  -8.9e-05  1.074802  0.0
H  H31  1  0.61965909  0.90693622  0.95523681  1  0.098118  0.000156  0.108101  0.110475  5.5e-05  1.007587  0.0
H  H32  1  0.57707153  0.01855673  0.01623138  1  0.055638  0.000133  0.106059  0.1097  4.7e-05  0.996189  0.0
H  H33  1  0.63382974  0.20271787  0.75616958  1  0.031759  0.000131  0.100733  0.100373  4.5e-05  1.002932  0.0
H  H34  1  0.67844607  0.08898901  0.69585633  1  0.089177  0.000246  0.105749  0.109926  6.7e-05  0.993047  0.0
H  H35  1  0.46034614  0.14406711  0.03285567  1  0.146736  0.000284  0.117416  0.08997  -9e-05  1.074868  0.0
H  H36  1  0.11965911  0.45524073  0.40694216  1  0.098484  0.000156  0.108084  0.110457  5.5e-05  1.007622  0.0
H  H37  1  0.07706931  0.51621690  0.51858555  1  0.055724  0.000133  0.105964  0.1095  4.7e-05  0.996003  0.0
H  H38  1  0.13384238  0.25612208  0.70271541  1  0.031371  0.000131  0.100756  0.100318  4.5e-05  1.002754  0.0
H  H39  1  0.17845816  0.19583548  0.58896470  1  0.088812  0.000247  0.105694  0.109778  6.7e-05  0.992893  0.0
H  H40  1  0.96034947  0.53281338  0.64408425  1  0.147153  0.000284  0.117434  0.090046  -9e-05  1.074873  0.0
H  H41  1  0.45522205  0.40695464  0.11966909  1  0.09891  0.000156  0.108151  0.110559  5.5e-05  1.007695  0.0
H  H42  1  0.51621355  0.51858984  0.07706255  1  0.055863  0.000133  0.105961  0.109504  4.7e-05  0.996094  0.0
H  H43  1  0.25612507  0.70274501  0.13382648  1  0.030933  0.000131  0.100707  0.100305  4.5e-05  1.00283  0.0
H  H44  1  0.19581614  0.58900491  0.17845229  1  0.088417  0.000246  0.105712  0.10979  6.7e-05  0.993151  0.0
H  H45  1  0.53279954  0.64407411  0.96035465  1  0.146844  0.000286  0.117425  0.089885  -8.9e-05  1.074873  0.0
H  H46  1  0.40693724  0.11964700  0.45519702  1  0.098097  0.000157  0.108119  0.110499  5.5e-05  1.007469  0.0
H  H47  1  0.51855603  0.07706029  0.51620815  1  0.056055  0.000133  0.105994  0.10961  4.7e-05  0.996027  0.0
H  H48  1  0.70271794  0.13382858  0.25614473  1  0.031462  0.000131  0.100726  0.100321  4.5e-05  1.002923  0.0
H  H49  1  0.58899419  0.17844945  0.19582063  1  0.088506  0.000246  0.105723  0.109767  6.7e-05  0.993062  0.0
H  H50  1  0.64408179  0.96033537  0.53281994  1  0.146809  0.000282  0.117455  0.090054  -9.1e-05  1.074816  0.0
H  H51  1  0.04479346  0.38032114  0.09305430  1  0.098771  0.000156  0.108146  0.11056  5.5e-05  1.007694  0.0
H  H52  1  0.98378688  0.42291571  0.98143083  1  0.055987  0.000133  0.105956  0.10951  4.7e-05  0.99601  0.0
H  H53  1  0.24387785  0.36615558  0.79727439  1  0.031049  0.000131  0.100754  0.100279  4.5e-05  1.002798  0.0
H  H54  1  0.30419206  0.32154462  0.91100321  1  0.088281  0.000247  0.105714  0.109777  6.7e-05  0.992854  0.0
H  H55  1  0.96718155  0.53963155  0.85594061  1  0.146881  0.000283  0.117368  0.089795  -9e-05  1.07494  0.0
H  H56  1  0.09305987  0.04480190  0.38031970  1  0.09923  0.000156  0.10821  0.110588  5.5e-05  1.007624  0.0
H  H57  1  0.98143353  0.98378684  0.42294915  1  0.05598  0.000133  0.105909  0.109524  4.7e-05  0.995988  0.0
H  H58  1  0.79725933  0.24386523  0.36617602  1  0.031123  0.000131  0.100757  0.100371  4.5e-05  1.002758  0.0
H  H59  1  0.91100065  0.30418329  0.32152504  1  0.088499  0.000246  0.105678  0.109767  6.7e-05  0.992935  0.0
H  H60  1  0.85592868  0.96719145  0.53965038  1  0.14672  0.000282  0.117471  0.089968  -9e-05  1.074841  0.0
H  H61  1  0.38038701  0.09304075  0.04477573  1  0.097112  0.000157  0.108096  0.110442  5.5e-05  1.007526  0.0
H  H62  1  0.42294866  0.98141277  0.98379467  1  0.055604  0.000133  0.105994  0.109616  4.7e-05  0.996132  0.0
H  H63  1  0.36616409  0.79728212  0.24386780  1  0.031288  0.000131  0.100807  0.100397  4.5e-05  1.002814  0.0
H  H64  1  0.32156980  0.91101170  0.30417428  1  0.088585  0.000246  0.105688  0.109761  6.7e-05  0.992821  0.0
H  H65  1  0.53966074  0.85591069  0.96719252  1  0.146886  0.000286  0.117394  0.089941  -8.9e-05  1.074842  0.0
H  H66  1  0.83404595  0.66593860  0.25000779  1  0.070763  -0.000164  0.108998  0.111123  -0.000166  0.997172  0.0
H  H67  1  0.66593289  0.24999630  0.83409656  1  0.071243  -0.000164  0.109039  0.111177  -0.000166  0.997167  0.0
H  H68  1  0.25001341  0.83404100  0.66590924  1  0.070906  -0.000163  0.108986  0.111113  -0.000166  0.997169  0.0
H  H69  1  0.16595678  0.33405410  0.74999627  1  0.070606  -0.000164  0.109063  0.11121  -0.000166  0.997091  0.0
H  H70  1  0.33407838  0.74998418  0.16595994  1  0.070756  -0.000164  0.109053  0.111283  -0.000166  0.997319  0.0
H  H71  1  0.75000981  0.16591220  0.33404589  1  0.070968  -0.000164  0.108971  0.11106  -0.000166  0.997049  0.0
C  C72  1  0.83470044  0.71312780  0.57335269  1  1.54932  -0.004098  0.223878  0.592475  -0.005604  4.145652  -0.004
C  C73  1  0.85131510  0.67817423  0.50802361  1  -0.014563  0.010264  -0.013756  -0.024473  0.005388  3.960435  0.008
C  C74  1  0.87850818  0.58801953  0.52772261  1  -0.046683  0.000764  -0.082416  -0.091105  0.000307  3.982239  0.0
C  C75  1  0.90184317  0.55406890  0.46512134  1  0.0379  0.00076  -0.088855  -0.133289  0.000381  3.984599  0.0
C  C76  1  0.89898571  0.60947610  0.38082332  1  -0.06361  0.000881  -0.008465  0.069095  0.000466  4.019498  0.001
C  C77  1  0.86819066  0.69997976  0.36254420  1  -0.014616  0.000385  -0.09329  -0.138496  0.000162  3.997021  0.0
C  C78  1  0.84400246  0.73402215  0.42561549  1  -0.080976  0.001366  -0.084675  -0.092689  0.000409  3.990089  0.001
C  C79  1  0.93109837  0.57215831  0.31292197  1  -0.025759  0.001628  -0.003923  0.02898  0.000727  4.022077  0.001
C  C80  1  0.00581731  0.49794215  0.30951581  1  0.491131  -0.003373  0.051554  0.04086  -0.003917  3.882478  -0.002
C  C81  1  0.71315397  0.57333658  0.83467978  1  1.550073  -0.004082  0.223676  0.591918  -0.005587  4.14661  -0.004
C  C82  1  0.67818693  0.50801396  0.85131417  1  -0.014465  0.010267  -0.013816  -0.024493  0.00539  3.960177  0.008
C  C83  1  0.58801686  0.52772582  0.87850808  1  -0.045955  0.000762  -0.08245  -0.091137  0.000306  3.982432  0.0
C  C84  1  0.55405250  0.46514110  0.90184492  1  0.033337  0.00076  -0.088812  -0.133339  0.000381  3.98441  0.0
C  C85  1  0.60947445  0.38082198  0.89899571  1  -0.060072  0.00088  -0.008512  0.068973  0.000466  4.018881  0.001
C  C86  1  0.69997865  0.36252418  0.86820245  1  -0.015472  0.000386  -0.09326  -0.13833  0.000163  3.997548  0.0
C  C87  1  0.73402837  0.42559130  0.84401315  1  -0.080421  0.001365  -0.084633  -0.092746  0.000409  3.990282  0.001
C  C88  1  0.57212119  0.31291902  0.93113590  1  -0.0259  0.001628  -0.00403  0.028673  0.000728  4.022399  0.001
C  C89  1  0.49791148  0.30953825  0.00583129  1  0.491452  -0.003353  0.051513  0.040988  -0.003895  3.883523  -0.002
C  C90  1  0.57336248  0.83469637  0.71312514  1  1.549178  -0.004107  0.223813  0.592275  -0.005612  4.145737  -0.004
C  C91  1  0.50802243  0.85130191  0.67819006  1  -0.014989  0.010267  -0.013766  -0.024525  0.005389  3.960525  0.008
C  C92  1  0.52773444  0.87848862  0.58803148  1  -0.047317  0.000758  -0.082597  -0.091443  0.000302  3.982843  0.0
C  C93  1  0.46514745  0.90181233  0.55407070  1  0.038083  0.000763  -0.088675  -0.133058  0.000383  3.984093  0.0
C  C94  1  0.38082964  0.89895527  0.60948594  1  -0.062788  0.000876  -0.008432  0.068989  0.000464  4.018585  0.001
C  C95  1  0.36254537  0.86815701  0.69998783  1  -0.01638  0.000388  -0.093409  -0.138769  0.000164  3.997223  0.0
C  C96  1  0.42561292  0.84397348  0.73403625  1  -0.078788  0.001361  -0.084508  -0.09225  0.000406  3.989888  0.001
C  C97  1  0.31292315  0.93108875  0.57214197  1  0.015874  0.001644  -0.003923  0.02893  0.000733  4.021853  0.001
C  C98  1  0.30952714  0.00581461  0.49793356  1  0.491211  -0.00336  0.051732  0.041183  -0.003902  3.882799  -0.002
C  C99  1  0.78687431  0.66529428  0.92664759  1  1.549227  -0.004099  0.22381  0.592325  -0.005605  4.145662  -0.004
C  C100  1  0.82181707  0.64867361  0.99199558  1  -0.014527  0.010272  -0.01376  -0.02446  0.005393  3.960037  0.008
C  C101  1  0.91197482  0.62148819  0.97228416  1  -0.045616  0.000758  -0.082506  -0.091209  0.000303  3.98242  0.0
C  C102  1  0.94592448  0.59815614  0.03488583  1  0.037791  0.000763  -0.088801  -0.13332  0.000383  3.984371  0.0
C  C103  1  0.89050852  0.60101760  0.11918711  1  -0.063193  0.000874  -0.008273  0.069238  0.000463  4.018834  0.001
C  C104  1  0.79999853  0.63181773  0.13746660  1  -0.016144  0.000388  -0.093482  -0.138669  0.000164  3.997307  0.0
C  C105  1  0.76596097  0.65599761  0.07440488  1  -0.079455  0.001359  -0.084533  -0.092525  0.000405  3.990386  0.001
C  C106  1  0.92783991  0.56889576  0.18708592  1  -0.028258  0.001628  -0.004038  0.028839  0.000727  4.022373  0.001
C  C107  1  0.00205960  0.49418619  0.19047200  1  0.490777  -0.003373  0.051756  0.041401  -0.003916  3.88296  -0.002
C  C108  1  0.92664447  0.78685585  0.66531009  1  1.549839  -0.004109  0.223908  0.592394  -0.005614  4.145574  -0.004
C  C109  1  0.99198739  0.82179375  0.64869231  1  -0.016726  0.010267  -0.013762  -0.024536  0.005388  3.960661  0.008
C  C110  1  0.97226968  0.91196282  0.62150363  1  -0.047396  0.000761  -0.082551  -0.091249  0.000305  3.982773  0.0
C  C111  1  0.03485874  0.94591353  0.59817469  1  0.038386  0.000761  -0.088827  -0.133494  0.000382  3.984435  0.0
C  C112  1  0.11918769  0.89049326  0.60101539  1  -0.063178  0.000881  -0.008261  0.069317  0.000466  4.018736  0.001
C  C113  1  0.13747438  0.80000216  0.63180151  1  -0.015992  0.000387  -0.09347  -0.138615  0.000163  3.997654  0.0
C  C114  1  0.07439690  0.76595396  0.65599557  1  -0.079038  0.001365  -0.084601  -0.092653  0.000408  3.990521  0.001
C  C115  1  0.18708569  0.92784164  0.56888536  1  -0.028212  0.001637  -0.003932  0.028879  0.000732  4.021982  0.001
C  C116  1  0.19046188  0.00207103  0.49418535  1  0.490697  -0.00336  0.051675  0.041201  -0.003903  3.882875  -0.002
C  C117  1  0.66532104  0.92666274  0.78685753  1  1.548984  -0.00408  0.223752  0.592176  -0.005591  4.146339  -0.004
C  C118  1  0.64870619  0.99197227  0.82182240  1  -0.014871  0.010257  -0.013784  -0.024545  0.005386  3.96029  0.008
C  C119  1  0.62150766  0.97226601  0.91198445  1  -0.045966  0.000763  -0.082363  -0.091039  0.000306  3.982247  0.0
C  C120  1  0.59816827  0.03485423  0.94595257  1  0.037283  0.00076  -0.088981  -0.133519  0.000381  3.984708  0.0
C  C121  1  0.60102685  0.11916865  0.89054340  1  -0.059191  0.00088  -0.008372  0.068978  0.000466  4.018703  0.001
C  C122  1  0.63182792  0.13745619  0.80003753  1  -0.019429  0.000386  -0.093261  -0.13843  0.000163  3.997175  0.0
C  C123  1  0.65602099  0.07438869  0.76598517  1  -0.079614  0.001368  -0.084758  -0.092845  0.00041  3.990159  0.001
C  C124  1  0.56889153  0.18708102  0.92788362  1  -0.025105  0.001631  -0.004056  0.028759  0.000729  4.022138  0.001
C  C125  1  0.49417027  0.19047669  0.00209797  1  0.491524  -0.003363  0.051566  0.041069  -0.003905  3.883149  -0.002
C  C126  1  0.16530546  0.28688730  0.42663419  1  1.548761  -0.004101  0.223938  0.592685  -0.005604  4.145552  -0.004
C  C127  1  0.14868830  0.32181767  0.49197891  1  -0.014356  0.010267  -0.013838  -0.024676  0.005391  3.960742  0.008
C  C128  1  0.12149387  0.41198389  0.47227338  1  -0.046907  0.000763  -0.082402  -0.09101  0.000306  3.982372  0.0
C  C129  1  0.09816352  0.44592382  0.53487599  1  0.038281  0.000761  -0.088889  -0.133516  0.000382  3.984348  0.0
C  C130  1  0.10102015  0.39050736  0.61919756  1  -0.059332  0.000879  -0.00838  0.069199  0.000466  4.019174  0.001
C  C131  1  0.13182377  0.30001282  0.63745372  1  -0.019594  0.000387  -0.093371  -0.13866  0.000163  3.99678  0.0
C  C132  1  0.15601018  0.26596751  0.57437405  1  -0.07986  0.001364  -0.084598  -0.092453  0.000408  3.989976  0.001
C  C133  1  0.06890439  0.42783566  0.68707879  1  -0.028532  0.001632  -0.003904  0.029004  0.000729  4.022504  0.001
C  C134  1  0.99419004  0.50205409  0.69047684  1  0.490477  -0.003363  0.051595  0.040788  -0.003906  3.882524  -0.002
C  C135  1  0.28683333  0.42670047  0.16527402  1  1.548493  -0.004081  0.223805  0.592173  -0.005596  4.146008  -0.004
C  C136  1  0.32180775  0.49200337  0.14868933  1  -0.014836  0.010259  -0.01373  -0.024309  0.005388  3.960016  0.008
C  C137  1  0.41196166  0.47227773  0.12151045  1  -0.047171  0.00076  -0.082608  -0.091376  0.000305  3.983099  0.0
C  C138  1  0.44591681  0.53486844  0.09818051  1  0.038349  0.000762  -0.088784  -0.133332  0.000382  3.984272  0.0
C  C139  1  0.39050568  0.61919175  0.10103844  1  -0.05867  0.000879  -0.008348  0.069012  0.000466  4.018573  0.001
C  C140  1  0.29999639  0.63747525  0.13184002  1  -0.020595  0.000388  -0.093386  -0.138514  0.000163  3.997049  0.0
C  C141  1  0.26594733  0.57441103  0.15602440  1  -0.077771  0.001366  -0.084528  -0.092508  0.000409  3.990119  0.001
C  C142  1  0.42784928  0.68708375  0.06890663  1  -0.02698  0.001635  -0.003998  0.02904  0.000731  4.022381  0.001
C  C143  1  0.50205852  0.69047296  0.99418926  1  0.491358  -0.003356  0.051668  0.041119  -0.003898  3.883205  -0.002
C  C144  1  0.42661874  0.16533555  0.28685541  1  1.550398  -0.004105  0.223902  0.592466  -0.005602  4.145177  -0.004
C  C145  1  0.49198719  0.14868285  0.32178730  1  -0.017375  0.010272  -0.013708  -0.02431  0.005389  3.959969  0.008
C  C146  1  0.47228102  0.12147810  0.41196247  1  -0.045614  0.000762  -0.082524  -0.091411  0.000306  3.982295  0.0
C  C147  1  0.53485571  0.09815353  0.44592642  1  0.037696  0.000759  -0.088793  -0.133394  0.000381  3.98413  0.0
C  C148  1  0.61918207  0.10100977  0.39049996  1  -0.063642  0.00088  -0.008344  0.069372  0.000466  4.018481  0.001
C  C149  1  0.63746154  0.13181239  0.30001536  1  -0.015862  0.000387  -0.09336  -0.138547  0.000164  3.997213  0.0
C  C150  1  0.57438499  0.15600273  0.26595680  1  -0.079453  0.001366  -0.084617  -0.092629  0.000409  3.990216  0.001
C  C151  1  0.68708593  0.06887838  0.42784420  1  -0.028014  0.001627  -0.00391  0.028832  0.000726  4.021888  0.001
C  C152  1  0.69047836  0.99417121  0.50206289  1  0.490739  -0.003364  0.051578  0.040915  -0.003906  3.882894  -0.002
C  C153  1  0.21313677  0.33472467  0.07333438  1  1.548592  -0.004109  0.223797  0.592261  -0.005618  4.14565  -0.004
C  C154  1  0.17820784  0.35132121  0.00798871  1  -0.014877  0.010258  -0.013823  -0.024509  0.005386  3.960509  0.008
C  C155  1  0.08803112  0.37850217  0.02772375  1  -0.046863  0.000758  -0.082525  -0.091184  0.000303  3.982482  0.0
C  C156  1  0.05408986  0.40182023  0.96513597  1  0.038276  0.000762  -0.088781  -0.133471  0.000382  3.984279  0.0
C  C157  1  0.10950417  0.39897025  0.88080061  1  -0.059597  0.000876  -0.008355  0.069188  0.000464  4.019191  0.001
C  C158  1  0.19999653  0.36817024  0.86253601  1  -0.020107  0.000389  -0.093472  -0.138727  0.000164  3.9969  0.0
C  C159  1  0.23405401  0.34398845  0.92560820  1  -0.0786  0.001363  -0.084467  -0.092283  0.000406  3.990088  0.001
C  C160  1  0.07216542  0.43108617  0.81292796  1  -0.026048  0.001633  -0.00392  0.028972  0.00073  4.022554  0.001
C  C161  1  0.99794051  0.50580300  0.80953930  1  0.490741  -0.003365  0.051699  0.041272  -0.003908  3.882464  -0.002
C  C162  1  0.07332305  0.21316936  0.33468727  1  1.548804  -0.00409  0.223691  0.59194  -0.005599  4.145732  -0.004
C  C163  1  0.00799735  0.17821136  0.35129099  1  -0.014473  0.010265  -0.013826  -0.024478  0.005389  3.960653  0.008
C  C164  1  0.02772531  0.08803995  0.37848970  1  -0.047369  0.000759  -0.082538  -0.091231  0.000304  3.983059  0.0
C  C165  1  0.96514464  0.05408577  0.40182266  1  0.038387  0.000761  -0.088773  -0.133436  0.000382  3.984382  0.0
C  C166  1  0.88080689  0.10950066  0.39896748  1  -0.058916  0.000877  -0.008274  0.069121  0.000465  4.018565  0.001
C  C167  1  0.86253078  0.19999410  0.36815965  1  -0.020532  0.000387  -0.093461  -0.138662  0.000163  3.996984  0.0
C  C168  1  0.92560562  0.23404931  0.34396294  1  -0.079288  0.001366  -0.08443  -0.092312  0.000408  3.990265  0.001
C  C169  1  0.81291798  0.07214804  0.43109837  1  -0.026994  0.001627  -0.004007  0.028938  0.000726  4.022251  0.001
C  C170  1  0.80953363  0.99793574  0.50581326  1  0.49134  -0.003366  0.05159  0.041044  -0.003909  3.882839  -0.002
C  C171  1  0.33467029  0.07337290  0.21313712  1  1.549937  -0.004096  0.223855  0.592479  -0.005594  4.14575  -0.004
C  C172  1  0.35132351  0.00802538  0.17818913  1  -0.016078  0.010275  -0.013705  -0.024439  0.005392  3.96052  0.008
C  C173  1  0.37853129  0.02771146  0.08803078  1  -0.042614  0.000764  -0.082552  -0.091245  0.000308  3.982392  0.0
C  C174  1  0.40185699  0.96512210  0.05407411  1  0.035758  0.00076  -0.088831  -0.133479  0.000381  3.984502  0.0
C  C175  1  0.39898778  0.88082140  0.10949351  1  -0.063447  0.000884  -0.008431  0.069171  0.000468  4.018828  0.001
C  C176  1  0.36819068  0.86253451  0.19999075  1  -0.015349  0.000387  -0.093423  -0.138584  0.000164  3.997364  0.0
C  C177  1  0.34400928  0.92560929  0.23403233  1  -0.079805  0.001366  -0.084598  -0.092659  0.00041  3.98987  0.001
C  C178  1  0.43110944  0.81290980  0.07215954  1  -0.027973  0.001634  -0.003907  0.029025  0.000731  4.021607  0.001
C  C179  1  0.50582041  0.80951641  0.99794000  1  0.490949  -0.003355  0.051609  0.040976  -0.003897  3.882768  -0.002
C  C180  1  0.89206620  0.60792392  0.25000521  1  -0.009662  -0.004745  -0.070052  -0.142215  -0.005331  3.922801  -0.003
C  C181  1  0.60792247  0.24999307  0.89209680  1  -0.012625  -0.00473  -0.069996  -0.14209  -0.005315  3.922614  -0.003
C  C182  1  0.25000813  0.89205803  0.60791035  1  -0.052016  -0.004738  -0.070133  -0.142265  -0.005318  3.922961  -0.003
C  C183  1  0.10793327  0.39206613  0.75000385  1  -0.00945  -0.004737  -0.070166  -0.142295  -0.005323  3.922598  -0.003
C  C184  1  0.39207992  0.74998876  0.10794576  1  -0.009924  -0.004729  -0.07017  -0.142516  -0.005315  3.923178  -0.003
C  C185  1  0.75001019  0.10790561  0.39206450  1  -0.009225  -0.004737  -0.070096  -0.142171  -0.005323  3.92273  -0.003
N  N186  1  0.04026642  0.45973434  0.24999301  1  -1.202654  0.017362  -0.307916  -0.179973  0.009264  3.557519  0.017
N  N187  1  0.45972509  0.25000026  0.04028478  1  -1.203602  0.017443  -0.30779  -0.180064  0.00931  3.557551  0.017
N  N188  1  0.24999317  0.04026281  0.45974267  1  -1.202501  0.017566  -0.308085  -0.180477  0.009375  3.557181  0.017
N  N189  1  0.95973957  0.54025916  0.75000802  1  -1.201985  0.017459  -0.307983  -0.180132  0.009316  3.556789  0.017
N  N190  1  0.54026451  0.74999287  0.95973556  1  -1.202557  0.017534  -0.307846  -0.180223  0.009358  3.557139  0.017
N  N191  1  0.75001349  0.95972926  0.54025820  1  -1.202269  0.017378  -0.307936  -0.180138  0.009271  3.557191  0.017
O  O192  1  0.87974529  0.66472602  0.62399481  1  -1.115563  0.070183  -0.294146  -0.540572  0.03637  2.391935  0.061
O  O193  1  0.77893508  0.78870506  0.57191025  1  -1.118734  0.072062  -0.292345  -0.522691  0.03794  2.348416  0.063
O  O194  1  0.66474745  0.62400167  0.87969946  1  -1.116033  0.070169  -0.293988  -0.540322  0.036369  2.391952  0.061
O  O195  1  0.78873284  0.57188709  0.77891531  1  -1.11891  0.07203  -0.292451  -0.522584  0.037927  2.348028  0.063
O  O196  1  0.62401984  0.87972647  0.66469780  1  -1.115394  0.070114  -0.294144  -0.540547  0.036339  2.391929  0.061
O  O197  1  0.57192715  0.77894293  0.78871162  1  -1.118779  0.072099  -0.292371  -0.522695  0.037958  2.34835  0.063
O  O198  1  0.83529437  0.62026381  0.87599090  1  -1.115355  0.070132  -0.294099  -0.540575  0.036349  2.391781  0.061
O  O199  1  0.71129316  0.72106488  0.92807845  1  -1.119017  0.072071  -0.292441  -0.522855  0.037948  2.348451  0.063
O  O200  1  0.87599750  0.83527417  0.62026773  1  -1.115157  0.070145  -0.29417  -0.54051  0.036352  2.392039  0.061
O  O201  1  0.92808403  0.71127808  0.72107152  1  -1.11871  0.07208  -0.292418  -0.522663  0.037954  2.348334  0.063
O  O202  1  0.62029216  0.87600029  0.83526329  1  -1.116157  0.070217  -0.294097  -0.540525  0.036393  2.391869  0.061
O  O203  1  0.72107213  0.92811267  0.71127216  1  -1.118628  0.072036  -0.292404  -0.522587  0.037926  2.348111  0.063
O  O204  1  0.12025594  0.33529665  0.37599599  1  -1.115469  0.070111  -0.294121  -0.540581  0.036337  2.391762  0.061
O  O205  1  0.22108580  0.21131259  0.42806441  1  -1.118912  0.072138  -0.292453  -0.522924  0.037977  2.348195  0.063
O  O206  1  0.33525154  0.37604702  0.12023717  1  -1.115258  0.070217  -0.293928  -0.540376  0.036389  2.391931  0.061
O  O207  1  0.21123973  0.42816686  0.22101183  1  -1.118825  0.071998  -0.292545  -0.522674  0.03791  2.348467  0.063
O  O208  1  0.37598136  0.12028340  0.33525655  1  -1.114919  0.070168  -0.294204  -0.540698  0.03637  2.391663  0.061
O  O209  1  0.42802726  0.22113514  0.21130009  1  -1.118776  0.072012  -0.29239  -0.522679  0.03791  2.34809  0.063
O  O210  1  0.16470696  0.37977631  0.12397488  1  -1.114887  0.070133  -0.293973  -0.540393  0.03634  2.391819  0.061
O  O211  1  0.28871853  0.27894638  0.07191388  1  -1.118937  0.072032  -0.292445  -0.522711  0.037928  2.348368  0.063
O  O212  1  0.12397508  0.16475290  0.37973749  1  -1.114787  0.070234  -0.294138  -0.540503  0.036399  2.391647  0.061
O  O213  1  0.07187555  0.28874893  0.27893949  1  -1.118839  0.071996  -0.292291  -0.522319  0.037907  2.348221  0.063
O  O214  1  0.37970037  0.12402614  0.16474858  1  -1.115121  0.070153  -0.29411  -0.54058  0.036362  2.391926  0.061
O  O215  1  0.27886555  0.07194906  0.28869957  1  -1.118848  0.072117  -0.292347  -0.522773  0.037965  2.347668  0.063
O  O216  1  0.75002329  0.75001419  0.74996378  1  -0.798939  0.118945  -0.457681  -0.762544  0.043438  2.395623  0.111
O  O217  1  0.24996109  0.25005065  0.24998917  1  -0.799021  0.118981  -0.457641  -0.762519  0.043463  2.395669  0.111
