# generated using pymatgen
data_CdH8C9SINO6
_symmetry_space_group_name_H-M   'P 1'
_cell_length_a   6.79804033
_cell_length_b   10.21165684
_cell_length_c   9.97277919
_cell_angle_alpha   73.50433289
_cell_angle_beta   77.27744722
_cell_angle_gamma   85.48196725
_symmetry_Int_Tables_number   1
_chemical_formula_structural   CdH8C9SINO6
_chemical_formula_sum   'Cd2 H16 C18 S2 I2 N2 O12'
_cell_volume   647.41306313
_cell_formula_units_Z   2
loop_
 _symmetry_equiv_pos_site_id
 _symmetry_equiv_pos_as_xyz
  1  'x, y, z'
loop_
 _atom_site_type_symbol
 _atom_site_label
 _atom_site_symmetry_multiplicity
 _atom_site_fract_x
 _atom_site_fract_y
 _atom_site_fract_z
 _atom_site_occupancy
 _atom_site_hle17_bader_spin_density
 _atom_site_hle17_ddec_charge
 _atom_site_hle17_ddec_spin_density
 _atom_site_hle17_ddec_sum_bond_order
 _atom_site_hle17_magmom
 _atom_site_hse06_10hf_bader_spin_density
 _atom_site_hse06_10hf_ddec_charge
 _atom_site_hse06_10hf_ddec_spin_density
 _atom_site_hse06_10hf_ddec_sum_bond_order
 _atom_site_hse06_10hf_magmom
 _atom_site_hse06_bader_spin_density
 _atom_site_hse06_ddec_charge
 _atom_site_hse06_ddec_spin_density
 _atom_site_hse06_ddec_sum_bond_order
 _atom_site_hse06_magmom
 _atom_site_pbe_bader_spin_density
 _atom_site_pbe_cm5_charge
 _atom_site_pbe_ddec_charge
 _atom_site_pbe_ddec_spin_density
 _atom_site_pbe_ddec_sum_bond_order
 _atom_site_pbe_magmom
Cd  Cd0  1  0.82005543  0.16484420  0.65128926  1  0  1.247739  0  1.578294  0  0  1.069227  0  2.018838  0  0  1.122817  0  1.964243  0  0  0.795172  1.032393  0  2.055525  0
Cd  Cd1  1  0.17994118  0.83515021  0.34870725  1  0  1.24767  0  1.578353  0  0  1.069191  0  2.018858  0  0  1.122776  0  1.96427  0  0  0.795169  1.03236  0  2.055539  0
H  H2  1  0.97309891  0.41774304  0.62643156  1  0  0.405952  0  0.904143  0  0  0.374589  0  0.971777  0  0  0.384801  0  0.957009  0  0  0.285122  0.367634  0  0.981623  0
H  H3  1  0.02689757  0.58225549  0.37356293  1  0  0.406066  0  0.903995  0  0  0.374684  0  0.971655  0  0  0.384897  0  0.956884  0  0  0.285174  0.367728  0  0.981503  0
H  H4  1  0.29758940  0.68529314  0.09354786  1  0  0.070668  0  0.977839  0  0  0.077452  0  1.049929  0  0  0.080056  0  1.047058  0  0  0.101257  0.076737  0  1.049593  0
H  H5  1  0.70239034  0.31470671  0.90644089  1  0  0.070692  0  0.977808  0  0  0.077464  0  1.049923  0  0  0.080066  0  1.047055  0  0  0.101239  0.076735  0  1.049596  0
H  H6  1  0.77349141  0.46022179  0.56605831  1  0  0.436511  0  0.85541  0  0  0.405937  0  0.917136  0  0  0.416608  0  0.901558  0  0  0.293958  0.399136  0  0.926913  0
H  H7  1  0.22650806  0.53977588  0.43393191  1  0  0.436607  0  0.855297  0  0  0.405947  0  0.917145  0  0  0.416651  0  0.901533  0  0  0.293973  0.399146  0  0.926922  0
H  H8  1  0.36893099  0.74741271  0.82640184  1  0  0.094968  0  0.953327  0  0  0.105225  0  1.015067  0  0  0.10905  0  1.012679  0  0  0.101314  0.10198  0  1.0178  0
H  H9  1  0.63106971  0.25259516  0.17358560  1  0  0.094929  0  0.95336  0  0  0.105194  0  1.015077  0  0  0.109019  0  1.012688  0  0  0.101305  0.101949  0  1.017812  0
H  H10  1  0.78091399  0.21890643  0.37672529  1  0  0.416012  0  0.83868  0  0  0.393995  0  0.903011  0  0  0.402221  0  0.893664  0  0  0.309708  0.388079  0  0.909734  0
H  H11  1  0.21909911  0.78109110  0.62326685  1  0  0.416078  0  0.838572  0  0  0.394071  0  0.902882  0  0  0.402299  0  0.893532  0  0  0.30973  0.388157  0  0.909604  0
H  H12  1  0.35101089  0.99206701  0.68928240  1  0  0.121428  0  0.941281  0  0  0.131859  0  0.998005  0  0  0.135841  0  0.994229  0  0  0.114011  0.129001  0  1.000687  0
H  H13  1  0.64900338  0.00794854  0.31071400  1  0  0.121402  0  0.941467  0  0  0.13192  0  0.998072  0  0  0.135906  0  0.99429  0  0  0.114011  0.129061  0  1.000759  0
H  H14  1  0.98157102  0.12676228  0.36505912  1  0  0.434973  0  0.86907  0  0  0.399961  0  0.938674  0  0  0.41159  0  0.922106  0  0  0.286342  0.391658  0  0.950582  0
H  H15  1  0.01843769  0.87323301  0.63493929  1  0  0.434923  0  0.869137  0  0  0.399901  0  0.93876  0  0  0.41153  0  0.922192  0  0  0.286311  0.391596  0  0.950672  0
H  H16  1  0.23073409  0.40870881  0.84353626  1  0  0.104034  0  0.968625  0  0  0.110324  0  1.038248  0  0  0.113965  0  1.035062  0  0  0.096046  0.107299  0  1.041161  0
H  H17  1  0.76927613  0.59129608  0.15647553  1  0  0.103987  0  0.968737  0  0  0.110328  0  1.038284  0  0  0.113969  0  1.03512  0  0  0.096042  0.107302  0  1.0412  0
C  C18  1  0.29198928  0.79136559  0.03076367  1  0  0.148042  0  3.716344  0  0  0.113212  0  3.976848  0  0  0.121737  0  3.994508  0  0  0.046816  0.107113  0  3.964074  0
C  C19  1  0.70799523  0.20863082  0.96923525  1  0  0.148024  0  3.716612  0  0  0.113192  0  3.977081  0  0  0.121718  0  3.994744  0  0  0.046829  0.107104  0  3.964309  0
C  C20  1  0.32998821  0.82741621  0.88081484  1  0  -0.106809  0  3.735567  0  0  -0.124668  0  3.998244  0  0  -0.12937  0  4.016044  0  0  -0.088207  -0.120889  0  3.986501  0
C  C21  1  0.67000809  0.17258849  0.11917710  1  0  -0.10683  0  3.735703  0  0  -0.12468  0  3.998409  0  0  -0.129384  0  4.01621  0  0  -0.088274  -0.120903  0  3.986663  0
C  C22  1  0.32311249  0.96313131  0.80552354  1  0  -0.040178  0  3.641984  0  0  -0.068327  0  3.901239  0  0  -0.064637  0  3.913796  0  0  -0.066637  -0.0705  0  3.891882  0
C  C23  1  0.67689147  0.03687410  0.19447504  1  0  -0.040132  0  3.642154  0  0  -0.068344  0  3.901391  0  0  -0.064652  0  3.913947  0  0  -0.06656  -0.07052  0  3.892042  0
C  C24  1  0.26842428  0.20811486  0.81424092  1  0  -0.23037  0  3.781395  0  0  -0.211836  0  4.045778  0  0  -0.224816  0  4.071368  0  0  -0.050204  -0.203707  0  4.028721  0
C  C25  1  0.73157227  0.79188832  0.18576441  1  0  -0.230097  0  3.781261  0  0  -0.211524  0  4.045623  0  0  -0.224497  0  4.071204  0  0  -0.050135  -0.203396  0  4.028564  0
C  C26  1  0.23427825  0.29973553  0.89658906  1  0  -0.064046  0  3.82414  0  0  -0.102138  0  4.086942  0  0  -0.0967  0  4.107476  0  0  -0.098584  -0.10494  0  4.072219  0
C  C27  1  0.76572897  0.70026645  0.10341992  1  0  -0.064039  0  3.824478  0  0  -0.102141  0  4.087228  0  0  -0.096713  0  4.107757  0  0  -0.098541  -0.10494  0  4.072495  0
C  C28  1  0.20404315  0.25437014  0.04588622  1  0  -0.125672  0  3.678853  0  0  -0.099891  0  3.945399  0  0  -0.108678  0  3.971216  0  0  -0.079475  -0.094123  0  3.9273  0
C  C29  1  0.79597028  0.74562375  0.95412184  1  0  -0.125819  0  3.67896  0  0  -0.100118  0  3.945629  0  0  -0.108904  0  3.971452  0  0  -0.079614  -0.094347  0  3.92753  0
C  C30  1  0.20010610  0.11454590  0.12080796  1  0  0.278513  0  3.907777  0  0  0.253  0  4.173062  0  0  0.269933  0  4.189528  0  0  0.080218  0.240492  0  4.162695  0
C  C31  1  0.79990111  0.88545128  0.87919421  1  0  0.2786  0  3.907833  0  0  0.253087  0  4.173178  0  0  0.270019  0  4.189644  0  0  0.080293  0.240573  0  4.16281  0
C  C32  1  0.27783637  0.06476210  0.88028130  1  0  0.03926  0  3.77817  0  0  0.044589  0  4.017422  0  0  0.045784  0  4.040985  0  0  -0.006573  0.044205  0  4.001272  0
C  C33  1  0.72215856  0.93524230  0.11971896  1  0  0.039172  0  3.778153  0  0  0.044452  0  4.017473  0  0  0.045646  0  4.041031  0  0  -0.006612  0.044068  0  4.001324  0
C  C34  1  0.24193735  0.01944725  0.03287416  1  0  0.096966  0  3.718917  0  0  0.093342  0  3.959657  0  0  0.09397  0  3.983131  0  0  0.096764  0.092681  0  3.944123  0
C  C35  1  0.75806383  0.98055091  0.96712972  1  0  0.097011  0  3.718828  0  0  0.093374  0  3.959605  0  0  0.094002  0  3.983079  0  0  0.096781  0.092715  0  3.944069  0
S  S36  1  0.30276003  0.27269915  0.62643444  1  0  1.334614  0  5.606708  0  0  1.233203  0  6.120532  0  0  1.281688  0  6.099164  0  0  0.516804  1.200116  0  6.133613  0
S  S37  1  0.69723656  0.72730297  0.37357216  1  0  1.334259  0  5.606878  0  0  1.23283  0  6.120711  0  0  1.281313  0  6.099344  0  0  0.516668  1.199746  0  6.133791  0
I  I38  1  0.17698188  0.39765578  0.16452333  1  0  0.026283  0  1.425863  0  0  0.012657  0  1.731851  0  0  0.011126  0  1.720288  0  0  0.110593  0.013804  0  1.738506  0
I  I39  1  0.82301206  0.60233590  0.83549236  1  0  0.026286  0  1.425818  0  0  0.012701  0  1.731824  0  0  0.011166  0  1.720262  0  0  0.110602  0.013849  0  1.738477  0
N  N40  1  0.24916850  0.88433931  0.10331592  1  0  -0.380475  0  3.307073  0  0  -0.306002  0  3.574353  0  0  -0.326303  0  3.594983  0  0  -0.332959  -0.29238  0  3.559976  0
N  N41  1  0.75082491  0.11566319  0.89668105  1  0  -0.380532  0  3.306991  0  0  -0.306054  0  3.57432  0  0  -0.326356  0  3.594949  0  0  -0.332967  -0.292429  0  3.559933  0
O  O42  1  0.17473794  0.19210692  0.57884281  1  0  -0.688178  0  2.029252  0  0  -0.628295  0  2.302189  0  0  -0.651481  0  2.2846  0  0  -0.344835  -0.612051  0  2.313255  0
O  O43  1  0.82525868  0.80789513  0.42116581  1  0  -0.688023  0  2.029057  0  0  -0.628216  0  2.302091  0  0  -0.651402  0  2.284509  0  0  -0.344803  -0.611971  0  2.313156  0
O  O44  1  0.82695782  0.39809998  0.64657637  1  0  -0.826993  0  1.891749  0  0  -0.758468  0  2.084683  0  0  -0.782094  0  2.052874  0  0  -0.580652  -0.741828  0  2.10397  0
O  O45  1  0.17304169  0.60189663  0.35341512  1  0  -0.827191  0  1.891567  0  0  -0.758568  0  2.084612  0  0  -0.782235  0  2.052711  0  0  -0.580704  -0.741928  0  2.103905  0
O  O46  1  0.51719119  0.25643351  0.56359037  1  0  -0.680903  0  2.000465  0  0  -0.617143  0  2.266855  0  0  -0.641058  0  2.249131  0  0  -0.345857  -0.600441  0  2.277628  0
O  O47  1  0.48280549  0.74356457  0.43641624  1  0  -0.680769  0  2.000657  0  0  -0.617006  0  2.267048  0  0  -0.640919  0  2.249325  0  0  -0.345798  -0.600306  0  2.277824  0
O  O48  1  0.84897935  0.14013371  0.42926017  1  0  -0.81451  0  1.89588  0  0  -0.747881  0  2.096324  0  0  -0.77081  0  2.067262  0  0  -0.576538  -0.731139  0  2.116219  0
O  O49  1  0.15102180  0.85986067  0.57073665  1  0  -0.814526  0  1.895854  0  0  -0.747934  0  2.09635  0  0  -0.770852  0  2.067263  0  0  -0.576543  -0.731192  0  2.116249  0
O  O50  1  0.23757563  0.41824110  0.60029954  1  0  -0.683498  0  1.998797  0  0  -0.617836  0  2.230844  0  0  -0.639329  0  2.214927  0  0  -0.334719  -0.603579  0  2.240681  0
O  O51  1  0.76242690  0.58176126  0.39970005  1  0  -0.683456  0  1.998902  0  0  -0.617787  0  2.230942  0  0  -0.639272  0  2.215015  0  0  -0.334682  -0.603532  0  2.240781  0
O  O52  1  0.16705150  0.06968491  0.25938476  1  0  -0.61429  0  2.106954  0  0  -0.536034  0  2.346511  0  0  -0.565859  0  2.342528  0  0  -0.328875  -0.516689  0  2.35138  0
O  O53  1  0.83297094  0.93030906  0.74061985  1  0  -0.61433  0  2.107095  0  0  -0.536019  0  2.346596  0  0  -0.565846  0  2.342614  0  0  -0.328904  -0.516687  0  2.351499  0
