# generated using pymatgen
data_Cu5H32C40(N6Cl5)2
_symmetry_space_group_name_H-M   'P 1'
_cell_length_a   10.28410110
_cell_length_b   10.51439579
_cell_length_c   11.18955993
_cell_angle_alpha   100.94094197
_cell_angle_beta   104.33246667
_cell_angle_gamma   90.68021742
_symmetry_Int_Tables_number   1
_chemical_formula_structural   Cu5H32C40(N6Cl5)2
_chemical_formula_sum   'Cu5 H32 C40 N12 Cl10'
_cell_volume   1148.76766881
_cell_formula_units_Z   1
loop_
 _symmetry_equiv_pos_site_id
 _symmetry_equiv_pos_as_xyz
  1  'x, y, z'
loop_
 _atom_site_type_symbol
 _atom_site_label
 _atom_site_symmetry_multiplicity
 _atom_site_fract_x
 _atom_site_fract_y
 _atom_site_fract_z
 _atom_site_occupancy
 _atom_site_hle17_ddec_charge
 _atom_site_hle17_ddec_spin_density
 _atom_site_hle17_ddec_sum_bond_order
 _atom_site_hle17_magmom
 _atom_site_hse06_10hf_ddec_charge
 _atom_site_hse06_10hf_ddec_spin_density
 _atom_site_hse06_10hf_ddec_sum_bond_order
 _atom_site_hse06_10hf_magmom
 _atom_site_hse06_ddec_charge
 _atom_site_hse06_ddec_spin_density
 _atom_site_hse06_ddec_sum_bond_order
 _atom_site_hse06_magmom
 _atom_site_pbe_cm5_charge
 _atom_site_pbe_ddec_charge
 _atom_site_pbe_ddec_spin_density
 _atom_site_pbe_ddec_sum_bond_order
 _atom_site_pbe_magmom
Cu  Cu0  1  0.10185769  0.56390276  0.92523358  1  0.673377  0.527154  2.057608  0.374  0.691397  0.665841  2.464261  0.519  0.788217  0.76813  2.378455  0.618  0.441004  0.639087  0.563357  2.518058  0.434
Cu  Cu1  1  0.89805129  0.43608763  0.07411343  1  0.67799  -0.557103  2.060965  -0.397  0.693786  -0.684373  2.46882  -0.534  0.788633  -0.767494  2.384183  -0.624  0.445677  0.645898  -0.614377  2.519466  -0.47
Cu  Cu2  1  0.25357285  0.64835053  0.75614255  1  0.660427  0.590398  2.019564  0.421  0.659386  0.721833  2.416512  0.563  0.759324  0.826795  2.339354  0.667  0.565571  0.605423  0.63035  2.463704  0.486
Cu  Cu3  1  0.74658298  0.35124011  0.24460162  1  0.66087  -0.595041  2.018172  -0.427  0.660243  -0.723441  2.414435  -0.566  0.760385  -0.817438  2.337078  -0.667  0.567137  0.60652  -0.647105  2.461859  -0.496
Cu  Cu4  1  0.00060329  0.49982072  0.49971441  1  0.689777  -0.55947  2.018922  -0.401  0.706515  -0.69475  2.406041  -0.545  0.809397  -0.790152  2.317854  -0.646  0.496934  0.654519  -0.605685  2.457756  -0.465
H  H5  1  0.64027998  0.18394486  0.90225168  1  0.107602  0.000203  0.975051  0.0  0.113802  0.000242  1.046459  0.0  0.116812  0.000206  1.045599  0.0  0.097423  0.111715  0.000241  1.047124  0.0
H  H6  1  0.35975725  0.81607295  0.09771636  1  0.10807  -0.000214  0.974423  0.0  0.11416  -0.000248  1.045884  0.0  0.117101  -0.000204  1.045063  0.0  0.097816  0.112222  -0.000258  1.046433  0.0
H  H7  1  0.43530933  0.30854228  0.86816804  1  0.09157  9.9e-05  0.981934  0.0  0.100991  0.000124  1.0477  0.0  0.1045  8.6e-05  1.045324  0.0  0.087308  0.09894  0.000115  1.048646  0.0
H  H8  1  0.56476746  0.69160898  0.13189945  1  0.091781  -0.000129  0.981843  0.0  0.101242  -0.000158  1.047432  0.0  0.104775  -0.000103  1.045026  0.0  0.087211  0.099146  -0.000166  1.048411  0.0
H  H9  1  0.20804714  0.19966999  0.79476113  1  0.098482  -0.000293  0.948563  0.0  0.108976  -0.000342  1.009421  0.0  0.112093  -0.000274  1.008018  0.0  0.097406  0.106698  -0.000345  1.010415  0.0
H  H10  1  0.79198666  0.80053148  0.20520935  1  0.098529  0.000322  0.949648  0.0  0.108973  0.000344  1.010575  0.0  0.112176  0.000293  1.009032  0.0  0.097435  0.10665  0.000333  1.011683  0.0
H  H11  1  0.17451076  0.95777983  0.75482499  1  0.114116  -0.000276  0.961868  0.0  0.12512  -8e-06  1.021411  0.0  0.129071  2.1e-05  1.01895  0.0  0.097983  0.122519  -3.2e-05  1.022932  0.0
H  H12  1  0.82546156  0.04244940  0.24508401  1  0.113935  -0.000805  0.961538  0.0  0.125236  -0.001176  1.020882  -0.001  0.129117  -0.000958  1.01854  0.0  0.098189  0.122686  -0.001251  1.022288  0.0
H  H13  1  0.78347512  0.81122331  0.90817324  1  0.100685  -0.000588  0.945406  0.0  0.115708  -0.000567  1.008324  0.0  0.118454  -0.000457  1.005326  0.0  0.109974  0.113819  -0.000597  1.01147  0.0
H  H14  1  0.21642014  0.18871777  0.09170057  1  0.100421  0.000585  0.944686  0.0  0.115615  0.000566  1.007262  0.0  0.11834  0.000478  1.004344  0.0  0.110009  0.113624  0.000543  1.010536  0.0
H  H15  1  0.79176428  0.97977105  0.97139729  1  0.095339  -0.000452  0.932076  0.0  0.110203  -0.000616  0.995721  0.0  0.112542  -0.000481  0.993848  0.0  0.109689  0.108959  -0.000645  0.997278  0.0
H  H16  1  0.20822751  0.02015788  0.02850227  1  0.0957  0.00047  0.931691  0.0  0.110365  0.000626  0.995296  0.0  0.112681  0.000494  0.99341  0.0  0.109933  0.109173  0.000665  0.996932  0.0
H  H17  1  0.81944537  0.82252161  0.47655905  1  0.095941  0.000112  0.952314  0.0  0.10371  0.000263  1.016795  0.0  0.106217  0.000213  1.016016  0.0  0.098195  0.102151  0.000256  1.016901  0.0
H  H18  1  0.18064917  0.17733866  0.52338861  1  0.096032  -7e-06  0.952412  0.0  0.103612  -0.000183  1.017  0.0  0.106064  -0.000149  1.016261  0.0  0.098285  0.102123  -0.000174  1.017036  0.0
H  H19  1  0.89776767  0.05115068  0.49703851  1  0.086252  -0.000691  0.977778  0.0  0.097256  -0.000616  1.040838  0.0  0.099979  -0.00044  1.040108  0.0  0.092091  0.095137  -0.00067  1.041987  0.0
H  H20  1  0.10228028  0.94868952  0.50287980  1  0.086632  -9.6e-05  0.977729  0.0  0.097292  -0.000179  1.040851  0.0  0.100035  -0.00014  1.040043  0.0  0.092098  0.095119  -0.00021  1.042127  0.0
H  H21  1  0.93611509  0.20436808  0.70368350  1  0.095075  -0.000206  0.974264  0.0  0.106074  -0.000293  1.035893  0.0  0.109486  -0.000199  1.033364  0.0  0.088222  0.103619  -0.000298  1.037667  0.0
H  H22  1  0.06382469  0.79556410  0.29618797  1  0.094931  -0.000192  0.974229  0.0  0.105967  -0.000144  1.035934  0.0  0.109424  -0.000101  1.033384  0.0  0.088128  0.103486  -0.000112  1.037734  0.0
H  H23  1  0.86824685  0.13364883  0.88013840  1  0.084952  -0.000609  0.997607  0.0  0.093511  -0.000513  1.06783  0.0  0.097158  -0.000343  1.06556  0.0  0.083024  0.091013  -0.000602  1.069657  0.0
H  H24  1  0.13170051  0.86627646  0.11974335  1  0.085206  0.000617  0.996511  0.0  0.093468  0.000501  1.067034  0.0  0.097046  0.000341  1.064842  0.0  0.083299  0.091129  0.000581  1.068675  0.0
H  H25  1  0.85459536  0.65740040  0.69082951  1  0.109183  -2.2e-05  0.943911  0.0  0.119492  -6.7e-05  1.016144  0.0  0.120457  -2.9e-05  1.015932  0.0  0.110895  0.118742  -0.000106  1.016227  0.0
H  H26  1  0.14547059  0.34253852  0.30915112  1  0.108308  0.000426  0.944047  0.0  0.119035  0.00033  1.016354  0.0  0.120161  0.000268  1.016034  0.0  0.110781  0.117996  0.000356  1.016713  0.0
H  H27  1  0.69349388  0.69062794  0.71503684  1  0.08638  -2.7e-05  0.968035  0.0  0.092468  -5.4e-05  1.048509  0.0  0.093351  -1.9e-05  1.048296  0.0  0.113148  0.092092  -0.000132  1.048238  0.0
H  H28  1  0.30662768  0.30933910  0.28510443  1  0.086291  2.5e-05  0.968196  0.0  0.092463  5.8e-05  1.048694  0.0  0.093408  2.3e-05  1.048464  0.0  0.112935  0.091944  0.000123  1.048538  0.0
H  H29  1  0.43192001  0.45549050  0.16620601  1  0.114828  -8.5e-05  0.971404  0.0  0.118276  -6.5e-05  1.043101  0.0  0.122854  -2.4e-05  1.038634  0.0  0.099017  0.115344  -0.000106  1.04574  0.0
H  H30  1  0.56793613  0.54424931  0.83390549  1  0.114568  0.000121  0.972044  0.0  0.117978  8.5e-05  1.043664  0.0  0.122578  5e-05  1.039154  0.0  0.098855  0.114991  0.000114  1.046435  0.0
H  H31  1  0.23601965  0.57804512  0.20819823  1  0.088232  -0.000355  0.974026  0.0  0.092602  -0.000344  1.048985  0.0  0.095205  -0.000312  1.04746  0.0  0.087015  0.090166  -0.00032  1.051155  0.0
H  H32  1  0.76407028  0.42222100  0.79163315  1  0.088277  5.4e-05  0.974261  0.0  0.092651  -1.2e-05  1.049197  0.0  0.095269  3.6e-05  1.047657  0.0  0.087012  0.090193  -4.1e-05  1.05136  0.0
H  H33  1  0.25373369  0.73130850  0.40799324  1  0.093612  0.000104  0.986914  0.0  0.104992  2.1e-05  1.048596  0.0  0.108191  1.4e-05  1.046665  0.0  0.094245  0.102442  1.2e-05  1.05056  0.0
H  H34  1  0.74633075  0.26884447  0.59194040  1  0.093282  6.1e-05  0.98679  0.0  0.104863  4.2e-05  1.048278  0.0  0.108054  5.6e-05  1.046424  0.0  0.094242  0.102295  4.6e-05  1.050259  0.0
H  H35  1  0.46938656  0.77808542  0.57354586  1  0.116024  -0.000367  0.952643  -0.001  0.123732  -0.000291  1.014166  0.0  0.126617  -0.000194  1.013727  0.0  0.108131  0.121781  -0.000349  1.014453  0.0
H  H36  1  0.53066467  0.22200744  0.42636845  1  0.116043  0.000365  0.952758  0.001  0.123846  0.000277  1.014187  0.0  0.126782  0.000186  1.01368  0.0  0.108061  0.121807  0.000326  1.014587  0.0
C  C37  1  0.39066478  0.93533576  0.80698330  1  0.113977  -0.000224  3.821506  0.0  0.116037  -0.000203  4.074817  0.0  0.117744  -0.000202  4.098054  0.0  0.088677  0.114469  -2e-05  4.061971  0.0
C  C38  1  0.60929011  0.06478456  0.19295011  1  0.113521  0.00012  3.82174  0.0  0.115673  -0.000174  4.074681  0.0  0.11739  -0.000125  4.097879  0.0  0.08826  0.114065  -0.000377  4.06201  0.0
C  C39  1  0.52068265  0.99893958  0.84652589  1  0.092286  -0.000749  3.775968  -0.001  0.078981  -3.6e-05  4.019001  0.0  0.083631  4.2e-05  4.039937  0.0  0.102795  0.067902  -0.000141  4.0033  0.0
C  C40  1  0.47929456  0.00115432  0.15342916  1  0.09232  0.000594  3.775974  0.001  0.079136  2e-05  4.018892  0.0  0.083726  -2e-06  4.03993  0.0  0.102647  0.067863  2.9e-05  4.002906  0.0
C  C41  1  0.54068618  0.13441379  0.86901223  1  -0.129884  0.004297  3.726874  0.004  -0.150996  0.000651  3.984545  0.001  -0.155367  0.000339  4.005727  0.0  -0.092971  -0.147664  0.000758  3.971142  0.001
C  C42  1  0.45931360  0.86568567  0.13097841  1  -0.129692  -0.004175  3.725967  -0.004  -0.150984  -0.00069  3.983874  -0.001  -0.155402  -0.000379  4.005217  0.0  -0.092839  -0.147584  -0.000905  3.970198  -0.001
C  C43  1  0.42535485  0.20295150  0.84965623  1  -0.04005  0.000375  3.731328  0.0  -0.061101  0.000239  3.987968  0.0  -0.061509  0.000144  4.008542  0.0  -0.088062  -0.060606  0.00026  3.972735  0.0
C  C44  1  0.57467064  0.79719806  0.15039941  1  -0.039992  -0.000406  3.729591  0.0  -0.061102  -0.000311  3.98654  0.0  -0.061517  -0.000165  4.007082  0.0  -0.088113  -0.06058  -0.000384  3.971243  0.0
C  C45  1  0.29473681  0.14023756  0.80814663  1  -0.065771  -0.000299  3.737108  0.0  -0.081674  -0.00017  3.992674  0.0  -0.084224  -0.000133  4.013843  0.0  -0.091137  -0.079672  -0.000219  3.977618  0.0
C  C46  1  0.70528747  0.85994042  0.19186299  1  -0.065335  8.2e-05  3.736843  0.0  -0.08124  -4.3e-05  3.9923  0.0  -0.083767  2.5e-05  4.013373  0.0  -0.09114  -0.079203  3.1e-05  3.977312  0.0
C  C47  1  0.27474985  0.00619311  0.78612371  1  -0.126179  0.003735  3.72263  0.003  -0.145653  0.000675  3.968837  0.001  -0.147288  0.000413  3.987498  0.0  -0.090338  -0.144021  0.000449  3.955474  0.0
C  C48  1  0.72523300  0.99398234  0.21384127  1  -0.1262  -0.005053  3.722247  -0.004  -0.145628  -0.002056  3.96812  -0.002  -0.147243  -0.001462  3.986779  -0.001  -0.090325  -0.144088  -0.002016  3.954825  -0.002
C  C49  1  0.75353326  0.90546615  0.88576711  1  -0.052936  -0.000747  3.629257  -0.001  -0.123352  -0.00074  3.879707  -0.001  -0.11901  -0.000538  3.886871  -0.001  -0.044911  -0.133693  -0.001142  3.872501  -0.001
C  C50  1  0.24641129  0.09449122  0.11411630  1  -0.053147  0.000605  3.629157  0.001  -0.123102  0.000642  3.879312  0.001  -0.118724  0.000497  3.886473  0.001  -0.044868  -0.133827  0.001012  3.872179  0.001
C  C51  1  0.80388195  0.93894140  0.77850506  1  0.019055  0.001867  3.714483  0.002  0.034745  0.00048  3.952667  0.0  0.033502  0.000195  3.976605  0.0  -0.019998  0.035809  0.000514  3.937449  0.0
C  C52  1  0.19609090  0.06098957  0.22138793  1  0.019352  -0.001527  3.714103  -0.001  0.034378  -0.000444  3.952827  0.0  0.033158  -0.000159  3.976751  0.0  -0.020371  0.03534  -0.000618  3.937797  0.0
C  C53  1  0.79533677  0.84869041  0.66571117  1  0.033067  -0.000685  3.710058  -0.001  0.044211  7.8e-05  3.95722  0.0  0.043063  0.000193  3.980693  0.0  -0.014381  0.044839  0.000137  3.941456  0.0
C  C54  1  0.20462997  0.15120945  0.33418905  1  0.032811  0.000166  3.70961  0.0  0.044291  -0.0002  3.956894  0.0  0.043162  -0.000234  3.980368  0.0  -0.014215  0.044887  -0.000266  3.941132  0.0
C  C55  1  0.82828041  0.89093045  0.56506462  1  -0.111129  0.00216  3.755104  0.002  -0.134457  0.000452  4.011056  0.0  -0.136384  0.000205  4.031865  0.0  -0.097751  -0.133326  0.000586  3.99708  0.0
C  C56  1  0.17172313  0.10894976  0.43485191  1  -0.111161  -0.002681  3.755675  -0.002  -0.134121  -0.00058  4.011277  0.0  -0.136012  -0.000232  4.032145  0.0  -0.09783  -0.132969  -0.000955  3.997186  -0.001
C  C57  1  0.87501563  0.01902060  0.57698387  1  -0.06018  0.002942  3.766338  0.003  -0.073858  0.000344  4.013101  0.0  -0.075701  0.000213  4.034353  0.0  -0.091618  -0.072404  0.000525  3.999163  0.0
C  C58  1  0.12496752  0.98086941  0.42292986  1  -0.059859  -0.003804  3.765828  -0.003  -0.073493  -0.001022  4.012674  -0.001  -0.075339  -0.000645  4.03387  -0.001  -0.091393  -0.072087  -0.001521  3.998857  -0.001
C  C59  1  0.89445594  0.10545714  0.69187799  1  -0.065565  -0.00206  3.767613  -0.002  -0.076588  -0.000515  4.011925  -0.001  -0.078964  -0.000381  4.033914  0.0  -0.094806  -0.074869  -0.000517  3.996823  -0.001
C  C60  1  0.10550567  0.89447099  0.30801017  1  -0.065465  0.002023  3.766785  0.002  -0.076605  0.000175  4.011396  0.0  -0.078991  0.000179  4.03338  0.0  -0.094782  -0.074933  0.000195  3.996357  0.0
C  C61  1  0.85689958  0.06544265  0.79105735  1  -0.111277  0.003806  3.750745  0.003  -0.13181  0.000653  3.99644  0.0  -0.134926  0.000435  4.018615  0.0  -0.097905  -0.12931  0.000741  3.980405  0.0
C  C62  1  0.14306410  0.93448644  0.20883056  1  -0.110842  -0.004865  3.749694  -0.004  -0.131233  -0.000824  3.995896  -0.001  -0.13435  -0.000488  4.018123  0.0  -0.097483  -0.128718  -0.000977  3.979754  -0.001
C  C63  1  0.76226216  0.70616635  0.65747454  1  -0.063803  -0.000564  3.636497  -0.001  -0.139202  -0.000476  3.879329  -0.001  -0.135703  -0.000406  3.889027  -0.001  -0.047228  -0.141224  -0.000495  3.872293  0.0
C  C64  1  0.23775983  0.29374333  0.34255609  1  -0.063495  0.000788  3.637276  0.001  -0.139784  0.000652  3.880216  0.001  -0.136465  0.000572  3.889914  0.001  -0.047522  -0.141628  0.000641  3.87334  0.001
C  C65  1  0.57065419  0.63984834  0.46114072  1  0.093733  -0.004303  3.780276  -0.005  0.068126  -0.002776  4.024147  -0.003  0.072116  -0.002525  4.043786  -0.003  0.107613  0.066434  -0.002811  4.00941  -0.003
C  C66  1  0.42927799  0.35997892  0.53891898  1  0.094264  0.004278  3.781565  0.005  0.068739  0.002777  4.024744  0.003  0.072822  0.002586  4.044166  0.003  0.10747  0.066949  0.002756  4.010219  0.003
C  C67  1  0.56094409  0.54832483  0.34851335  1  0.122548  -0.001893  3.795677  -0.002  0.120458  -0.002434  4.053557  -0.003  0.12328  -0.001145  4.076475  -0.001  0.096137  0.119653  -0.003471  4.03735  -0.004
C  C68  1  0.43889109  0.45123674  0.65169132  1  0.122904  0.001476  3.79709  0.002  0.120202  0.002325  4.055695  0.003  0.123038  0.001115  4.078646  0.001  0.095851  0.119252  0.002987  4.039453  0.004
C  C69  1  0.44029625  0.52521206  0.25337027  1  -0.126207  -0.002684  3.722267  -0.002  -0.146605  -0.000877  3.975042  -0.001  -0.147944  -0.001152  3.992168  -0.001  -0.089358  -0.145918  -0.000415  3.962428  0.0
C  C70  1  0.55961653  0.47456453  0.74672942  1  -0.125671  0.002466  3.722596  0.002  -0.14564  0.00093  3.975317  0.001  -0.146989  0.001228  3.992416  0.001  -0.088798  -0.144925  0.000347  3.96277  0.0
C  C71  1  0.33269506  0.59430019  0.27786795  1  -0.053211  0.003049  3.719084  0.003  -0.06565  0.000873  3.968239  0.001  -0.068331  0.00103  3.990244  0.001  -0.089434  -0.063976  0.000716  3.954133  0.001
C  C72  1  0.66730470  0.40574209  0.72209167  1  -0.053558  -0.002958  3.719692  -0.003  -0.065874  -0.000953  3.968352  -0.001  -0.06843  -0.001098  3.990108  -0.001  -0.089431  -0.06442  -0.000778  3.954674  -0.001
C  C73  1  0.34274308  0.68327823  0.39240259  1  -0.034225  -0.002812  3.719607  -0.003  -0.053835  -0.000715  3.968689  -0.001  -0.053372  -0.000981  3.988347  -0.001  -0.084333  -0.05357  -0.000549  3.955536  -0.001
C  C74  1  0.65726837  0.31678942  0.60752855  1  -0.033662  0.002589  3.720389  0.002  -0.052947  0.000781  3.968561  0.001  -0.052427  0.001092  3.988023  0.001  -0.084264  -0.052827  0.00058  3.955769  0.001
C  C75  1  0.46188242  0.70934678  0.48586031  1  -0.130863  0.002156  3.72118  0.002  -0.15003  0.000405  3.980168  0.001  -0.153906  0.000721  3.999153  0.001  -0.089328  -0.147471  0.00015  3.96664  0.0
C  C76  1  0.53813590  0.29067410  0.51409064  1  -0.132567  -0.002217  3.722783  -0.002  -0.15135  -0.000349  3.981123  0.0  -0.155133  -0.000682  3.999854  -0.001  -0.089898  -0.148932  -0.000147  3.96797  0.0
N  N77  1  0.40683338  0.80393380  0.79722859  1  -0.263975  -0.002159  3.21745  -0.001  -0.245603  -0.001766  3.549323  -0.001  -0.264151  -0.001377  3.56383  -0.001  -0.228958  -0.234752  -0.002105  3.543315  -0.002
N  N78  1  0.59306161  0.19616478  0.20263017  1  -0.264271  0.000529  3.219152  0.0  -0.245719  0.000457  3.551123  0.0  -0.264297  0.000554  3.56549  0.0  -0.228918  -0.23495  4.7e-05  3.545437  -0.001
N  N79  1  0.53556753  0.78430398  0.82718589  1  -0.064697  -0.001005  2.903651  -0.001  -0.064554  -0.000633  3.19978  -0.001  -0.057668  -0.000534  3.211653  -0.001  -0.073318  -0.0762  -0.00053  3.18779  -0.001
N  N80  1  0.46430890  0.21575881  0.17265322  1  -0.064178  0.001205  2.904325  0.001  -0.06396  0.000691  3.200433  0.001  -0.057018  0.000608  3.212242  0.001  -0.073614  -0.075983  0.00049  3.188338  0.001
N  N81  1  0.60599989  0.89994585  0.85709362  1  0.010574  0.000129  3.492539  0.0  0.096251  -0.000417  3.716848  -0.001  0.085153  -0.000365  3.740352  -0.001  -0.120825  0.126441  -0.000415  3.673171  -0.001
N  N82  1  0.39394648  0.10011056  0.14280296  1  0.010178  -0.000176  3.494115  0.0  0.095383  0.00038  3.718589  0.0  0.084233  0.000334  3.742154  0.0  -0.120354  0.126665  0.000344  3.673604  0.0
N  N83  1  0.70006335  0.63604266  0.53027301  1  0.041023  0.000731  3.511892  0.0  0.157008  -0.000682  3.692603  -0.001  0.14996  0.000365  3.712894  0.0  -0.113858  0.161089  -0.001893  3.680283  -0.003
N  N84  1  0.29987233  0.36370172  0.46983667  1  0.03935  -0.000797  3.513364  0.0  0.157015  0.000829  3.692368  0.002  0.150287  -0.000166  3.712389  0.0  -0.113567  0.160717  0.001497  3.680257  0.003
N  N85  1  0.76617195  0.54978165  0.46734194  1  -0.05841  0.004949  3.031154  0.006  -0.066944  0.001897  3.323356  0.002  -0.068006  0.003336  3.338823  0.004  -0.080771  -0.06695  -0.000638  3.316805  -0.001
N  N86  1  0.23354869  0.44955020  0.53301926  1  -0.058292  -0.003154  3.032582  -0.006  -0.066594  0.000318  3.324601  -0.001  -0.067797  -0.000615  3.340044  -0.003  -0.081989  -0.066771  7.8e-05  3.318051  -0.002
N  N87  1  0.68464752  0.49609291  0.35919471  1  -0.221186  -0.062864  3.278752  -0.078  -0.19305  -0.052322  3.602186  -0.069  -0.218784  -0.045815  3.625881  -0.064  -0.231529  -0.180617  -0.052436  3.591076  -0.067
N  N88  1  0.31511848  0.50320699  0.64129776  1  -0.221271  0.062177  3.275682  0.076  -0.193338  0.052309  3.599579  0.069  -0.219071  0.04642  3.623495  0.064  -0.231171  -0.180962  0.051035  3.588262  0.065
Cl  Cl89  1  0.08554563  0.37904075  0.00126673  1  -0.377601  -0.006558  1.230644  -0.007  -0.370098  -0.003299  1.545554  -0.003  -0.414972  -0.001257  1.516134  -0.001  -0.218952  -0.345694  -0.007757  1.567166  -0.008
Cl  Cl90  1  0.91449052  0.62212842  0.99967578  1  -0.381834  -0.003948  1.223049  -0.004  -0.373124  -0.002684  1.535855  -0.002  -0.416722  -0.001654  1.506246  -0.002  -0.222261  -0.350724  -0.009892  1.557951  -0.011
Cl  Cl91  1  0.12161193  0.76516841  0.88346443  1  -0.374048  0.196318  1.239436  0.226  -0.379621  0.144821  1.558462  0.178  -0.428913  0.118355  1.536414  0.15  -0.214162  -0.356792  0.147973  1.575516  0.178
Cl  Cl92  1  0.87729827  0.23456286  0.11521101  1  -0.376245  -0.194077  1.236607  -0.226  -0.381952  -0.143828  1.555024  -0.177  -0.430797  -0.116567  1.532676  -0.15  -0.213907  -0.358818  -0.149582  1.571755  -0.179
Cl  Cl93  1  0.32506689  0.54404466  0.92765571  1  -0.373139  0.182869  1.185558  0.212  -0.377059  0.13393  1.502809  0.166  -0.422775  0.109723  1.478426  0.141  -0.218203  -0.353454  0.135154  1.520961  0.164
Cl  Cl94  1  0.67626742  0.45745249  0.07358611  1  -0.369269  -0.18784  1.187416  -0.219  -0.374672  -0.136433  1.504965  -0.17  -0.421805  -0.109457  1.481212  -0.143  -0.21597  -0.349706  -0.142902  1.522276  -0.173
Cl  Cl95  1  0.10189907  0.70594119  0.58784899  1  -0.364992  0.033615  1.26722  0.041  -0.379562  0.013401  1.600834  0.019  -0.428924  0.006131  1.578889  0.009  -0.217496  -0.353858  0.018494  1.617818  0.026
Cl  Cl96  1  0.89897991  0.29372464  0.41193572  1  -0.35629  -0.209043  1.267398  -0.244  -0.376925  -0.145314  1.602879  -0.18  -0.427511  -0.11357  1.581534  -0.146  -0.215291  -0.351025  -0.153714  1.61963  -0.186
Cl  Cl97  1  0.99408964  0.55130341  0.30445724  1  -0.516176  -0.093507  1.171035  -0.112  -0.53589  -0.065698  1.492487  -0.084  -0.576831  -0.05169  1.465321  -0.069  -0.284756  -0.50894  -0.069092  1.511254  -0.087
Cl  Cl98  1  0.00515701  0.44901366  0.69589084  1  -0.521886  -0.116347  1.168235  -0.133  -0.539061  -0.075232  1.488972  -0.09  -0.578765  -0.059023  1.461308  -0.073  -0.287125  -0.512901  -0.082687  1.508314  -0.098
