# generated using pymatgen
data_MnH26C22(N3O4)2
_symmetry_space_group_name_H-M   'P 1'
_cell_length_a   7.23565384
_cell_length_b   8.30464955
_cell_length_c   11.60964583
_cell_angle_alpha   101.43831394
_cell_angle_beta   90.50781059
_cell_angle_gamma   108.37537871
_symmetry_Int_Tables_number   1
_chemical_formula_structural   MnH26C22(N3O4)2
_chemical_formula_sum   'Mn1 H26 C22 N6 O8'
_cell_volume   646.98562012
_cell_formula_units_Z   1
loop_
 _symmetry_equiv_pos_site_id
 _symmetry_equiv_pos_as_xyz
  1  'x, y, z'
loop_
 _atom_site_type_symbol
 _atom_site_label
 _atom_site_symmetry_multiplicity
 _atom_site_fract_x
 _atom_site_fract_y
 _atom_site_fract_z
 _atom_site_occupancy
 _atom_site_hle17_ddec_charge
 _atom_site_hle17_ddec_spin_density
 _atom_site_hle17_ddec_sum_bond_order
 _atom_site_hle17_magmom
 _atom_site_hse06_10hf_ddec_charge
 _atom_site_hse06_10hf_ddec_spin_density
 _atom_site_hse06_10hf_ddec_sum_bond_order
 _atom_site_hse06_10hf_magmom
 _atom_site_hse06_ddec_charge
 _atom_site_hse06_ddec_spin_density
 _atom_site_hse06_ddec_sum_bond_order
 _atom_site_hse06_magmom
 _atom_site_pbe_cm5_charge
 _atom_site_pbe_ddec_charge
 _atom_site_pbe_ddec_spin_density
 _atom_site_pbe_ddec_sum_bond_order
 _atom_site_pbe_magmom
Mn  Mn0  1  0.49993889  0.49997798  0.49999524  1  1.149519  4.80109  1.807946  4.685  0.989446  4.729213  2.300922  4.547  1.044161  4.76672  2.234203  4.603  0.591473  0.94664  4.692752  2.350414  4.495
H  H1  1  0.82495931  0.51235100  0.39595863  1  0.408007  -0.000121  0.90997  0.0  0.374523  0.000516  0.978681  0.001  0.387093  0.000286  0.960495  0.001  0.282093  0.365605  0.000737  0.991557  0.001
H  H2  1  0.17500571  0.48769243  0.60407407  1  0.408092  -0.000121  0.909741  0.0  0.374579  0.000517  0.978499  0.001  0.387156  0.000286  0.960308  0.001  0.282087  0.365656  0.000738  0.991373  0.001
H  H3  1  0.91597854  0.58101779  0.53063774  1  0.419159  0.000224  0.834213  0.001  0.402387  0.001282  0.887529  0.002  0.411689  0.000738  0.876773  0.002  0.316891  0.395416  0.001878  0.895703  0.002
H  H4  1  0.08381366  0.41921746  0.46942181  1  0.419265  0.000232  0.834297  0.001  0.402427  0.00129  0.887742  0.002  0.411744  0.000744  0.876956  0.002  0.316716  0.395448  0.001887  0.895932  0.002
H  H5  1  0.29044317  0.31894310  0.12501721  1  0.105803  -3.5e-05  0.949261  0.0  0.114008  6.1e-05  1.014001  0.0  0.11829  -1.7e-05  1.010887  0.0  0.108285  0.110807  0.000148  1.016481  0.0
H  H6  1  0.70957474  0.68103290  0.87498921  1  0.105695  -3.1e-05  0.949223  0.0  0.113917  6.1e-05  1.013963  0.0  0.118223  -1.6e-05  1.010822  0.0  0.108245  0.110744  0.000148  1.01641  0.0
H  H7  1  0.02539458  0.68277677  0.97291844  1  0.286541  2e-06  0.880755  0.0  0.280129  1.1e-05  0.927624  0.0  0.286125  5e-06  0.924153  0.0  0.320085  0.27586  1.9e-05  0.930171  0.0
H  H8  1  0.97461141  0.31719314  0.02708409  1  0.286575  2e-06  0.88091  0.0  0.280179  1.1e-05  0.927751  0.0  0.286169  5e-06  0.924288  0.0  0.320121  0.275914  1.9e-05  0.930287  0.0
H  H9  1  0.40500400  0.77853197  0.05151632  1  0.073745  1.6e-05  0.963168  0.0  0.091203  2.5e-05  1.027516  0.0  0.090178  2e-05  1.031316  0.0  0.091486  0.091829  3.1e-05  1.024981  0.0
H  H10  1  0.59501828  0.22146332  0.94846239  1  0.07385  2e-05  0.963266  0.0  0.091301  2.5e-05  1.027582  0.0  0.09028  2e-05  1.031367  0.0  0.091536  0.091926  3.1e-05  1.02505  0.0
H  H11  1  0.51182970  0.99591309  0.12380994  1  0.074642  -4e-06  0.938828  0.0  0.094415  -7e-06  0.997844  0.0  0.094949  -8e-06  0.99828  0.0  0.096695  0.093935  -6e-06  0.997675  0.0
H  H12  1  0.48818327  0.00410519  0.87617972  1  0.074727  -3e-06  0.939017  0.0  0.094467  -7e-06  0.998041  0.0  0.094999  -7e-06  0.99848  0.0  0.096689  0.093985  -6e-06  0.997876  0.0
H  H13  1  0.16767843  0.01972536  0.14500144  1  0.075893  -8e-06  0.935891  0.0  0.089729  1e-05  1.000004  0.0  0.091487  -1e-06  0.998158  0.0  0.111391  0.088328  2.5e-05  1.001501  0.0
H  H14  1  0.83232443  0.98024982  0.85498689  1  0.075937  -6e-06  0.935629  0.0  0.08973  1e-05  0.999843  0.0  0.091488  -1e-06  0.997991  0.0  0.11134  0.088328  2.5e-05  1.001345  0.0
H  H15  1  0.24039553  0.98594223  0.99854505  1  0.057575  -8e-06  0.942233  0.0  0.074736  4e-06  1.005477  0.0  0.074243  3e-06  1.006466  0.0  0.101404  0.07496  7e-06  1.00493  0.0
H  H16  1  0.75958974  0.01404313  0.00145403  1  0.057645  2e-06  0.942087  0.0  0.074822  4e-06  1.005329  0.0  0.074325  3e-06  1.006319  0.0  0.101449  0.075044  7e-06  1.004781  0.0
H  H17  1  0.19730014  0.12468027  0.57967651  1  0.106654  -9.6e-05  0.964601  0.0  0.113934  0.00013  1.02928  0.0  0.116238  5.5e-05  1.028698  0.0  0.115857  0.112219  0.000209  1.029894  0.0
H  H18  1  0.80270152  0.87530417  0.42030856  1  0.106585  -9.1e-05  0.964647  0.0  0.113849  0.00013  1.029352  0.0  0.116154  5.4e-05  1.028774  0.0  0.115816  0.112129  0.000209  1.029964  0.0
H  H19  1  0.55875240  0.18879123  0.29806139  1  0.090787  -0.000273  0.944657  0.0  0.102619  0.000136  1.003514  0.0  0.104772  3.8e-05  1.001026  0.0  0.135086  0.101017  0.000235  1.005299  0.0
H  H20  1  0.44129328  0.81119664  0.70194085  1  0.090731  -0.000264  0.944491  0.0  0.102511  0.000136  1.003426  0.0  0.104666  3.8e-05  1.000926  0.0  0.135044  0.100915  0.000236  1.005208  0.0
H  H21  1  0.23336073  0.70964427  0.23173689  1  0.087762  -0.0  0.906053  0.0  0.103751  4e-05  0.964362  0.0  0.10483  9e-06  0.963499  0.0  0.113987  0.10286  7.5e-05  0.96514  0.0
H  H22  1  0.76667827  0.29035956  0.76824967  1  0.08774  -4e-06  0.905652  0.0  0.103672  4e-05  0.964105  0.0  0.104754  9e-06  0.963251  0.0  0.113947  0.102788  7.5e-05  0.96487  0.0
H  H23  1  0.49182114  0.78943743  0.25498704  1  0.083551  -0.000198  0.951765  0.0  0.093353  -0.000164  1.022755  0.0  0.093872  -0.000196  1.022722  0.0  0.108507  0.092838  -0.000125  1.022944  0.0
H  H24  1  0.50820285  0.21056174  0.74499135  1  0.083398  -0.000202  0.95184  0.0  0.093278  -0.000164  1.022743  0.0  0.093825  -0.000196  1.022688  0.0  0.108466  0.092761  -0.000126  1.022928  0.0
H  H25  1  0.13073838  0.80315169  0.42705092  1  0.112314  0.000138  0.958852  0.0  0.122863  0.00032  1.020642  0.0  0.12584  0.000177  1.018408  0.0  0.123674  0.120629  0.000489  1.022447  0.0
H  H26  1  0.86925964  0.19683149  0.57292433  1  0.112324  0.000141  0.958934  0.0  0.122849  0.00032  1.020751  0.0  0.125823  0.000176  1.018517  0.0  0.123656  0.120616  0.000488  1.022551  0.0
C  C27  1  0.56402451  0.51336501  0.11732494  1  -0.050841  0.001255  3.723977  0.001  -0.038412  0.001519  3.962452  0.001  -0.041399  0.001174  3.979215  0.001  -0.006487  -0.036655  0.001881  3.951493  0.002
C  C28  1  0.43599766  0.48662015  0.88269140  1  -0.050483  0.001264  3.723379  0.001  -0.037998  0.001522  3.961834  0.001  -0.040995  0.001177  3.978589  0.001  -0.006266  -0.036256  0.001884  3.9509  0.002
C  C29  1  0.38052833  0.39924250  0.06949495  1  -0.10542  0.000263  3.725228  0.0  -0.138126  0.000683  3.97989  0.001  -0.13774  0.000439  3.995953  0.0  -0.082117  -0.138351  0.000953  3.969348  0.001
C  C30  1  0.61948832  0.60073755  0.93051361  1  -0.105333  0.000249  3.725077  0.0  -0.1381  0.000681  3.979745  0.001  -0.137723  0.000438  3.995817  0.0  -0.082072  -0.138338  0.000951  3.969201  0.001
C  C31  1  0.62855301  0.51464083  0.24120549  1  0.647143  0.00279  3.925022  0.003  0.594734  0.005794  4.227802  0.006  0.628693  0.004347  4.22035  0.005  0.20938  0.571485  0.007251  4.231942  0.007
C  C32  1  0.37144457  0.48535071  0.75880700  1  0.647112  0.002796  3.92504  0.003  0.594685  0.005789  4.227881  0.006  0.62864  0.004343  4.220434  0.005  0.209329  0.571435  0.007246  4.232023  0.007
C  C33  1  0.86353474  0.76484390  0.10167129  1  0.538966  6.6e-05  3.879702  0.0  0.488572  0.000134  4.183476  0.0  0.517459  8.5e-05  4.182139  0.0  0.235857  0.469011  0.000218  4.18385  0.0
C  C34  1  0.13646034  0.23515019  0.89832325  1  0.538957  6e-05  3.879383  0.0  0.488526  0.000135  4.183299  0.0  0.517397  8.2e-05  4.181956  0.0  0.235849  0.468967  0.000218  4.183677  0.0
C  C35  1  0.68436128  0.61697674  0.04742772  1  -0.063152  0.00018  3.749831  0.0  -0.053437  0.000522  3.995524  0.0  -0.055491  0.000367  4.013167  0.0  -0.008721  -0.052323  0.000681  3.983928  0.001
C  C36  1  0.31564536  0.38299184  0.95257641  1  -0.063123  0.000186  3.749609  0.0  -0.053492  0.000518  3.995443  0.0  -0.055496  0.00037  4.013013  0.0  -0.008789  -0.052365  0.000679  3.98383  0.001
C  C37  1  0.37997800  0.88238062  0.11796649  1  -0.156137  -7e-06  3.688572  0.0  -0.202244  6.8e-05  3.957506  0.0  -0.204393  5.1e-05  3.97189  0.0  -0.162758  -0.200594  9.1e-05  3.947566  0.0
C  C38  1  0.62000812  0.11761782  0.88202556  1  -0.156296  -2.5e-05  3.688831  0.0  -0.202347  7e-05  3.95781  0.0  -0.204491  5.1e-05  3.972193  0.0  -0.162847  -0.2007  9.1e-05  3.947866  0.0
C  C39  1  0.20492827  0.92657892  0.07568749  1  0.05539  1.8e-05  3.660461  0.0  -0.005096  3.3e-05  3.931066  0.0  0.000508  1.7e-05  3.941688  0.0  -0.06449  -0.008813  4.5e-05  3.923757  0.0
C  C40  1  0.79507280  0.07343865  0.92430670  1  0.055063  6e-06  3.660442  0.0  -0.0054  3.2e-05  3.931049  0.0  0.000218  1.7e-05  3.941651  0.0  -0.06455  -0.009108  4.5e-05  3.923732  0.0
C  C41  1  0.26156782  0.09165530  0.49790921  1  -0.007511  0.001673  3.752558  0.003  -0.039329  0.003098  4.021118  0.004  -0.03805  0.002473  4.042168  0.003  -0.003378  -0.040306  0.00372  4.006811  0.004
C  C42  1  0.73844829  0.90833114  0.50207850  1  -0.007336  0.001655  3.752546  0.003  -0.039058  0.003092  4.021059  0.004  -0.037782  0.002469  4.042109  0.003  -0.003228  -0.04003  0.003715  4.006737  0.004
C  C43  1  0.44918099  0.13045714  0.35375975  1  0.154487  0.004692  3.676858  0.005  0.096472  0.0068  3.940234  0.006  0.108914  0.005871  3.955163  0.006  0.138694  0.088365  0.007851  3.929706  0.007
C  C44  1  0.55085736  0.86953236  0.64623974  1  0.154554  0.004658  3.676853  0.005  0.096602  0.006787  3.940289  0.006  0.109049  0.00586  3.955214  0.006  0.138729  0.08849  0.007837  3.92976  0.007
C  C45  1  0.36266677  0.82418698  0.23517639  1  0.004439  0.000317  3.60976  0.0  -0.056093  0.000462  3.86635  0.0  -0.051697  0.000302  3.877546  0.0  -0.052378  -0.058908  0.00063  3.858724  0.001
C  C46  1  0.63734820  0.17579165  0.76481638  1  0.004949  0.000329  3.608987  0.0  -0.055612  0.000461  3.865615  0.0  -0.051257  0.000303  3.876834  0.0  -0.05209  -0.058431  0.00063  3.858002  0.001
C  C47  1  0.22656986  0.93184321  0.42419378  1  -0.050076  -0.000379  3.668519  0.0  -0.092349  0.000468  3.927432  0.0  -0.09079  -0.000161  3.946463  0.0  0.005601  -0.09331  0.001001  3.914754  0.001
C  C48  1  0.77344667  0.06814178  0.57578429  1  -0.050344  -0.000375  3.668809  0.0  -0.092613  0.000471  3.927729  0.0  -0.091065  -0.000159  3.946789  0.0  0.005486  -0.093574  0.001002  3.915044  0.001
N  N49  1  0.40028875  0.21498905  0.45242694  1  -0.397591  0.026557  3.259031  0.012  -0.332188  0.0298  3.553238  0.01  -0.352769  0.026665  3.568577  0.008  -0.352488  -0.31718  0.032605  3.542166  0.012
N  N50  1  0.59973807  0.78499706  0.54757592  1  -0.39748  0.026552  3.258352  0.012  -0.332214  0.029791  3.552686  0.01  -0.352796  0.026659  3.568029  0.008  -0.352497  -0.317196  0.032596  3.541597  0.012
N  N51  1  0.02875437  0.77688448  0.04454339  1  -0.423871  2e-05  3.300398  0.0  -0.370006  5.8e-05  3.553537  0.0  -0.390586  3.1e-05  3.561765  0.0  -0.421551  -0.355842  8.2e-05  3.547497  0.0
N  N52  1  0.97125403  0.22310118  0.95546113  1  -0.423773  2.4e-05  3.300664  0.0  -0.369934  5.7e-05  3.553894  0.0  -0.390515  3.3e-05  3.562116  0.0  -0.421532  -0.355774  8.1e-05  3.54785  0.0
N  N53  1  0.34591868  0.95873059  0.33310596  1  -0.057669  0.001092  3.566832  0.001  0.037813  0.002343  3.782524  0.002  0.023224  0.001787  3.809484  0.002  -0.241658  0.047453  0.002875  3.764196  0.003
N  N54  1  0.65410095  0.04124638  0.66687561  1  -0.057871  0.001102  3.566852  0.001  0.037672  0.00234  3.78255  0.002  0.023084  0.001785  3.809524  0.002  -0.241753  0.047309  0.002872  3.764229  0.003
O  O55  1  0.49697729  0.50320361  0.31399921  1  -0.640737  0.031832  2.030214  0.02  -0.578349  0.039215  2.292029  0.024  -0.607516  0.035202  2.279602  0.021  -0.311365  -0.556676  0.04305  2.29969  0.027
O  O56  1  0.50299303  0.49677062  0.68600387  1  -0.640791  0.031818  2.030401  0.02  -0.578391  0.039209  2.292173  0.024  -0.607555  0.035195  2.279751  0.021  -0.31141  -0.556719  0.043042  2.299834  0.027
O  O57  1  0.80352202  0.51949160  0.26147970  1  -0.62851  0.000561  1.908558  0.001  -0.581019  0.002202  2.120436  0.003  -0.604959  0.001398  2.109156  0.002  -0.331414  -0.564095  0.00302  2.127761  0.004
O  O58  1  0.19649197  0.48054832  0.73856093  1  -0.62853  0.000556  1.908493  0.001  -0.581009  0.0022  2.1204  0.003  -0.604953  0.001395  2.109122  0.002  -0.331359  -0.564083  0.003017  2.127723  0.004
O  O59  1  0.80700510  0.49405069  0.48036565  1  -0.835255  0.028939  1.888687  0.018  -0.780688  0.039849  2.090386  0.025  -0.802743  0.035508  2.056862  0.022  -0.568882  -0.764139  0.043927  2.114304  0.028
O  O60  1  0.19299971  0.50596182  0.51966350  1  -0.835499  0.028977  1.888741  0.018  -0.780907  0.039891  2.09056  0.025  -0.802978  0.035546  2.056985  0.022  -0.568868  -0.764355  0.043973  2.114521  0.028
O  O61  1  0.85171160  0.87443215  0.18878760  1  -0.540965  -5e-05  1.872521  0.0  -0.502682  -2.3e-05  2.083432  0.0  -0.522419  -3.2e-05  2.077529  0.0  -0.303014  -0.488803  1.7e-05  2.087046  0.0
O  O62  1  0.14828955  0.12557741  0.81119959  1  -0.540981  -5.3e-05  1.872376  0.0  -0.502662  -2.1e-05  2.083317  0.0  -0.522404  -3.5e-05  2.077428  0.0  -0.302991  -0.488784  1.7e-05  2.086938  0.0
