# generated using pymatgen
data_CdH4(C2N3)2
_symmetry_space_group_name_H-M   'P 1'
_cell_length_a   13.23812285
_cell_length_b   13.23812954
_cell_length_c   13.23811397
_cell_angle_alpha   59.99978638
_cell_angle_beta   59.99984755
_cell_angle_gamma   59.99980696
_symmetry_Int_Tables_number   1
_chemical_formula_structural   CdH4(C2N3)2
_chemical_formula_sum   'Cd6 H24 C24 N36'
_cell_volume   1640.44742447
_cell_formula_units_Z   6
loop_
 _symmetry_equiv_pos_site_id
 _symmetry_equiv_pos_as_xyz
  1  'x, y, z'
loop_
 _atom_site_type_symbol
 _atom_site_label
 _atom_site_symmetry_multiplicity
 _atom_site_fract_x
 _atom_site_fract_y
 _atom_site_fract_z
 _atom_site_occupancy
 _atom_site_hle17_bader_spin_density
 _atom_site_hle17_ddec_charge
 _atom_site_hle17_ddec_spin_density
 _atom_site_hle17_ddec_sum_bond_order
 _atom_site_hle17_magmom
 _atom_site_hse06_10hf_bader_spin_density
 _atom_site_hse06_10hf_ddec_charge
 _atom_site_hse06_10hf_ddec_spin_density
 _atom_site_hse06_10hf_ddec_sum_bond_order
 _atom_site_hse06_10hf_magmom
 _atom_site_hse06_bader_spin_density
 _atom_site_hse06_ddec_charge
 _atom_site_hse06_ddec_spin_density
 _atom_site_hse06_ddec_sum_bond_order
 _atom_site_hse06_magmom
 _atom_site_pbe_bader_spin_density
 _atom_site_pbe_cm5_charge
 _atom_site_pbe_ddec_charge
 _atom_site_pbe_ddec_spin_density
 _atom_site_pbe_ddec_sum_bond_order
 _atom_site_pbe_magmom
Cd  Cd0  1  0.00000000  0.00000000  0.00000000  1  0  0.87945  0  2.000382  0  0  0.650472  0  2.476117  0  0  0.697668  0  2.438826  0  0  0.786896  0.617215  0  2.501709  0
Cd  Cd1  1  0.49999962  0.99999998  0.99999994  1  0  0.879478  0  2.000345  0  0  0.650485  0  2.476109  0  0  0.697681  0  2.438817  0  0  0.78688  0.617228  0  2.501701  0
Cd  Cd2  1  0.50000047  0.00000034  0.49999945  1  0  0.879375  0  2.000444  0  0  0.650388  0  2.47617  0  0  0.697585  0  2.438882  0  0  0.78688  0.617132  0  2.501761  0
Cd  Cd3  1  0.49999964  0.49999947  0.00000023  1  0  0.879405  0  2.00039  0  0  0.65042  0  2.476117  0  0  0.697615  0  2.438828  0  0  0.786884  0.617163  0  2.501708  0
Cd  Cd4  1  0.62500003  0.12499979  0.12499970  1  0  0.866076  0  1.933086  0  0  0.609333  0  2.429415  0  0  0.659429  0  2.389306  0  0  0.786736  0.574211  0  2.456397  0
Cd  Cd5  1  0.37499966  0.87500073  0.87499956  1  0  0.866042  0  1.93306  0  0  0.609286  0  2.429386  0  0  0.659381  0  2.389278  0  0  0.786747  0.574161  0  2.456366  0
H  H6  1  0.01289396  0.84364093  0.84364037  1  0  0.10769  0  0.940551  0  0  0.119709  0  0.994605  0  0  0.122365  0  0.993489  0  0  0.119666  0.117683  0  0.995702  0
H  H7  1  0.79982497  0.84364066  0.84364078  1  0  0.107699  0  0.94052  0  0  0.119721  0  0.994572  0  0  0.122377  0  0.993455  0  0  0.119674  0.117694  0  0.995669  0
H  H8  1  0.34364024  0.29982483  0.51289358  1  0  0.107702  0  0.940551  0  0  0.119723  0  0.994603  0  0  0.12238  0  0.993486  0  0  0.119672  0.117698  0  0.995699  0
H  H9  1  0.34363984  0.51289462  0.29982453  1  0  0.107724  0  0.940465  0  0  0.119699  0  0.994587  0  0  0.12235  0  0.993472  0  0  0.119672  0.117674  0  0.995684  0
H  H10  1  0.01289429  0.29982431  0.84364014  1  0  0.107677  0  0.940557  0  0  0.119697  0  0.994612  0  0  0.122353  0  0.993495  0  0  0.11966  0.11767  0  0.995709  0
H  H11  1  0.79982443  0.51289462  0.84364028  1  0  0.107706  0  0.940501  0  0  0.119698  0  0.994599  0  0  0.12235  0  0.993483  0  0  0.11967  0.117671  0  0.995696  0
H  H12  1  0.34363994  0.84364022  0.29982503  1  0  0.107719  0  0.940435  0  0  0.119711  0  0.994538  0  0  0.122362  0  0.993422  0  0  0.119682  0.117686  0  0.995635  0
H  H13  1  0.34363962  0.84363964  0.51289566  1  0  0.107721  0  0.940461  0  0  0.119683  0  0.994601  0  0  0.122333  0  0.993487  0  0  0.119664  0.117658  0  0.995697  0
H  H14  1  0.01289419  0.84364029  0.29982432  1  0  0.107688  0  0.940547  0  0  0.119706  0  0.994603  0  0  0.122363  0  0.993486  0  0  0.119664  0.117681  0  0.9957  0
H  H15  1  0.79982474  0.84364081  0.51289351  1  0  0.1077  0  0.94055  0  0  0.119721  0  0.994602  0  0  0.122377  0  0.993486  0  0  0.119672  0.117694  0  0.995698  0
H  H16  1  0.34364112  0.51289375  0.84364058  1  0  0.107689  0  0.940558  0  0  0.119708  0  0.994611  0  0  0.122364  0  0.993495  0  0  0.119663  0.117682  0  0.995708  0
H  H17  1  0.34364091  0.29982510  0.84364085  1  0  0.107719  0  0.940496  0  0  0.119739  0  0.994549  0  0  0.122395  0  0.993432  0  0  0.119684  0.117712  0  0.995646  0
H  H18  1  0.20017529  0.15635893  0.15636033  1  0  0.107684  0  0.940519  0  0  0.119705  0  0.994575  0  0  0.122361  0  0.993459  0  0  0.119664  0.117679  0  0.995672  0
H  H19  1  0.98710511  0.15635898  0.15636074  1  0  0.107701  0  0.940484  0  0  0.119679  0  0.994603  0  0  0.12233  0  0.993489  0  0  0.119667  0.117655  0  0.9957  0
H  H20  1  0.65635958  0.70017583  0.48710660  1  0  0.107699  0  0.940542  0  0  0.119717  0  0.994597  0  0  0.122373  0  0.993481  0  0  0.119672  0.117691  0  0.995695  0
H  H21  1  0.65635923  0.48710679  0.70017566  1  0  0.107705  0  0.940544  0  0  0.119723  0  0.994598  0  0  0.122379  0  0.993481  0  0  0.119672  0.117696  0  0.995695  0
H  H22  1  0.65635848  0.70017511  0.15635933  1  0  0.107699  0  0.940522  0  0  0.119719  0  0.994577  0  0  0.122376  0  0.99346  0  0  0.119676  0.117693  0  0.995675  0
H  H23  1  0.65635902  0.48710571  0.15635961  1  0  0.107682  0  0.940566  0  0  0.119702  0  0.994621  0  0  0.122358  0  0.993505  0  0  0.119665  0.117676  0  0.995718  0
H  H24  1  0.98710444  0.15636068  0.70017587  1  0  0.107736  0  0.940419  0  0  0.119699  0  0.994558  0  0  0.122349  0  0.993444  0  0  0.119677  0.117675  0  0.995655  0
H  H25  1  0.20017570  0.15636046  0.48710482  1  0  0.107702  0  0.940524  0  0  0.119706  0  0.994601  0  0  0.122361  0  0.993485  0  0  0.119661  0.117681  0  0.995697  0
H  H26  1  0.65635931  0.15635987  0.70017423  1  0  0.107718  0  0.940494  0  0  0.119738  0  0.994548  0  0  0.122394  0  0.993431  0  0  0.119681  0.117711  0  0.995645  0
H  H27  1  0.65635902  0.15635983  0.48710545  1  0  0.107706  0  0.94054  0  0  0.119711  0  0.994615  0  0  0.122367  0  0.993498  0  0  0.119665  0.117686  0  0.995712  0
H  H28  1  0.20017584  0.48710497  0.15636083  1  0  0.107704  0  0.940489  0  0  0.119696  0  0.994585  0  0  0.122348  0  0.99347  0  0  0.119669  0.117671  0  0.995682  0
H  H29  1  0.98710479  0.70017560  0.15636097  1  0  0.107705  0  0.940492  0  0  0.119696  0  0.994591  0  0  0.122349  0  0.993475  0  0  0.119667  0.11767  0  0.995687  0
C  C30  1  0.91532244  0.88708982  0.88709021  1  0  -0.037553  0  3.790786  0  0  -0.072368  0  4.060556  0  0  -0.071302  0  4.078722  0  0  -0.005092  -0.073007  0  4.048102  0
C  C31  1  0.81049792  0.88709016  0.88708935  1  0  -0.037498  0  3.790759  0  0  -0.072316  0  4.06053  0  0  -0.071249  0  4.078696  0  0  -0.005088  -0.072955  0  4.048078  0
C  C32  1  0.38708929  0.31049733  0.41532263  1  0  -0.037554  0  3.790757  0  0  -0.072372  0  4.060514  0  0  -0.071306  0  4.078678  0  0  -0.005074  -0.073008  0  4.048061  0
C  C33  1  0.38708944  0.41532236  0.31049735  1  0  -0.037567  0  3.790687  0  0  -0.072355  0  4.060489  0  0  -0.071281  0  4.078647  0  0  -0.005082  -0.072995  0  4.04804  0
C  C34  1  0.91532242  0.31049774  0.88709002  1  0  -0.037528  0  3.790784  0  0  -0.072342  0  4.060542  0  0  -0.071277  0  4.078707  0  0  -0.005075  -0.072981  0  4.048089  0
C  C35  1  0.81049761  0.41532255  0.88708995  1  0  -0.037523  0  3.790729  0  0  -0.072323  0  4.060517  0  0  -0.07125  0  4.078678  0  0  -0.00506  -0.072962  0  4.048062  0
C  C36  1  0.38709000  0.88709022  0.31049860  1  0  -0.037535  0  3.790754  0  0  -0.072329  0  4.060539  0  0  -0.071256  0  4.078696  0  0  -0.00511  -0.072969  0  4.04809  0
C  C37  1  0.38708975  0.88708984  0.41532282  1  0  -0.037542  0  3.790808  0  0  -0.072313  0  4.060606  0  0  -0.071239  0  4.078764  0  0  -0.005057  -0.072954  0  4.048154  0
C  C38  1  0.91532180  0.88708986  0.31049826  1  0  -0.037539  0  3.790776  0  0  -0.072356  0  4.060542  0  0  -0.07129  0  4.078708  0  0  -0.005083  -0.072995  0  4.04809  0
C  C39  1  0.81049835  0.88708964  0.41532254  1  0  -0.037567  0  3.79081  0  0  -0.072388  0  4.060578  0  0  -0.071321  0  4.078744  0  0  -0.005081  -0.073025  0  4.048124  0
C  C40  1  0.38709008  0.41532231  0.88708930  1  0  -0.03757  0  3.790806  0  0  -0.072387  0  4.060574  0  0  -0.07132  0  4.07874  0  0  -0.005106  -0.073026  0  4.048122  0
C  C41  1  0.38709092  0.31049840  0.88708944  1  0  -0.037546  0  3.790787  0  0  -0.072366  0  4.060558  0  0  -0.0713  0  4.078723  0  0  -0.005069  -0.073005  0  4.048104  0
C  C42  1  0.18950223  0.11290930  0.11291084  1  0  -0.037505  0  3.79074  0  0  -0.072319  0  4.060504  0  0  -0.071253  0  4.078669  0  0  -0.005079  -0.072957  0  4.048052  0
C  C43  1  0.08467664  0.11291009  0.11291091  1  0  -0.037504  0  3.790662  0  0  -0.072291  0  4.060468  0  0  -0.071218  0  4.078629  0  0  -0.005084  -0.072932  0  4.048017  0
C  C44  1  0.61291054  0.68950183  0.58467848  1  0  -0.037528  0  3.790799  0  0  -0.072345  0  4.060564  0  0  -0.071278  0  4.078731  0  0  -0.005071  -0.072986  0  4.048112  0
C  C45  1  0.61291025  0.58467817  0.68950191  1  0  -0.037587  0  3.790833  0  0  -0.072405  0  4.060599  0  0  -0.071338  0  4.078764  0  0  -0.005104  -0.073044  0  4.048146  0
C  C46  1  0.61290965  0.68950150  0.11291075  1  0  -0.037561  0  3.790748  0  0  -0.072379  0  4.060516  0  0  -0.071313  0  4.07868  0  0  -0.005099  -0.073017  0  4.048065  0
C  C47  1  0.61291006  0.58467715  0.11291088  1  0  -0.037514  0  3.790806  0  0  -0.072333  0  4.060576  0  0  -0.071267  0  4.078743  0  0  -0.005056  -0.072971  0  4.048122  0
C  C48  1  0.08467908  0.11291034  0.68950101  1  0  -0.03754  0  3.790808  0  0  -0.072313  0  4.060611  0  0  -0.071238  0  4.078769  0  0  -0.005102  -0.072956  0  4.048162  0
C  C49  1  0.18950192  0.11290995  0.58467857  1  0  -0.037551  0  3.790954  0  0  -0.072351  0  4.060712  0  0  -0.071283  0  4.078876  0  0  -0.00507  -0.072991  0  4.048261  0
C  C50  1  0.61290938  0.11291000  0.68950159  1  0  -0.037537  0  3.790803  0  0  -0.07235  0  4.060568  0  0  -0.071284  0  4.078733  0  0  -0.005102  -0.072989  0  4.048115  0
C  C51  1  0.61290963  0.11291037  0.58467737  1  0  -0.037549  0  3.790847  0  0  -0.072357  0  4.060621  0  0  -0.071289  0  4.078786  0  0  -0.005068  -0.072997  0  4.048171  0
C  C52  1  0.18950221  0.58467810  0.11291023  1  0  -0.037494  0  3.790794  0  0  -0.072286  0  4.060573  0  0  -0.071213  0  4.078733  0  0  -0.005077  -0.072925  0  4.048123  0
C  C53  1  0.08467816  0.68950216  0.11291017  1  0  -0.037533  0  3.790794  0  0  -0.072329  0  4.060576  0  0  -0.071258  0  4.078736  0  0  -0.005071  -0.072966  0  4.048123  0
N  N54  1  0.87638461  0.95617807  0.95617885  1  0  -0.234948  0  3.219027  0  0  -0.176948  0  3.50197  0  0  -0.188856  0  3.52069  0  0  -0.244513  -0.168558  0  3.489013  0
N  N55  1  0.71125857  0.95617869  0.95617896  1  0  -0.235139  0  3.219074  0  0  -0.177149  0  3.502046  0  0  -0.189057  0  3.520765  0  0  -0.244585  -0.168758  0  3.489088  0
N  N56  1  0.45617877  0.21125741  0.37638428  1  0  -0.234947  0  3.218994  0  0  -0.176932  0  3.501931  0  0  -0.188841  0  3.520654  0  0  -0.244536  -0.168542  0  3.488975  0
N  N57  1  0.45617865  0.37638398  0.21125745  1  0  -0.234948  0  3.219006  0  0  -0.176931  0  3.50193  0  0  -0.188838  0  3.520648  0  0  -0.244533  -0.16854  0  3.488975  0
N  N58  1  0.87638434  0.21125789  0.95617888  1  0  -0.234951  0  3.219005  0  0  -0.176938  0  3.501941  0  0  -0.188846  0  3.520664  0  0  -0.244524  -0.168548  0  3.488984  0
N  N59  1  0.71125778  0.37638447  0.95617878  1  0  -0.234962  0  3.219011  0  0  -0.176949  0  3.501942  0  0  -0.188857  0  3.520663  0  0  -0.244532  -0.168557  0  3.488982  0
N  N60  1  0.45617913  0.95617939  0.21125763  1  0  -0.235137  0  3.218998  0  0  -0.177143  0  3.501961  0  0  -0.189052  0  3.52068  0  0  -0.244603  -0.168752  0  3.489007  0
N  N61  1  0.45617872  0.95617879  0.37638425  1  0  -0.234958  0  3.219107  0  0  -0.176952  0  3.502031  0  0  -0.18886  0  3.520752  0  0  -0.24453  -0.16856  0  3.489074  0
N  N62  1  0.87638483  0.95617917  0.21125736  1  0  -0.234926  0  3.218917  0  0  -0.176914  0  3.501852  0  0  -0.188822  0  3.520574  0  0  -0.244517  -0.168523  0  3.488896  0
N  N63  1  0.71125838  0.95617918  0.37638408  1  0  -0.234913  0  3.219021  0  0  -0.176902  0  3.501958  0  0  -0.18881  0  3.52068  0  0  -0.244516  -0.168511  0  3.489001  0
N  N64  1  0.45617855  0.37638451  0.95617894  1  0  -0.234928  0  3.218871  0  0  -0.17692  0  3.501805  0  0  -0.188829  0  3.520526  0  0  -0.244522  -0.168531  0  3.488851  0
N  N65  1  0.45617864  0.21125811  0.95617916  1  0  -0.234936  0  3.219019  0  0  -0.176925  0  3.501955  0  0  -0.188833  0  3.520677  0  0  -0.244521  -0.168533  0  3.488995  0
N  N66  1  0.28874232  0.04382002  0.04382123  1  0  -0.235078  0  3.219081  0  0  -0.177084  0  3.502045  0  0  -0.188991  0  3.520767  0  0  -0.244561  -0.168692  0  3.489089  0
N  N67  1  0.12361585  0.04382020  0.04382133  1  0  -0.235117  0  3.21896  0  0  -0.177126  0  3.501918  0  0  -0.189033  0  3.520636  0  0  -0.244591  -0.168734  0  3.488962  0
N  N68  1  0.54382168  0.78874236  0.62361498  1  0  -0.234938  0  3.218963  0  0  -0.176927  0  3.501898  0  0  -0.188836  0  3.520621  0  0  -0.244518  -0.168536  0  3.488937  0
N  N69  1  0.54382167  0.62361567  0.78874089  1  0  -0.234932  0  3.219034  0  0  -0.176922  0  3.501966  0  0  -0.18883  0  3.520689  0  0  -0.244513  -0.168532  0  3.489007  0
N  N70  1  0.54382075  0.78874210  0.04382103  1  0  -0.234935  0  3.218956  0  0  -0.176922  0  3.50189  0  0  -0.188829  0  3.520611  0  0  -0.244521  -0.168532  0  3.488937  0
N  N71  1  0.54382083  0.62361570  0.04382124  1  0  -0.234938  0  3.219029  0  0  -0.176926  0  3.501963  0  0  -0.188833  0  3.520686  0  0  -0.244511  -0.168534  0  3.489003  0
N  N72  1  0.12361606  0.04382104  0.78874190  1  0  -0.235113  0  3.219004  0  0  -0.177119  0  3.501954  0  0  -0.189028  0  3.520671  0  0  -0.244594  -0.168729  0  3.488999  0
N  N73  1  0.28874207  0.04382059  0.62361518  1  0  -0.234973  0  3.219024  0  0  -0.176971  0  3.501966  0  0  -0.18888  0  3.520687  0  0  -0.244527  -0.16858  0  3.489008  0
N  N74  1  0.54382057  0.04382114  0.78874163  1  0  -0.235127  0  3.219022  0  0  -0.177138  0  3.501992  0  0  -0.189045  0  3.52071  0  0  -0.244602  -0.168747  0  3.489033  0
N  N75  1  0.54382098  0.04382174  0.62361501  1  0  -0.234958  0  3.219044  0  0  -0.176959  0  3.501986  0  0  -0.188866  0  3.520707  0  0  -0.244527  -0.168569  0  3.48903  0
N  N76  1  0.28874204  0.62361619  0.04382141  1  0  -0.235151  0  3.219049  0  0  -0.177161  0  3.502012  0  0  -0.189069  0  3.520731  0  0  -0.244611  -0.16877  0  3.489058  0
N  N77  1  0.12361624  0.78874201  0.04382130  1  0  -0.234999  0  3.219092  0  0  -0.176997  0  3.502032  0  0  -0.188904  0  3.520752  0  0  -0.244549  -0.168605  0  3.489074  0
N  N78  1  0.75289058  0.99710960  0.99710920  1  0  -0.107736  0  3.161033  0  0  -0.059007  0  3.444981  0  0  -0.066719  0  3.463452  0  0  -0.133465  -0.053519  0  3.432143  0
N  N79  1  0.49710968  0.25289095  0.25289103  1  0  -0.107896  0  3.161241  0  0  -0.0592  0  3.445237  0  0  -0.066914  0  3.46371  0  0  -0.133551  -0.053711  0  3.432403  0
N  N80  1  0.75289058  0.25289069  0.99711016  1  0  -0.107899  0  3.161242  0  0  -0.059202  0  3.445241  0  0  -0.066914  0  3.463714  0  0  -0.133555  -0.053716  0  3.432405  0
N  N81  1  0.49710937  0.99710955  0.25289100  1  0  -0.107748  0  3.161071  0  0  -0.05902  0  3.445022  0  0  -0.066731  0  3.463496  0  0  -0.133459  -0.053532  0  3.432187  0
N  N82  1  0.75289094  0.99710932  0.25289083  1  0  -0.107934  0  3.161216  0  0  -0.059241  0  3.445215  0  0  -0.066952  0  3.463686  0  0  -0.133572  -0.053754  0  3.432381  0
N  N83  1  0.49710995  0.25289034  0.99710847  1  0  -0.107923  0  3.161163  0  0  -0.059219  0  3.445148  0  0  -0.06693  0  3.463619  0  0  -0.133561  -0.053732  0  3.432313  0
N  N84  1  0.24710955  0.00289136  0.00289006  1  0  -0.107682  0  3.161007  0  0  -0.058948  0  3.444949  0  0  -0.066659  0  3.463421  0  0  -0.133435  -0.053461  0  3.432114  0
N  N85  1  0.50289046  0.74710851  0.74710916  1  0  -0.107887  0  3.161185  0  0  -0.059189  0  3.445178  0  0  -0.066901  0  3.46365  0  0  -0.133553  -0.053702  0  3.432339  0
N  N86  1  0.50289125  0.74710867  0.00289079  1  0  -0.10791  0  3.161259  0  0  -0.059212  0  3.445252  0  0  -0.066924  0  3.463724  0  0  -0.13356  -0.053724  0  3.432417  0
N  N87  1  0.24710964  0.00289057  0.74710935  1  0  -0.107743  0  3.160978  0  0  -0.059015  0  3.444932  0  0  -0.066727  0  3.463403  0  0  -0.133463  -0.053527  0  3.432093  0
N  N88  1  0.50289045  0.00289111  0.74710918  1  0  -0.107741  0  3.160992  0  0  -0.059014  0  3.444941  0  0  -0.066726  0  3.463411  0  0  -0.133465  -0.053526  0  3.432103  0
N  N89  1  0.24710880  0.74710952  0.00289003  1  0  -0.107723  0  3.161079  0  0  -0.058996  0  3.44503  0  0  -0.066709  0  3.463504  0  0  -0.133447  -0.053508  0  3.432193  0
