# generated using pymatgen
data_CuH4C6SNO2
_symmetry_space_group_name_H-M   'P 1'
_cell_length_a   3.80994573
_cell_length_b   19.63793010
_cell_length_c   19.63740890
_cell_angle_alpha   90.00158334
_cell_angle_beta   89.99522247
_cell_angle_gamma   89.99962224
_symmetry_Int_Tables_number   1
_chemical_formula_structural   CuH4C6SNO2
_chemical_formula_sum   'Cu8 H32 C48 S8 N8 O16'
_cell_volume   1469.26008573
_cell_formula_units_Z   8
loop_
 _symmetry_equiv_pos_site_id
 _symmetry_equiv_pos_as_xyz
  1  'x, y, z'
loop_
 _atom_site_type_symbol
 _atom_site_label
 _atom_site_symmetry_multiplicity
 _atom_site_fract_x
 _atom_site_fract_y
 _atom_site_fract_z
 _atom_site_occupancy
 _atom_site_pbe_bader_charge
 _atom_site_pbe_bader_spin_density
 _atom_site_pbe_cm5_charge
 _atom_site_pbe_ddec_charge
 _atom_site_pbe_ddec_spin_density
 _atom_site_pbe_ddec_sum_bond_order
 _atom_site_pbe_magmom
Cu  Cu0  1  0.49984154  0.27583655  0.31573433  1  0.413742  0  0.311655  0.16969  0  2.91585  0
Cu  Cu1  1  0.00006930  0.68427275  0.77584756  1  0.413477  0  0.311751  0.169854  0  2.916162  0
Cu  Cu2  1  0.00002045  0.81572327  0.72416486  1  0.412184  0  0.311714  0.16982  0  2.916103  0
Cu  Cu3  1  0.50007489  0.22417196  0.18426312  1  0.412266  0  0.311636  0.169538  0  2.916173  0
Cu  Cu4  1  0.49999807  0.72415365  0.68427082  1  0.41364  0  0.311775  0.1699  0  2.915964  0
Cu  Cu5  1  0.00014976  0.31573698  0.22416836  1  0.413445  0  0.311628  0.169621  0  2.915957  0
Cu  Cu6  1  0.00003589  0.18427527  0.27583272  1  0.412132  0  0.311717  0.169853  0  2.915877  0
Cu  Cu7  1  0.49998520  0.77583301  0.81573083  1  0.412645  0  0.311725  0.169857  0  2.916103  0
H  H8  1  0.76972118  0.26815743  0.50640279  1  0.134362  0  0.100921  0.110966  0  1.052407  0
H  H9  1  0.27024047  0.49358230  0.76818232  1  0.135794  0  0.101015  0.111086  0  1.052136  0
H  H10  1  0.27016914  0.00640876  0.73181591  1  0.13513  0  0.100941  0.11102  0  1.052176  0
H  H11  1  0.77023811  0.23181257  0.99359079  1  0.138336  0  0.100978  0.111016  0  1.052169  0
H  H12  1  0.22989533  0.73180374  0.49358149  1  0.134583  0  0.100918  0.111021  0  1.052309  0
H  H13  1  0.73015557  0.50640383  0.23182537  1  0.134478  0  0.10096  0.111038  0  1.052486  0
H  H14  1  0.72994344  0.99359468  0.26817855  1  0.13484  0  0.100932  0.110983  0  1.052345  0
H  H15  1  0.22971699  0.76819494  0.00642556  1  0.138064  0  0.100955  0.111103  0  1.052028  0
H  H16  1  0.80110791  0.19408228  0.60894711  1  0.159671  0  0.118306  0.128744  0  0.984706  0
H  H17  1  0.30159940  0.39103735  0.69409603  1  0.137922  0  0.118446  0.128923  0  0.984518  0
H  H18  1  0.30152239  0.10894909  0.80591442  1  0.138994  0  0.118414  0.128907  0  0.984489  0
H  H19  1  0.80161080  0.30590245  0.89104748  1  0.137772  0  0.1184  0.12886  0  0.984537  0
H  H20  1  0.19852172  0.80590334  0.39104327  1  0.138391  0  0.118352  0.128814  0  0.984752  0
H  H21  1  0.69869954  0.60895845  0.30589079  1  0.139092  0  0.118254  0.12861  0  0.984643  0
H  H22  1  0.69850357  0.89104926  0.19409685  1  0.138423  0  0.118396  0.128809  0  0.984498  0
H  H23  1  0.19837842  0.69408979  0.10896226  1  0.138014  0  0.118376  0.128866  0  0.984612  0
H  H24  1  0.29840931  0.03680015  0.48948422  1  0.11405  0  0.109052  0.110854  0  1.038194  0
H  H25  1  0.79866677  0.51051739  0.53679738  1  0.114276  0  0.109082  0.110884  0  1.038122  0
H  H26  1  0.79861110  0.98946887  0.96319274  1  0.114201  0  0.109107  0.111078  0  1.038098  0
H  H27  1  0.29854075  0.46322137  0.01051552  1  0.114547  0  0.109112  0.110858  0  1.038253  0
H  H28  1  0.70125707  0.96318140  0.51052297  1  0.113717  0  0.109003  0.110867  0  1.038042  0
H  H29  1  0.20147731  0.48950948  0.46319198  1  0.113429  0  0.10903  0.110847  0  1.03812  0
H  H30  1  0.20148311  0.01051472  0.03679815  1  0.114894  0  0.109056  0.110784  0  1.038154  0
H  H31  1  0.70134348  0.53681467  0.98947436  1  0.114187  0  0.109049  0.110953  0  1.03819  0
H  H32  1  0.26734807  0.10993884  0.38686757  1  0.133519  0  0.095261  0.114561  0  1.023845  0
H  H33  1  0.76764662  0.61311732  0.60996604  1  0.134076  0  0.095362  0.114765  0  1.023856  0
H  H34  1  0.76761986  0.88686032  0.89003274  1  0.133847  0  0.095337  0.114756  0  1.023702  0
H  H35  1  0.26753548  0.39007609  0.11314541  1  0.133794  0  0.095306  0.114559  0  1.023649  0
H  H36  1  0.73224481  0.89003456  0.61315184  1  0.133546  0  0.095362  0.114882  0  1.023338  0
H  H37  1  0.23259193  0.38687798  0.39005846  1  0.133137  0  0.095234  0.114436  0  1.023488  0
H  H38  1  0.23261346  0.11314210  0.10993931  1  0.133745  0  0.095317  0.114534  0  1.02375  0
H  H39  1  0.73230675  0.60996809  0.88685771  1  0.133812  0  0.09539  0.11488  0  1.023384  0
C  C40  1  0.01594077  0.19362068  0.44047614  1  -0.159976  0  0.000609  0.147914  0  3.915157  0
C  C41  1  0.51617998  0.55951982  0.69362810  1  -0.160082  0  0.00085  0.148243  0  3.914647  0
C  C42  1  0.51617644  0.94046988  0.80637278  1  -0.159674  0  0.000841  0.148204  0  3.914371  0
C  C43  1  0.01615872  0.30637933  0.05953640  1  -0.16022  0  0.000793  0.148151  0  3.914679  0
C  C44  1  0.98382009  0.80636902  0.55953207  1  -0.161566  0  0.00083  0.148187  0  3.914098  0
C  C45  1  0.48403758  0.44047853  0.30637145  1  -0.161573  0  0.000623  0.148096  0  3.914926  0
C  C46  1  0.48396500  0.05952949  0.19362626  1  -0.160732  0  0.000753  0.148237  0  3.914678  0
C  C47  1  0.98375700  0.69362971  0.94047181  1  -0.159934  0  0.000767  0.148082  0  3.914476  0
C  C48  1  0.88369548  0.21746255  0.50280750  1  0.039957  0  -0.083546  -0.096755  0  3.911848  0
C  C49  1  0.38409266  0.49718272  0.71747006  1  0.038209  0  -0.083628  -0.097025  0  3.912307  0
C  C50  1  0.38402885  0.00280870  0.78252935  1  0.03852  0  -0.083567  -0.097066  0  3.911959  0
C  C51  1  0.88413319  0.28252257  0.99718625  1  0.03546  0  -0.083463  -0.096778  0  3.91112  0
C  C52  1  0.11605226  0.78251492  0.49718696  1  0.039999  0  -0.083534  -0.096971  0  3.910773  0
C  C53  1  0.61628501  0.50280901  0.28252694  1  0.040807  0  -0.08364  -0.097319  0  3.912122  0
C  C54  1  0.61604698  0.99719118  0.21747478  1  0.038939  0  -0.083494  -0.096938  0  3.912126  0
C  C55  1  0.11587440  0.71747883  0.00281534  1  0.035286  0  -0.083391  -0.09682  0  3.911302  0
C  C56  1  0.90102019  0.17636939  0.56014633  1  -0.078341  0  -0.071547  -0.100534  0  3.951229  0
C  C57  1  0.40148307  0.43983852  0.67638835  1  -0.057011  0  -0.071821  -0.100993  0  3.951409  0
C  C58  1  0.40138172  0.06014982  0.82362351  1  -0.057585  0  -0.071708  -0.100699  0  3.951209  0
C  C59  1  0.90139690  0.32362539  0.93984459  1  -0.056728  0  -0.071839  -0.101059  0  3.950753  0
C  C60  1  0.09868031  0.82361012  0.43983947  1  -0.057463  0  -0.071626  -0.100662  0  3.95038  0
C  C61  1  0.59890510  0.56015729  0.32360712  1  -0.058559  0  -0.071246  -0.099803  0  3.950383  0
C  C62  1  0.59867574  0.93985057  0.17638725  1  -0.057066  0  -0.071654  -0.100543  0  3.950964  0
C  C63  1  0.09859757  0.67638060  0.06015497  1  -0.057118  0  -0.07185  -0.101049  0  3.951115  0
C  C64  1  0.05236727  0.11171695  0.55444086  1  0.176122  0  0.071588  0.041474  0  3.974327  0
C  C65  1  0.55263268  0.44555706  0.61172031  1  0.175951  0  0.071501  0.042155  0  3.973524  0
C  C66  1  0.55258551  0.05443107  0.88828245  1  0.175836  0  0.071588  0.042005  0  3.973504  0
C  C67  1  0.05264243  0.38828256  0.94555636  1  0.177276  0  0.071574  0.042375  0  3.973294  0
C  C68  1  0.94734897  0.88826307  0.44556429  1  0.175749  0  0.071457  0.042051  0  3.973242  0
C  C69  1  0.44748778  0.55445453  0.38825888  1  0.176586  0  0.071348  0.041392  0  3.973818  0
C  C70  1  0.44744308  0.94556474  0.11172576  1  0.176543  0  0.071399  0.04169  0  3.973578  0
C  C71  1  0.94732579  0.61172495  0.05444064  1  0.175945  0  0.071511  0.042169  0  3.973256  0
C  C72  1  0.18324876  0.08732953  0.49254024  1  0.024863  0  -0.076533  -0.106496  0  3.977044  0
C  C73  1  0.68354162  0.50745063  0.58732888  1  0.0259  0  -0.076666  -0.106916  0  3.977512  0
C  C74  1  0.68347574  0.99254087  0.91267281  1  0.026341  0  -0.076709  -0.107123  0  3.977634  0
C  C75  1  0.18339618  0.41269062  0.00745783  1  0.024612  0  -0.076771  -0.10711  0  3.977061  0
C  C76  1  0.81639925  0.91265202  0.50745778  1  0.026923  0  -0.076573  -0.106934  0  3.978032  0
C  C77  1  0.31669169  0.49255688  0.41266252  1  0.024989  0  -0.076634  -0.106841  0  3.977348  0
C  C78  1  0.31666309  0.00746104  0.08732725  1  0.023709  0  -0.076457  -0.106418  0  3.976857  0
C  C79  1  0.81645655  0.58733676  0.99254020  1  0.026476  0  -0.07656  -0.10685  0  3.977588  0
C  C80  1  0.16463531  0.12847056  0.43520855  1  0.002211  0  -0.087625  -0.108613  0  3.928325  0
C  C81  1  0.66495433  0.56477956  0.62848139  1  -0.000105  0  -0.087664  -0.108543  0  3.928508  0
C  C82  1  0.66489977  0.93520892  0.87152570  1  -0.000495  0  -0.087666  -0.108519  0  3.927975  0
C  C83  1  0.16484112  0.37153739  0.06479390  1  0.000113  0  -0.08761  -0.108379  0  3.92746  0
C  C84  1  0.83495758  0.87151302  0.56478591  1  0.000795  0  -0.087705  -0.108716  0  3.928189  0
C  C85  1  0.33536035  0.43522287  0.37152784  1  0.003047  0  -0.087519  -0.108203  0  3.927983  0
C  C86  1  0.33528367  0.06479452  0.12847079  1  0.001858  0  -0.087736  -0.108622  0  3.92776  0
C  C87  1  0.83502473  0.62848285  0.93521380  1  0.000359  0  -0.087755  -0.108721  0  3.928374  0
S  S88  1  0.00063677  0.25116398  0.37097909  1  -0.34304  0  -0.264658  -0.236682  0  3.537836  0
S  S89  1  0.50076231  0.62902592  0.75117955  1  -0.341426  0  -0.264882  -0.23719  0  3.537601  0
S  S90  1  0.50079053  0.87096635  0.74881954  1  -0.341904  0  -0.264843  -0.237106  0  3.53787  0
S  S91  1  0.00089535  0.24883402  0.12902605  1  -0.341301  0  -0.264706  -0.236689  0  3.538381  0
S  S92  1  0.99921595  0.74881808  0.62903370  1  -0.341475  0  -0.26492  -0.237152  0  3.538017  0
S  S93  1  0.49931090  0.37098058  0.24883324  1  -0.341652  0  -0.264651  -0.236741  0  3.537878  0
S  S94  1  0.49930892  0.12902741  0.25117542  1  -0.341547  0  -0.264767  -0.236955  0  3.537504  0
S  S95  1  0.99909649  0.75117757  0.87096179  1  -0.341768  0  -0.264864  -0.236981  0  3.538339  0
N  N96  1  0.07603006  0.06888484  0.61476371  1  0.353779  0  0.049456  0.509551  0  4.199208  0
N  N97  1  0.57609183  0.38522830  0.56888318  1  0.35359  0  0.04962  0.509632  0  4.199295  0
N  N98  1  0.57613752  0.11476641  0.93111410  1  0.353699  0  0.049693  0.509644  0  4.199343  0
N  N99  1  0.07604856  0.43113246  0.88523567  1  0.353453  0  0.04949  0.509241  0  4.199877  0
N  N100  1  0.92386992  0.93110485  0.38522158  1  0.353822  0  0.049536  0.509347  0  4.198833  0
N  N101  1  0.42394201  0.61476852  0.43111841  1  0.353076  0  0.049597  0.509568  0  4.199416  0
N  N102  1  0.42391994  0.88523958  0.06887578  1  0.353909  0  0.049606  0.509542  0  4.19986  0
N  N103  1  0.92386453  0.56889288  0.11477967  1  0.354199  0  0.049427  0.509155  0  4.199194  0
O  O104  1  0.93562384  0.08929091  0.66826705  1  -0.480818  0  -0.134158  -0.337986  0  1.920474  0
O  O105  1  0.43571364  0.33173323  0.58931195  1  -0.480805  0  -0.134307  -0.338093  0  1.920322  0
O  O106  1  0.43582405  0.16826728  0.91068254  1  -0.480823  0  -0.134396  -0.338147  0  1.920453  0
O  O107  1  0.93566562  0.41071197  0.83173501  1  -0.481069  0  -0.134245  -0.337922  0  1.920102  0
O  O108  1  0.06427876  0.91068249  0.33172486  1  -0.480074  0  -0.1343  -0.33804  0  1.920112  0
O  O109  1  0.56422833  0.66827734  0.41069880  1  -0.480478  0  -0.134311  -0.338057  0  1.920467  0
O  O110  1  0.56416779  0.83173820  0.08930174  1  -0.481037  0  -0.134243  -0.338053  0  1.921051  0
O  O111  1  0.06433409  0.58931184  0.16827269  1  -0.480668  0  -0.134251  -0.337956  0  1.920105  0
O  O112  1  0.23686885  0.01364514  0.61004054  1  -0.48935  0  -0.138814  -0.346708  0  1.951304  0
O  O113  1  0.73665954  0.38995196  0.51360376  1  -0.489287  0  -0.138712  -0.346859  0  1.951652  0
O  O114  1  0.73667412  0.11002878  0.98639139  1  -0.48917  0  -0.138735  -0.346808  0  1.951686  0
O  O115  1  0.23666316  0.48639690  0.88996333  1  -0.489012  0  -0.138621  -0.346731  0  1.952537  0
O  O116  1  0.76333559  0.98637816  0.38995494  1  -0.489938  0  -0.138535  -0.346513  0  1.951703  0
O  O117  1  0.26343203  0.61003621  0.48640038  1  -0.48903  0  -0.1387  -0.346759  0  1.951809  0
O  O118  1  0.26336497  0.88997160  0.01359594  1  -0.489144  0  -0.138756  -0.346843  0  1.951695  0
O  O119  1  0.76331555  0.51361826  0.11004742  1  -0.490039  0  -0.138574  -0.346515  0  1.9517  0
