# generated using pymatgen
data_CuP2H20(C4O3)4
_symmetry_space_group_name_H-M   'P 1'
_cell_length_a   4.62451649
_cell_length_b   5.91597574
_cell_length_c   17.89916943
_cell_angle_alpha   79.49308153
_cell_angle_beta   85.98648664
_cell_angle_gamma   83.69124195
_symmetry_Int_Tables_number   1
_chemical_formula_structural   CuP2H20(C4O3)4
_chemical_formula_sum   'Cu1 P2 H20 C16 O12'
_cell_volume   477.94277028
_cell_formula_units_Z   1
loop_
 _symmetry_equiv_pos_site_id
 _symmetry_equiv_pos_as_xyz
  1  'x, y, z'
loop_
 _atom_site_type_symbol
 _atom_site_label
 _atom_site_symmetry_multiplicity
 _atom_site_fract_x
 _atom_site_fract_y
 _atom_site_fract_z
 _atom_site_occupancy
 _atom_site_pbe_cm5_charge
 _atom_site_pbe_ddec_charge
 _atom_site_pbe_ddec_spin_density
 _atom_site_pbe_ddec_sum_bond_order
 _atom_site_pbe_magmom
Cu  Cu0  1  0.00001761  0.50000834  0.49999560  1  0.74122  1.064089  0.776523  2.003075  0.634
P  P1  1  0.51222117  0.67057718  0.61533066  1  0.367061  1.32825  0.004087  5.232885  0.002
P  P2  1  0.48780118  0.32942476  0.38466946  1  0.367147  1.328242  0.004086  5.232572  0.002
H  H3  1  0.93439010  0.82361169  0.60694409  1  0.309031  0.396443  -0.000131  0.947995  0.0
H  H4  1  0.06562959  0.17639371  0.39305533  1  0.309073  0.396518  -0.000132  0.947868  0.0
H  H5  1  0.41031041  0.16290419  0.01908604  1  0.303564  0.353657  1e-06  0.98968  0.0
H  H6  1  0.58970040  0.83708678  0.98092383  1  0.303481  0.353636  1e-06  0.989911  0.0
H  H7  1  0.76298592  0.91811199  0.43971122  1  0.299813  0.409101  0.000708  0.91928  0.001
H  H8  1  0.23703480  0.08188692  0.56028017  1  0.299823  0.409084  0.000709  0.919309  0.001
H  H9  1  0.56795433  0.71056279  0.43407544  1  0.301832  0.397812  0.000296  0.937487  0.0
H  H10  1  0.43206541  0.28944315  0.56591333  1  0.301817  0.397743  0.000296  0.937547  0.0
H  H11  1  0.22981681  0.67324606  0.73078502  1  0.11225  0.154153  0.00104  0.992607  0.001
H  H12  1  0.77018759  0.32674580  0.26920591  1  0.112223  0.154114  0.00104  0.992679  0.001
H  H13  1  0.23490872  0.40986146  0.69685611  1  0.113717  0.162972  -0.00011  1.002068  0.0
H  H14  1  0.76507903  0.59014038  0.30313848  1  0.113705  0.162915  -0.000111  1.002202  0.0
H  H15  1  0.70870882  0.12228260  0.71375783  1  0.100798  0.121163  6.6e-05  1.01282  0.0
H  H16  1  0.29126814  0.87770308  0.28624677  1  0.100754  0.121179  6.5e-05  1.012735  0.0
H  H17  1  0.06934470  0.94489126  0.81010587  1  0.102904  0.097783  2.2e-05  1.029294  0.0
H  H18  1  0.93062375  0.05510785  0.18990429  1  0.102853  0.097706  2.2e-05  1.029285  0.0
H  H19  1  0.90662601  0.53717990  0.92020189  1  0.110443  0.121902  -6e-06  1.017676  0.0
H  H20  1  0.09335712  0.46282312  0.07980221  1  0.110406  0.12181  -6e-06  1.017825  0.0
H  H21  1  0.54165631  0.71359676  0.82634553  1  0.100719  0.109275  -1.4e-05  1.037111  0.0
H  H22  1  0.45835431  0.28639650  0.17365304  1  0.100704  0.109241  -1.4e-05  1.037079  0.0
C  C23  1  0.37377120  0.53817636  0.70820119  1  -0.161641  -0.511281  0.005714  3.931752  0.006
C  C24  1  0.62624135  0.46181877  0.29179501  1  -0.161625  -0.511197  0.005714  3.931906  0.006
C  C25  1  0.60051104  0.43066825  0.76344277  1  0.000459  0.176938  -0.000246  3.976708  0.0
C  C26  1  0.39950100  0.56933034  0.23655325  1  0.000443  0.176832  -0.000246  3.976837  0.0
C  C27  1  0.75139181  0.21359776  0.75893750  1  -0.092213  -0.145603  0.000687  3.929287  0.001
C  C28  1  0.24863447  0.78639246  0.24105649  1  -0.092114  -0.145601  0.000687  3.929384  0.001
C  C29  1  0.95467684  0.11479805  0.81221090  1  -0.079579  -0.076273  -0.000227  3.972068  0.0
C  C30  1  0.04532196  0.88520193  0.18778862  1  -0.079589  -0.076128  -0.000228  3.972058  0.0
C  C31  1  0.01151367  0.23094138  0.87049574  1  -0.024178  -0.069454  0.000791  4.016609  0.001
C  C32  1  0.98845766  0.76906851  0.12950652  1  -0.024075  -0.069574  0.000791  4.016672  0.001
C  C33  1  0.86317276  0.44831437  0.87465759  1  -0.078135  -0.070508  -0.000308  3.936619  0.0
C  C34  1  0.13678180  0.55167601  0.12535161  1  -0.078228  -0.070584  -0.000308  3.936776  0.0
C  C35  1  0.65985811  0.54668493  0.82143619  1  -0.092374  -0.147457  0.000899  3.946212  0.001
C  C36  1  0.34010879  0.45329567  0.17856439  1  -0.092349  -0.147266  0.000899  3.946073  0.001
C  C37  1  0.22670318  0.12403196  0.92704176  1  0.237954  0.581367  3.9e-05  4.118396  0.0
C  C38  1  0.77323340  0.87599260  0.07296979  1  0.237925  0.581575  3.9e-05  4.118503  0.0
O  O39  1  0.24925138  0.79579766  0.57159791  1  -0.364428  -0.774977  0.001065  2.228177  0.003
O  O40  1  0.75078372  0.20420636  0.42839797  1  -0.364464  -0.774976  0.001064  2.228078  0.003
O  O41  1  0.68323293  0.47695805  0.57847037  1  -0.378689  -0.772095  0.045423  2.393644  0.066
O  O42  1  0.31678745  0.52305788  0.42152567  1  -0.378661  -0.772095  0.045428  2.39381  0.066
O  O43  1  0.72208240  0.85412082  0.62633929  1  -0.381339  -0.646837  0.000194  2.223508  0.001
O  O44  1  0.27794244  0.14586390  0.37366062  1  -0.381417  -0.646902  0.000193  2.223296  0.001
O  O45  1  0.37161232  0.93474790  0.92265245  1  -0.283038  -0.499101  0.000138  2.240814  0.0
O  O46  1  0.62839841  0.06525850  0.07735937  1  -0.282962  -0.499022  0.000137  2.241546  0.0
O  O47  1  0.25163869  0.24247701  0.98149712  1  -0.317554  -0.46821  5.5e-05  2.351348  0.0
O  O48  1  0.74834153  0.75753112  0.01850787  1  -0.317545  -0.468325  5.5e-05  2.351036  0.0
O  O49  1  0.77098512  0.75178840  0.43399916  1  -0.57796  -0.761071  0.051557  2.188569  0.074
O  O50  1  0.22903943  0.24821405  0.56599140  1  -0.577963  -0.760964  0.051556  2.188589  0.074
