# generated using pymatgen
data_CuH20C22(N2O3)2
_symmetry_space_group_name_H-M   'P 1'
_cell_length_a   5.00571869
_cell_length_b   8.80500515
_cell_length_c   12.76621141
_cell_angle_alpha   102.23426677
_cell_angle_beta   100.63533125
_cell_angle_gamma   105.39328489
_symmetry_Int_Tables_number   1
_chemical_formula_structural   CuH20C22(N2O3)2
_chemical_formula_sum   'Cu1 H20 C22 N4 O6'
_cell_volume   512.56328068
_cell_formula_units_Z   1
loop_
 _symmetry_equiv_pos_site_id
 _symmetry_equiv_pos_as_xyz
  1  'x, y, z'
loop_
 _atom_site_type_symbol
 _atom_site_label
 _atom_site_symmetry_multiplicity
 _atom_site_fract_x
 _atom_site_fract_y
 _atom_site_fract_z
 _atom_site_occupancy
 _atom_site_hle17_ddec_charge
 _atom_site_hle17_ddec_spin_density
 _atom_site_hle17_ddec_sum_bond_order
 _atom_site_hle17_magmom
 _atom_site_hse06_10hf_ddec_charge
 _atom_site_hse06_10hf_ddec_spin_density
 _atom_site_hse06_10hf_ddec_sum_bond_order
 _atom_site_hse06_10hf_magmom
 _atom_site_hse06_ddec_charge
 _atom_site_hse06_ddec_spin_density
 _atom_site_hse06_ddec_sum_bond_order
 _atom_site_hse06_magmom
 _atom_site_pbe_cm5_charge
 _atom_site_pbe_ddec_charge
 _atom_site_pbe_ddec_spin_density
 _atom_site_pbe_ddec_sum_bond_order
 _atom_site_pbe_magmom
Cu  Cu0  1  0.99999846  0.49999960  0.99999764  1  0.818894  0.665785  1.721825  0.483  0.782287  0.751763  2.104125  0.592  0.873347  0.818254  2.038194  0.675  0.724668  0.725692  0.708538  2.152819  0.543
H  H1  1  0.31011657  0.83719737  0.13470763  1  0.084629  0.000521  0.985733  0.002  0.091768  0.000515  1.052773  0.001  0.093983  0.000326  1.051694  0.001  0.113823  0.089999  0.000673  1.053647  0.001
H  H2  1  0.68987640  0.16280593  0.86529343  1  0.084644  0.000521  0.985727  0.002  0.091744  0.000515  1.052802  0.001  0.093952  0.000326  1.051733  0.001  0.113819  0.089975  0.000673  1.053675  0.001
H  H3  1  0.30482951  0.02352155  0.31447632  1  0.112551  0.00067  0.949906  0.001  0.122413  0.000564  1.008722  0.001  0.125674  0.000402  1.007062  0.001  0.112686  0.120007  0.000683  1.010177  0.001
H  H4  1  0.69515458  0.97648052  0.68552002  1  0.112533  0.000667  0.949916  0.001  0.122357  0.000564  1.008777  0.001  0.125613  0.000402  1.007118  0.001  0.112649  0.11995  0.000683  1.010233  0.001
H  H5  1  0.92518493  0.93042998  0.40794754  1  0.129047  0.000259  0.970438  0.001  0.135511  1.5e-05  1.033154  0.0  0.139696  -3.6e-05  1.029074  0.0  0.115512  0.132356  6.8e-05  1.036496  0.0
H  H6  1  0.07481010  0.06957333  0.59205601  1  0.129079  0.000258  0.970511  0.001  0.13553  1.4e-05  1.033215  0.0  0.139714  -3.6e-05  1.02914  0.0  0.115525  0.132375  6.8e-05  1.036559  0.0
H  H7  1  0.58262070  0.48289007  0.14094865  1  0.107279  0.000484  0.977491  0.002  0.109512  0.000355  1.051026  0.001  0.113016  0.000136  1.047196  0.001  0.119988  0.106724  0.000555  1.054109  0.002
H  H8  1  0.41738104  0.51711076  0.85905188  1  0.107263  0.000481  0.977456  0.002  0.109495  0.000355  1.050994  0.001  0.113  0.000136  1.047166  0.001  0.119981  0.106706  0.000555  1.054079  0.002
H  H9  1  0.36174961  0.51751253  0.27753621  1  0.307081  -1.4e-05  0.929819  0.0  0.287779  1.1e-05  0.997174  0.0  0.295202  3e-06  0.991994  0.0  0.306394  0.282436  1.2e-05  1.000953  0.0
H  H10  1  0.63825280  0.48248954  0.72246377  1  0.307082  -1.3e-05  0.929835  0.0  0.287786  1.1e-05  0.997186  0.0  0.29521  3e-06  0.992005  0.0  0.306405  0.282444  1.2e-05  1.000966  0.0
H  H11  1  0.20334658  0.80181136  0.57601997  1  0.101032  -3e-06  0.951499  0.0  0.110967  1.7e-05  1.014341  0.0  0.114509  5e-06  1.011834  0.0  0.107924  0.108209  2.9e-05  1.016589  0.0
H  H12  1  0.79665509  0.19818579  0.42397688  1  0.101017  -2e-06  0.951558  0.0  0.110969  1.7e-05  1.014377  0.0  0.114511  5e-06  1.011869  0.0  0.107924  0.108197  2.9e-05  1.016641  0.0
H  H13  1  0.18153788  0.35391382  0.35393293  1  0.099416  -6e-06  0.970976  0.0  0.109733  -6e-06  1.03236  0.0  0.113392  2e-06  1.03007  0.0  0.105261  0.107039  -1e-06  1.034216  0.0
H  H14  1  0.81846243  0.64608088  0.64606347  1  0.099479  -5e-06  0.97097  0.0  0.109796  -6e-06  1.032349  0.0  0.113455  2e-06  1.030052  0.0  0.105268  0.107098  -1e-06  1.03421  0.0
H  H15  1  0.67518594  0.00967966  0.08313072  1  0.143022  -0.000658  0.934912  -0.001  0.164548  -0.000237  0.990041  0.0  0.167126  -0.000236  0.989251  0.0  0.101926  0.162704  -0.000213  0.990546  0.0
H  H16  1  0.32481988  0.99032118  0.91687088  1  0.143105  -0.000659  0.934934  -0.001  0.16461  -0.000236  0.990076  0.0  0.167193  -0.000236  0.989279  0.0  0.101949  0.162765  -0.000213  0.99058  0.0
H  H17  1  0.50136695  0.14087094  0.14802858  1  0.146251  -0.000555  0.93914  0.0  0.164428  -0.000107  0.997937  0.0  0.167396  -0.000101  0.996484  0.0  0.097804  0.162316  -0.000105  0.998869  0.0
H  H18  1  0.49864162  0.85913112  0.85197575  1  0.146319  -0.000553  0.939325  0.0  0.164515  -0.000108  0.998086  0.0  0.167485  -0.000101  0.996634  0.0  0.097828  0.162401  -0.000105  0.999016  0.0
H  H19  1  0.81565753  0.11467363  0.22639490  1  0.128112  0.001125  0.968133  0.001  0.145887  0.000991  1.030636  0.001  0.146421  0.000672  1.032605  0.001  0.092658  0.145718  0.001241  1.028932  0.001
H  H20  1  0.18435369  0.88532965  0.77360587  1  0.128162  0.001126  0.968141  0.001  0.145924  0.000991  1.030651  0.001  0.146457  0.000672  1.032623  0.001  0.092658  0.145755  0.001241  1.028946  0.001
C  C21  1  0.14640050  0.80340318  0.17832972  1  0.088898  -0.009472  3.710029  -0.006  0.055986  -0.002195  3.967922  -0.001  0.06366  -0.003983  3.987136  -0.002  0.028269  0.05162  -0.000859  3.954651  0.0
C  C22  1  0.85359380  0.19659521  0.82167071  1  0.088947  -0.00945  3.71015  -0.006  0.056087  -0.002199  3.967987  -0.001  0.063768  -0.003973  3.987203  -0.002  0.028324  0.051719  -0.000859  3.954716  0.0
C  C23  1  0.14060684  0.90487767  0.27666215  1  -0.086737  0.008709  3.745794  0.009  -0.097733  0.003798  3.996469  0.004  -0.102764  0.00343  4.016067  0.004  -0.081373  -0.094576  0.003992  3.98293  0.005
C  C24  1  0.85938341  0.09512073  0.72333878  1  -0.086658  0.008696  3.745906  0.009  -0.097646  0.0038  3.996562  0.004  -0.10267  0.003425  4.016152  0.004  -0.081329  -0.094491  0.003992  3.983026  0.005
C  C25  1  0.92869445  0.85383305  0.32999777  1  -0.102559  -0.012043  3.649853  -0.008  -0.12921  -0.004755  3.899194  -0.003  -0.127799  -0.00538  3.914504  -0.003  -0.070179  -0.129954  -0.003931  3.889005  -0.002
C  C26  1  0.07130528  0.14616779  0.67000341  1  -0.102676  -0.012015  3.650038  -0.007  -0.129295  -0.004754  3.899361  -0.003  -0.127884  -0.005372  3.914668  -0.003  -0.070207  -0.130041  -0.003932  3.889175  -0.002
C  C27  1  0.72161109  0.69883663  0.28166270  1  0.218502  0.007918  3.780737  0.009  0.218294  0.003584  4.023087  0.005  0.222113  0.003213  4.046398  0.004  0.108529  0.215311  0.003809  4.007639  0.005
C  C28  1  0.27838457  0.30116421  0.71833819  1  0.218518  0.007904  3.780739  0.009  0.218306  0.003581  4.023061  0.005  0.222127  0.003212  4.04637  0.004  0.108524  0.215323  0.003809  4.00762  0.005
C  C29  1  0.73877692  0.60381625  0.18105052  1  0.018281  -0.009539  3.635309  -0.006  -0.017669  -0.002386  3.895673  -0.001  -0.01246  -0.004102  3.914129  -0.003  0.038251  -0.021288  -0.000997  3.884074  0.0
C  C30  1  0.26121603  0.39618337  0.81895001  1  0.018164  -0.009518  3.635356  -0.006  -0.017781  -0.002381  3.89569  -0.001  -0.012571  -0.004098  3.914138  -0.003  0.038186  -0.021402  -0.000998  3.884095  0.0
C  C31  1  0.45679669  0.69512776  0.42718026  1  0.531751  0.000425  3.83771  0.0  0.484419  0.000205  4.126766  0.0  0.512592  0.000188  4.128413  0.0  0.238969  0.465445  0.000252  4.124943  0.0
C  C32  1  0.54320711  0.30487308  0.57282198  1  0.5317  0.000419  3.837676  0.0  0.484371  0.000207  4.126734  0.0  0.512549  0.000188  4.128374  0.0  0.238967  0.46541  0.000252  4.12492  0.0
C  C33  1  0.21792499  0.58994886  0.46085559  1  -0.052043  0.000261  3.75753  0.0  -0.033718  0.000135  3.996604  0.0  -0.03894  7.1e-05  4.019395  0.0  -0.012545  -0.03027  0.000159  3.981175  0.0
C  C34  1  0.78207736  0.41004584  0.53914174  1  -0.051933  0.000302  3.757236  0.0  -0.033615  0.000131  3.996334  0.0  -0.038843  7.5e-05  4.019122  0.0  -0.012541  -0.030213  0.000159  3.980973  0.0
C  C35  1  0.11415555  0.66900103  0.54407082  1  -0.062293  3.1e-05  3.711855  0.0  -0.08667  1.2e-05  3.962457  0.0  -0.087025  1e-06  3.981214  0.0  -0.081842  -0.086115  2.3e-05  3.949919  0.0
C  C36  1  0.88585356  0.33099488  0.45592637  1  -0.062346  -1.8e-05  3.711712  0.0  -0.086742  1.4e-05  3.962329  0.0  -0.087091  -3e-06  3.981081  0.0  -0.081881  -0.086165  2.3e-05  3.949821  0.0
C  C37  1  0.10176976  0.41932936  0.41715412  1  -0.081477  4.1e-05  3.725761  0.0  -0.104435  6e-06  3.975389  0.0  -0.105672  7e-06  3.99548  0.0  -0.087132  -0.103759  -4e-06  3.961867  0.0
C  C38  1  0.89823801  0.58066778  0.58284316  1  -0.081615  -1.1e-05  3.725734  0.0  -0.104577  6e-06  3.975343  0.0  -0.105808  2e-06  3.995433  0.0  -0.087133  -0.10389  -4e-06  3.96184  0.0
C  C39  1  0.89530640  0.26568081  0.11519977  1  0.742468  -0.00816  3.826001  -0.008  0.707573  -0.002591  4.124935  -0.003  0.743976  -0.003126  4.117777  -0.003  0.207429  0.68343  -0.002078  4.127729  -0.003
C  C40  1  0.10469596  0.73432124  0.88479706  1  0.742425  -0.00816  3.826121  -0.008  0.707553  -0.002591  4.125024  -0.003  0.743958  -0.003124  4.117863  -0.003  0.207422  0.683409  -0.002079  4.127818  -0.003
C  C41  1  0.71060744  0.12462761  0.14618739  1  -0.459837  0.009037  3.645446  0.009  -0.533591  0.005623  3.871995  0.006  -0.541492  0.003949  3.875841  0.004  -0.248207  -0.527903  0.006838  3.868531  0.007
C  C42  1  0.28940722  0.87537812  0.85381633  1  -0.460057  0.009035  3.645787  0.009  -0.533814  0.005624  3.872326  0.006  -0.541719  0.003947  3.876168  0.004  -0.248248  -0.528121  0.006837  3.868859  0.007
N  N43  1  0.94803443  0.65425930  0.13195400  1  -0.281516  0.077262  3.359912  0.098  -0.230358  0.055389  3.655931  0.075  -0.259148  0.046061  3.678924  0.067  -0.346706  -0.213102  0.0603  3.642393  0.078
N  N44  1  0.05195652  0.34574033  0.86804795  1  -0.281457  0.077255  3.359975  0.098  -0.230289  0.05539  3.655943  0.075  -0.25908  0.046059  3.678931  0.067  -0.34668  -0.213037  0.0603  3.642406  0.078
N  N45  1  0.50287639  0.62863825  0.32714305  1  -0.451439  0.000755  3.359405  0.001  -0.393559  0.000482  3.591476  0.001  -0.417666  0.000352  3.604913  0.0  -0.39366  -0.376784  0.000554  3.582105  0.001
N  N46  1  0.49711993  0.37136382  0.67285650  1  -0.451463  0.000755  3.359463  0.001  -0.393595  0.000479  3.591533  0.001  -0.417704  0.00035  3.604969  0.0  -0.39373  -0.376805  0.000554  3.582125  0.001
O  O47  1  0.60192207  0.83341261  0.48811745  1  -0.524776  0.001182  1.952192  0.002  -0.479633  0.000376  2.176643  0.001  -0.500832  0.000261  2.173221  0.0  -0.276177  -0.465197  0.000406  2.178604  0.001
O  O48  1  0.39807227  0.16658212  0.51188638  1  -0.524753  0.001186  1.952135  0.002  -0.479611  0.00038  2.176595  0.001  -0.500817  0.000261  2.173174  0.0  -0.276148  -0.465175  0.000406  2.178546  0.001
O  O49  1  0.76281446  0.31047663  0.03595169  1  -0.614405  0.099376  2.052355  0.133  -0.582129  0.065229  2.332924  0.096  -0.626121  0.050629  2.325151  0.08  -0.333539  -0.553023  0.074451  2.337919  0.104
O  O50  1  0.23718454  0.68952298  0.96404690  1  -0.614406  0.099361  2.052303  0.133  -0.582041  0.065227  2.33288  0.096  -0.626036  0.050629  2.325107  0.08  -0.333504  -0.552939  0.074451  2.337879  0.104
O  O51  1  0.15695717  0.33165779  0.16361427  1  -0.650622  -0.000475  1.940928  0.002  -0.61121  -0.000913  2.174986  0.001  -0.63547  -0.001875  2.163897  0.0  -0.326364  -0.594137  -0.000124  2.181405  0.002
O  O52  1  0.84304312  0.66834058  0.83638031  1  -0.650585  -0.000477  1.940991  0.002  -0.611224  -0.00091  2.175047  0.001  -0.635485  -0.001876  2.163955  0.0  -0.326391  -0.594146  -0.000125  2.181452  0.002
