# generated using pymatgen
data_Cu3H30C30(N14O)2
_symmetry_space_group_name_H-M   'P 1'
_cell_length_a   13.24194882
_cell_length_b   14.54598912
_cell_length_c   15.51576522
_cell_angle_alpha   89.99685564
_cell_angle_beta   91.36374642
_cell_angle_gamma   90.00335874
_symmetry_Int_Tables_number   1
_chemical_formula_structural   Cu3H30C30(N14O)2
_chemical_formula_sum   'Cu6 H60 C60 N56 O4'
_cell_volume   2987.75739192
_cell_formula_units_Z   2
loop_
 _symmetry_equiv_pos_site_id
 _symmetry_equiv_pos_as_xyz
  1  'x, y, z'
loop_
 _atom_site_type_symbol
 _atom_site_label
 _atom_site_symmetry_multiplicity
 _atom_site_fract_x
 _atom_site_fract_y
 _atom_site_fract_z
 _atom_site_occupancy
 _atom_site_pbe_bader_charge
 _atom_site_pbe_bader_spin_density
 _atom_site_pbe_cm5_charge
 _atom_site_pbe_ddec_charge
 _atom_site_pbe_ddec_spin_density
 _atom_site_pbe_ddec_sum_bond_order
 _atom_site_pbe_magmom
Cu  Cu0  1  0.99998205  0.00002463  0.99991600  1  1.085664  -0.595776  0.840308  0.605422  -0.788278  2.563354  -0.593
Cu  Cu1  1  0.49994921  0.49996903  0.49994256  1  1.083905  -0.590875  0.839772  0.603813  -0.781229  2.563886  -0.588
Cu  Cu2  1  0.98483853  0.20760599  0.10246872  1  1.006861  -0.505202  0.772623  0.587083  -0.667067  2.464799  -0.504
Cu  Cu3  1  0.51526136  0.70750386  0.39742194  1  1.006889  -0.505313  0.772619  0.587458  -0.667256  2.464059  -0.505
Cu  Cu4  1  0.01511999  0.79229564  0.89754148  1  1.006598  -0.505272  0.772497  0.587447  -0.6672  2.463786  -0.504
Cu  Cu5  1  0.48473187  0.29263288  0.60260708  1  1.008028  0.50736  0.774243  0.588384  0.756822  2.467392  0.506
H  H6  1  0.56891579  0.38068775  0.75855529  1  0.138446  0.002432  0.122488  0.093312  0.001335  1.003454  0.002
H  H7  1  0.93058525  0.88033216  0.74197916  1  0.088781  -0.002499  0.12241  0.092787  -0.001166  1.004393  -0.002
H  H8  1  0.43077147  0.61946961  0.24176726  1  0.141135  -0.002454  0.122611  0.093284  -0.001167  1.004507  -0.002
H  H9  1  0.06928774  0.11945946  0.25809295  1  0.086235  -0.002506  0.122641  0.093406  -0.001167  1.003906  -0.002
H  H10  1  0.69257002  0.33859816  0.87829026  1  0.086011  0.001207  0.116078  0.125291  0.00068  0.991042  0.001
H  H11  1  0.80717283  0.83834155  0.62203905  1  0.091259  -0.001348  0.11572  0.124537  -0.000724  0.991542  -0.001
H  H12  1  0.30725583  0.66147258  0.12190196  1  0.087154  -0.001358  0.115775  0.124686  -0.000726  0.991424  -0.001
H  H13  1  0.19272355  0.16140746  0.37804196  1  0.087372  -0.001363  0.115779  0.124733  -0.000738  0.990967  -0.001
H  H14  1  0.73366953  0.07779289  0.75135128  1  0.116947  0.001158  0.116507  0.127012  0.000663  0.99246  0.001
H  H15  1  0.76641285  0.57715140  0.74840674  1  0.121174  -0.001272  0.116658  0.127444  -0.000682  0.991945  -0.001
H  H16  1  0.26639982  0.92252742  0.24846029  1  0.122026  -0.001273  0.116518  0.127335  -0.000672  0.99193  -0.001
H  H17  1  0.23371413  0.42253437  0.25160141  1  0.122405  -0.001148  0.116659  0.127469  -0.000563  0.991841  -0.001
H  H18  1  0.60900638  0.13184989  0.63594271  1  0.155917  0.002329  0.121411  0.103658  0.001242  1.028933  0.002
H  H19  1  0.89083645  0.63115373  0.86403536  1  0.148095  -0.002362  0.121374  0.103509  -0.001107  1.028803  -0.002
H  H20  1  0.39095241  0.86853985  0.36397081  1  0.152118  -0.002356  0.121356  0.103346  -0.001108  1.0289  -0.002
H  H21  1  0.10918387  0.36861865  0.13602714  1  0.150468  -0.002317  0.121465  0.103629  -0.001085  1.028603  -0.002
H  H22  1  0.36985189  0.30343521  0.75902668  1  0.125054  0.001774  0.116855  0.083643  0.000902  1.052348  0.001
H  H23  1  0.12991925  0.80324501  0.74106281  1  0.128172  -0.001787  0.116636  0.083985  -0.000829  1.052018  -0.001
H  H24  1  0.62999876  0.69669191  0.24092827  1  0.126061  -0.001787  0.116923  0.083912  -0.000829  1.052115  -0.001
H  H25  1  0.86994650  0.19669649  0.25889055  1  0.127752  -0.001793  0.116728  0.083831  -0.000837  1.052564  -0.001
H  H26  1  0.24915613  0.20712482  0.84057754  1  0.123347  0.00093  0.114264  0.124365  0.000578  1.005891  0.001
H  H27  1  0.25065429  0.70705973  0.65942047  1  0.123649  -0.000898  0.114367  0.124381  -0.000442  1.005675  -0.001
H  H28  1  0.75066223  0.79298855  0.15930193  1  0.123166  -0.000894  0.114093  0.124164  -0.000439  1.005819  -0.001
H  H29  1  0.74911130  0.29289828  0.34041723  1  0.124746  -0.000912  0.114413  0.12458  -0.000494  1.004839  -0.001
H  H30  1  0.25322637  0.01165105  0.63107668  1  0.096264  0.001011  0.114857  0.128196  0.000568  0.983281  0.001
H  H31  1  0.24703724  0.51162162  0.86897951  1  0.096724  -0.00118  0.114773  0.128082  -0.000649  0.98345  -0.001
H  H32  1  0.74713916  0.98825952  0.36899478  1  0.056008  -0.001215  0.114695  0.127925  -0.000651  0.983181  -0.001
H  H33  1  0.75312545  0.48842026  0.13095337  1  0.095127  -0.001178  0.11486  0.127983  -0.000647  0.983827  -0.001
H  H34  1  0.37809259  0.11479271  0.55889668  1  0.118644  0.002002  0.119692  0.093623  0.001061  1.016226  0.002
H  H35  1  0.12211638  0.61464745  0.94122903  1  0.117141  -0.002099  0.119734  0.093536  -0.001003  1.016257  -0.002
H  H36  1  0.62226303  0.88516393  0.44121451  1  0.118452  -0.002097  0.119545  0.093522  -0.001005  1.016227  -0.002
H  H37  1  0.87808238  0.38536281  0.05877555  1  0.116868  -0.002097  0.119712  0.09332  -0.000999  1.01676  -0.002
H  H38  1  0.09152793  0.25634987  0.92082480  1  0.114419  2.5e-05  0.114907  0.03905  7.4e-05  1.035101  0.0
H  H39  1  0.40863270  0.75634914  0.57907727  1  0.115726  -5e-06  0.1148  0.038761  4.4e-05  1.035176  0.0
H  H40  1  0.90848563  0.74378138  0.07922787  1  0.112405  -1e-05  0.114869  0.039275  4.3e-05  1.034624  0.0
H  H41  1  0.59135428  0.24357586  0.42102316  1  0.117051  -5e-05  0.114815  0.039015  -0.000107  1.035059  0.0
H  H42  1  0.96795244  0.48071954  0.80022896  1  0.059133  -4e-06  0.102653  0.112493  8e-06  0.99313  0.0
H  H43  1  0.53210740  0.98075841  0.69971786  1  0.058978  1e-05  0.102778  0.112556  1e-06  0.993094  0.0
H  H44  1  0.03198062  0.51928040  0.19969560  1  0.059326  -1e-06  0.102762  0.112507  1.5e-05  0.992794  0.0
H  H45  1  0.46796705  0.01923741  0.30016279  1  0.057581  -7e-06  0.1026  0.112441  1e-05  0.992812  0.0
H  H46  1  0.96480069  0.47673835  0.91580425  1  0.142119  -1.8e-05  0.108957  0.132549  -4.4e-05  1.019954  0.0
H  H47  1  0.53539333  0.97675321  0.58415221  1  0.141684  1.1e-05  0.109044  0.133041  7e-06  1.019221  0.0
H  H48  1  0.03517999  0.52336196  0.08411105  1  0.141562  -1.8e-05  0.10885  0.132598  -4.4e-05  1.019514  0.0
H  H49  1  0.46466825  0.02313811  0.41573783  1  0.141294  -1.4e-05  0.109086  0.132902  -9e-06  1.019934  0.0
H  H50  1  0.86722633  0.42258121  0.85192831  1  0.060072  -0.0  0.09897  0.107073  0.0  0.998608  0.0
H  H51  1  0.63287403  0.92261383  0.64811716  1  0.058262  -1.6e-05  0.099021  0.107074  -1.3e-05  0.998283  0.0
H  H52  1  0.13274662  0.57747373  0.14805450  1  0.060264  -3.6e-05  0.099013  0.106886  -1.7e-05  0.998917  0.0
H  H53  1  0.36715950  0.07731530  0.35180899  1  0.05771  -4.9e-05  0.098897  0.107096  -2.4e-05  0.998594  0.0
H  H54  1  0.04137531  0.34060777  0.72490607  1  0.046634  -8e-06  0.106464  0.120959  -1e-05  0.971416  0.0
H  H55  1  0.45862229  0.84065453  0.77502025  1  0.047061  5e-06  0.106458  0.120936  7e-06  0.97152  0.0
H  H56  1  0.95861946  0.65936329  0.27510687  1  0.046468  7e-06  0.106469  0.120849  9e-06  0.971601  0.0
H  H57  1  0.54148124  0.15944166  0.22500284  1  0.047045  3e-06  0.106305  0.120778  6e-06  0.971092  0.0
H  H58  1  0.93015493  0.28227406  0.75712708  1  0.063953  0.0001  0.101877  0.117122  9.4e-05  0.989399  0.0
H  H59  1  0.56985485  0.78226904  0.74285722  1  0.064743  -5.9e-05  0.101676  0.116678  -5e-05  0.989509  0.0
H  H60  1  0.06983604  0.71774306  0.24289608  1  0.063481  -5.9e-05  0.101812  0.116912  -4.8e-05  0.989284  0.0
H  H61  1  0.43019052  0.21774534  0.25716393  1  0.064043  -8.2e-05  0.101694  0.116724  -6.4e-05  0.989452  0.0
H  H62  1  0.05150193  0.23772078  0.78814860  1  0.105264  7e-06  0.106131  0.118826  7e-06  1.026848  0.0
H  H63  1  0.44848671  0.73775627  0.71177380  1  0.105788  -6e-06  0.106134  0.118749  3e-06  1.02683  0.0
H  H64  1  0.94846172  0.76229428  0.21192358  1  0.104579  -8e-06  0.106037  0.118755  2e-06  1.026751  0.0
H  H65  1  0.55150705  0.26227941  0.28834159  1  0.105076  -8e-06  0.106312  0.119012  1e-06  1.026887  0.0
C  C66  1  0.60702961  0.31427930  0.76060237  1  0.492363  -0.001503  0.050819  0.095875  0.000163  3.932864  -0.001
C  C67  1  0.89255066  0.81388819  0.73975681  1  0.513511  0.001283  0.051369  0.096841  0.000312  3.933984  0.001
C  C68  1  0.39269879  0.68588081  0.23958768  1  0.496746  0.001287  0.050352  0.09558  0.000288  3.934853  0.001
C  C69  1  0.10733666  0.18590068  0.26032207  1  0.551254  0.001424  0.050024  0.095067  0.000351  3.933839  0.001
C  C70  1  0.67559134  0.29081151  0.82591135  1  0.026902  0.006278  -0.076689  -0.16208  0.004726  3.93349  0.005
C  C71  1  0.82418416  0.79043859  0.67431481  1  0.061331  -0.006162  -0.076783  -0.161675  -0.004257  3.933736  -0.005
C  C72  1  0.32426945  0.70933279  0.17420688  1  0.023279  -0.006246  -0.076545  -0.161044  -0.004261  3.934188  -0.005
C  C73  1  0.17577273  0.20930286  0.32573661  1  0.025024  -0.006686  -0.076414  -0.161187  -0.004564  3.933174  -0.005
C  C74  1  0.72242898  0.20432639  0.82394296  1  -0.033074  -0.004582  0.022251  0.08535  -0.003086  4.003652  -0.003
C  C75  1  0.77748791  0.70388014  0.67609810  1  -0.042099  0.002741  0.022433  0.085556  0.002095  4.003544  0.002
C  C76  1  0.27752044  0.79585917  0.17608315  1  -0.009234  0.002734  0.022274  0.084331  0.002088  4.004349  0.002
C  C77  1  0.22253478  0.29582762  0.32392449  1  -0.024565  0.003594  0.022154  0.084501  0.002734  4.003743  0.002
C  C78  1  0.69817019  0.14514652  0.75507843  1  -0.021343  0.006597  -0.073956  -0.15326  0.005074  3.920576  0.005
C  C79  1  0.80176873  0.64459025  0.74488239  1  -0.057198  -0.006398  -0.074167  -0.154303  -0.004388  3.921113  -0.005
C  C80  1  0.30180964  0.85511948  0.24487423  1  -0.06497  -0.00639  -0.073909  -0.153294  -0.004388  3.921482  -0.005
C  C81  1  0.19828341  0.35512164  0.25514214  1  -0.065209  -0.006126  -0.07397  -0.153485  -0.00414  3.920664  -0.005
C  C82  1  0.62907598  0.17364860  0.69208995  1  0.469775  -0.00119  0.04835  0.085357  0.000369  3.924405  -0.001
C  C83  1  0.87077317  0.67305369  0.80795634  1  0.490217  0.00102  0.048446  0.086285  9.1e-05  3.924893  0.001
C  C84  1  0.37088415  0.82666483  0.30788676  1  0.48417  0.001018  0.047974  0.085726  9.8e-05  3.925015  0.001
C  C85  1  0.12924342  0.32669876  0.19208673  1  0.484777  0.001182  0.047903  0.085432  0.000202  3.925044  0.001
C  C86  1  0.79570360  0.17644167  0.89015342  1  0.910836  -0.005252  0.208965  0.209277  -0.004465  4.064474  -0.006
C  C87  1  0.70429862  0.67604298  0.60978527  1  0.935731  -0.006023  0.209117  0.209736  -0.004957  4.065155  -0.007
C  C88  1  0.20429057  0.82371845  0.10980343  1  0.913985  -0.006031  0.209036  0.20981  -0.004958  4.063703  -0.007
C  C89  1  0.29574451  0.32367923  0.39022102  1  0.926945  -0.001411  0.209154  0.210227  -0.000908  4.062373  -0.002
C  C90  1  0.34302357  0.23797737  0.73322532  1  0.461307  -0.001176  0.043424  0.093114  -6.8e-05  3.943344  -0.001
C  C91  1  0.15685446  0.73782073  0.76682158  1  0.455881  0.001126  0.04329  0.092045  0.000483  3.944211  0.001
C  C92  1  0.65691620  0.76212363  0.26673677  1  0.459322  0.001151  0.043179  0.09246  0.000506  3.943442  0.001
C  C93  1  0.84305971  0.26214140  0.23310643  1  0.458556  0.00117  0.042948  0.091911  0.000509  3.945049  0.001
C  C94  1  0.27461612  0.18522987  0.77761947  1  -0.015033  0.005104  -0.077808  -0.156902  0.003961  3.926129  0.004
C  C95  1  0.22527592  0.68515772  0.72239502  1  -0.016028  -0.004895  -0.077729  -0.156308  -0.00336  3.926322  -0.004
C  C96  1  0.72532447  0.81483950  0.22231299  1  -0.015993  -0.004861  -0.077495  -0.156338  -0.003337  3.92587  -0.004
C  C97  1  0.77459383  0.31482915  0.27747400  1  -0.018663  -0.004847  -0.07763  -0.156654  -0.003308  3.926684  -0.004
C  C98  1  0.23979415  0.10228140  0.74143767  1  0.05684  -0.003687  0.02031  0.087178  -0.002483  4.00179  -0.002
C  C99  1  0.26021787  0.60225567  0.75858311  1  0.044278  0.002788  0.020274  0.087148  0.002109  4.001521  0.002
C  C100  1  0.76026420  0.89772954  0.25853221  1  0.053416  0.002833  0.020146  0.086732  0.002146  4.001525  0.002
C  C101  1  0.73979235  0.39777727  0.24130256  1  0.044098  0.002846  0.020009  0.086889  0.002159  4.002286  0.002
C  C102  1  0.27736496  0.07582793  0.66131372  1  -0.05604  0.005262  -0.078741  -0.161818  0.003998  3.920922  0.004
C  C103  1  0.22276763  0.57576534  0.83873818  1  -0.047823  -0.005904  -0.079001  -0.162246  -0.004063  3.920915  -0.005
C  C104  1  0.72287525  0.92413214  0.33872723  1  0.028556  -0.005755  -0.078676  -0.16175  -0.004047  3.920212  -0.005
C  C105  1  0.77732260  0.42425386  0.16117183  1  -0.04768  -0.005886  -0.078952  -0.161922  -0.004056  3.921477  -0.005
C  C106  1  0.34627734  0.13246849  0.62086735  1  0.502022  -0.000742  0.047623  0.09487  0.000609  3.942427  0.0
C  C107  1  0.15382714  0.63235393  0.87921388  1  0.506682  0.000476  0.048008  0.095355  -0.000266  3.942227  0.0
C  C108  1  0.65396886  0.86750739  0.37919437  1  0.458478  0.000362  0.048214  0.095481  -0.000285  3.942087  0.0
C  C109  1  0.84627881  0.36765358  0.12075255  1  0.506808  0.000477  0.048006  0.095615  -0.000264  3.943235  0.0
C  C110  1  0.16824465  0.04676666  0.78846189  1  0.881711  -0.003263  0.202188  0.210715  -0.002719  4.077995  -0.004
C  C111  1  0.33177594  0.54677899  0.71152006  1  0.881599  -0.00404  0.202145  0.210284  -0.003214  4.077811  -0.004
C  C112  1  0.83177381  0.95325390  0.21145297  1  0.884413  -0.003975  0.201925  0.210231  -0.003192  4.077148  -0.004
C  C113  1  0.66823054  0.45325327  0.28834942  1  0.882303  -0.004019  0.202695  0.211423  -0.003211  4.076204  -0.005
C  C114  1  0.05228344  0.32287484  0.92959899  1  1.342526  0.000235  0.159391  0.290453  0.000259  4.150083  0.0
C  C115  1  0.44789436  0.82288146  0.57030775  1  1.339753  0.000225  0.160119  0.291083  0.000255  4.149911  0.0
C  C116  1  0.94772119  0.67725297  0.07040192  1  1.348204  0.000218  0.159717  0.290351  0.000247  4.149429  0.0
C  C117  1  0.55210487  0.17702017  0.42973429  1  1.340834  -0.000245  0.159971  0.290618  -0.000225  4.14984  0.0
C  C118  1  0.94857710  0.43853121  0.85622082  1  0.188271  -3e-05  -0.134885  -0.27246  -4.5e-05  3.917051  0.0
C  C119  1  0.55153733  0.93855853  0.64375389  1  0.190218  2.1e-05  -0.135232  -0.272828  1.1e-05  3.916037  0.0
C  C120  1  0.05139592  0.56151685  0.14373427  1  0.189769  -3.7e-05  -0.134907  -0.272185  -4.2e-05  3.91586  0.0
C  C121  1  0.44851057  0.06138916  0.35616678  1  0.19211  -4.9e-05  -0.134764  -0.272713  -2.9e-05  3.916823  0.0
C  C122  1  0.00777260  0.30088171  0.77731911  1  0.244681  2e-05  -0.129329  -0.270189  2.7e-05  3.917331  0.0
C  C123  1  0.49224802  0.80090164  0.72263748  1  0.243354  -9e-06  -0.129357  -0.269972  -1.1e-05  3.917647  0.0
C  C124  1  0.99220702  0.69913472  0.22271154  1  0.245368  -1e-05  -0.129309  -0.269866  -9e-06  3.917211  0.0
C  C125  1  0.50779729  0.19913336  0.27740429  1  0.243962  -1e-05  -0.129393  -0.270037  -8e-06  3.916676  0.0
N  N126  1  0.58374094  0.25640623  0.69542920  1  -1.221154  0.096123  -0.348225  -0.203796  0.073824  3.643394  0.084
N  N127  1  0.91589546  0.75591902  0.80484269  1  -1.222412  -0.094372  -0.348751  -0.204618  -0.064307  3.642819  -0.083
N  N128  1  0.41605791  0.74383500  0.30468959  1  -1.223182  -0.094495  -0.347912  -0.204119  -0.064366  3.642071  -0.083
N  N129  1  0.08404857  0.24387055  0.19521553  1  -1.221815  -0.094828  -0.347524  -0.20337  -0.064587  3.642735  -0.083
N  N130  1  0.84152531  0.09330856  0.89104910  1  -0.585405  -0.008435  -0.202753  -0.23062  -0.005189  3.152906  -0.006
N  N131  1  0.65842941  0.59292819  0.60880517  1  -0.591592  -0.007333  -0.202689  -0.231111  -0.004425  3.153339  -0.005
N  N132  1  0.15847516  0.90684331  0.10880863  1  -0.588337  -0.007349  -0.203243  -0.23161  -0.004443  3.153035  -0.005
N  N133  1  0.34165325  0.40677751  0.39110983  1  -0.58849  -0.000582  -0.203093  -0.231604  0.000151  3.151658  0.0
N  N134  1  0.90250803  0.09673932  0.95918394  1  -0.165116  -0.08325  -0.126874  -0.020624  -0.059295  3.597281  -0.076
N  N135  1  0.59751276  0.59642993  0.54062651  1  -0.167602  -0.082801  -0.127083  -0.019376  -0.058796  3.598902  -0.076
N  N136  1  0.09749395  0.90336580  0.04067769  1  -0.165685  -0.082849  -0.126385  -0.019258  -0.058984  3.596816  -0.076
N  N137  1  0.40257138  0.40332115  0.45930013  1  -0.164171  -0.081856  -0.126728  -0.018823  -0.058654  3.599727  -0.074
N  N138  1  0.89505057  0.17808274  0.99856369  1  -0.191954  -0.060153  -0.129732  -0.040715  -0.043161  3.568259  -0.055
N  N139  1  0.60502597  0.67780903  0.50131018  1  -0.184347  -0.05973  -0.129072  -0.040291  -0.04288  3.568423  -0.055
N  N140  1  0.10492175  0.82198388  0.00137463  1  -0.188773  -0.059778  -0.129867  -0.04126  -0.042894  3.569004  -0.055
N  N141  1  0.39499751  0.32206716  0.49870082  1  -0.187792  0.056671  -0.129473  -0.040293  0.046432  3.570807  0.051
N  N142  1  0.82802673  0.22988072  0.95661547  1  -0.610125  -0.010477  -0.203718  -0.242615  -0.006633  3.171271  -0.008
N  N143  1  0.67202349  0.72955300  0.54335054  1  -0.6165  -0.009254  -0.204598  -0.243812  -0.005805  3.173409  -0.007
N  N144  1  0.17193334  0.77020516  0.04338381  1  -0.613406  -0.009328  -0.204226  -0.243293  -0.005852  3.170899  -0.007
N  N145  1  0.32796503  0.27025170  0.45674283  1  -0.614504  -0.00167  -0.204404  -0.244  -0.00092  3.170703  -0.001
N  N146  1  0.37830981  0.21233841  0.65603592  1  -1.230134  0.080119  -0.349169  -0.228054  0.061665  3.627437  0.07
N  N147  1  0.12166167  0.71216032  0.84403307  1  -1.226398  -0.079195  -0.34909  -0.227821  -0.053969  3.627633  -0.069
N  N148  1  0.62177410  0.78772478  0.34398158  1  -1.228768  -0.079118  -0.349623  -0.228509  -0.053941  3.627643  -0.069
N  N149  1  0.87837322  0.28782793  0.15594982  1  -1.227712  -0.079196  -0.349078  -0.227786  -0.053968  3.628493  -0.069
N  N150  1  0.12582932  0.07634203  0.86171203  1  -0.588168  -0.005648  -0.207871  -0.242926  -0.003408  3.2061  -0.004
N  N151  1  0.37411097  0.57636495  0.63822858  1  -0.588127  -0.00468  -0.207767  -0.242537  -0.002738  3.205471  -0.003
N  N152  1  0.87413335  0.92368472  0.13815904  1  -0.588328  -0.004673  -0.207781  -0.242574  -0.002758  3.205719  -0.003
N  N153  1  0.62581930  0.42365768  0.36160891  1  -0.588038  -0.004161  -0.208674  -0.243713  -0.00231  3.204729  -0.003
N  N154  1  0.07002066  0.00598028  0.88593003  1  -0.196985  -0.08952  -0.130252  -0.032381  -0.063382  3.618553  -0.081
N  N155  1  0.42993475  0.50602674  0.61398361  1  -0.198324  -0.089646  -0.130465  -0.032434  -0.063434  3.618666  -0.081
N  N156  1  0.92991415  0.99405678  0.11390434  1  -0.199258  -0.089055  -0.130596  -0.032596  -0.063057  3.618558  -0.08
N  N157  1  0.56998803  0.49399520  0.38583051  1  -0.194812  -0.088179  -0.130199  -0.032483  -0.062296  3.618381  -0.08
N  N158  1  0.07681169  0.93586659  0.83073120  1  -0.167903  -0.001839  -0.106904  -0.097241  -0.00097  3.384903  -0.003
N  N159  1  0.42320875  0.43592315  0.66919587  1  -0.167132  -0.003696  -0.106982  -0.097811  -0.002176  3.387476  -0.003
N  N160  1  0.92316389  0.06415604  0.16911117  1  -0.165842  -0.0015  -0.106839  -0.097462  -0.000722  3.386031  -0.003
N  N161  1  0.57676460  0.56410635  0.33063549  1  -0.168726  -0.00157  -0.106713  -0.096987  -0.000796  3.386515  -0.003
N  N162  1  0.13838574  0.96028842  0.76811067  1  -0.635852  -0.009504  -0.219832  -0.26675  -0.006163  3.202866  -0.007
N  N163  1  0.36167547  0.46031203  0.73185407  1  -0.635989  -0.008391  -0.21982  -0.266369  -0.00526  3.203558  -0.006
N  N164  1  0.86165998  0.03972871  0.23177837  1  -0.635647  -0.008481  -0.219615  -0.266163  -0.005483  3.203362  -0.006
N  N165  1  0.63833407  0.53971816  0.26800065  1  -0.636796  -0.007997  -0.220286  -0.267447  -0.005175  3.202785  -0.006
N  N166  1  0.09041709  0.12851598  0.05114703  1  -0.321379  -0.095731  -0.34217  -0.56233  -0.066186  3.21509  -0.084
N  N167  1  0.40957826  0.62856723  0.44880152  1  -0.321242  -0.095178  -0.342155  -0.562062  -0.065745  3.214379  -0.083
N  N168  1  0.90957048  0.87151627  0.94873298  1  -0.320981  -0.095873  -0.342103  -0.562155  -0.066255  3.215131  -0.084
N  N169  1  0.59056767  0.37099961  0.55089447  1  -0.318729  0.095997  -0.341674  -0.561631  0.07535  3.213161  0.081
N  N170  1  0.17994823  0.14479826  0.05494657  1  -0.317558  -8.7e-05  0.082951  0.434285  0.003992  4.460925  0.013
N  N171  1  0.32004836  0.64489601  0.44493349  1  -0.31746  -7.7e-05  0.083191  0.433895  0.003943  4.461786  0.013
N  N172  1  0.82003022  0.85525118  0.94495321  1  -0.31801  -8.3e-05  0.083237  0.434311  0.003988  4.461196  0.013
N  N173  1  0.68013498  0.35508261  0.55576424  1  -0.318014  0.001885  0.081638  0.432501  -0.000804  4.460033  -0.011
N  N174  1  0.26681109  0.15842756  0.05674046  1  0.037184  -0.1268  -0.2112  -0.381486  -0.082512  2.448475  -0.09
N  N175  1  0.23320694  0.65856976  0.44308202  1  0.036825  -0.126021  -0.211457  -0.38141  -0.082002  2.450002  -0.09
N  N176  1  0.73316811  0.84162325  0.94316385  1  0.037417  -0.126982  -0.211351  -0.38151  -0.082645  2.448612  -0.09
N  N177  1  0.76705793  0.34179793  0.55850307  1  0.032986  0.126326  -0.211459  -0.381646  0.092932  2.448051  0.09
N  N178  1  0.00746856  0.35437180  0.85641781  1  -1.175714  6.8e-05  -0.290054  0.016206  2.2e-05  3.724629  0.0
N  N179  1  0.49264774  0.85438331  0.64352720  1  -1.175565  9.1e-05  -0.290019  0.01603  4e-05  3.72374  0.0
N  N180  1  0.99250436  0.64568726  0.14357531  1  -1.177173  6.6e-05  -0.290057  0.016036  3e-05  3.724184  0.0
N  N181  1  0.50739390  0.14557195  0.35647519  1  -1.176803  -9.9e-05  -0.290306  0.016145  -3e-05  3.72377  0.0
O  O182  1  0.04953703  0.36212513  0.00091973  1  -1.180975  0.000443  -0.320031  -0.492522  0.000341  2.247594  0.0
O  O183  1  0.45069271  0.86211711  0.49899813  1  -1.17964  0.000457  -0.320406  -0.492594  0.000346  2.248861  0.0
O  O184  1  0.95045254  0.63803912  0.99906215  1  -1.183794  0.000441  -0.320074  -0.492504  0.000341  2.24758  0.0
O  O185  1  0.54929300  0.13769790  0.50101139  1  -1.179664  -0.000481  -0.320209  -0.492409  -0.000273  2.248254  0.0
