# generated using pymatgen
data_CoH22C30(NO)6
_symmetry_space_group_name_H-M   'P 1'
_cell_length_a   7.38841301
_cell_length_b   8.62971497
_cell_length_c   9.90051102
_cell_angle_alpha   76.41061751
_cell_angle_beta   92.20918416
_cell_angle_gamma   87.14456540
_symmetry_Int_Tables_number   1
_chemical_formula_structural   CoH22C30(NO)6
_chemical_formula_sum   'Co1 H22 C30 N6 O6'
_cell_volume   611.99987840
_cell_formula_units_Z   1
loop_
 _symmetry_equiv_pos_site_id
 _symmetry_equiv_pos_as_xyz
  1  'x, y, z'
loop_
 _atom_site_type_symbol
 _atom_site_label
 _atom_site_symmetry_multiplicity
 _atom_site_fract_x
 _atom_site_fract_y
 _atom_site_fract_z
 _atom_site_occupancy
 _atom_site_pbe_cm5_charge
 _atom_site_pbe_ddec_charge
 _atom_site_pbe_ddec_spin_density
 _atom_site_pbe_ddec_sum_bond_order
 _atom_site_pbe_magmom
Co  Co0  1  0.49999954  0.50000127  0.00000122  1  0.637584  0.596989  1.012857  2.961445  0.912
H  H1  1  0.73565850  0.25626507  0.62272365  1  0.300229  0.278549  -5.9e-05  1.018874  0.0
H  H2  1  0.26434308  0.74373303  0.37727900  1  0.300207  0.278498  -5.9e-05  1.018926  0.0
H  H3  1  0.00814064  0.85785889  0.24877583  1  0.097705  0.091772  3.1e-05  1.046556  0.0
H  H4  1  0.99185477  0.14214876  0.75121969  1  0.097684  0.091767  3.1e-05  1.04652  0.0
H  H5  1  0.18661890  0.89504915  0.83438945  1  0.100254  0.105816  -3.2e-05  1.061369  0.0
H  H6  1  0.81338337  0.10495845  0.16560812  1  0.100255  0.105803  -3.2e-05  1.061419  0.0
H  H7  1  0.63497129  0.75267315  0.12380601  1  0.116335  0.079724  -6.5e-05  1.044982  0.0
H  H8  1  0.36503296  0.24732491  0.87619564  1  0.116333  0.07973  -6.5e-05  1.044923  0.0
H  H9  1  0.74446377  0.77351949  0.36014241  1  0.106496  0.115539  -3.1e-05  1.035153  0.0
H  H10  1  0.25554320  0.22647732  0.63985850  1  0.106493  0.115606  -3.1e-05  1.035041  0.0
H  H11  1  0.78620210  0.52236228  0.55215943  1  0.111467  0.126661  -0.000246  1.018966  0.0
H  H12  1  0.21380077  0.47763337  0.44783971  1  0.111441  0.126656  -0.000246  1.018854  0.0
H  H13  1  0.62929063  0.25998861  0.25104864  1  0.120542  0.098749  -0.000223  1.076046  0.0
H  H14  1  0.37070806  0.74001190  0.74895248  1  0.120555  0.098808  -0.000223  1.075993  0.0
H  H15  1  0.90987586  0.77771139  0.59547103  1  0.109038  0.114724  0.000281  1.015783  0.0
H  H16  1  0.09011463  0.22228435  0.40452402  1  0.108988  0.11467  0.000281  1.015679  0.0
H  H17  1  0.53727364  0.10157007  0.73365144  1  0.108816  0.109485  0.000194  1.044705  0.0
H  H18  1  0.46273038  0.89843398  0.26635093  1  0.108812  0.109449  0.000194  1.044798  0.0
H  H19  1  0.48951799  0.88341226  0.93856996  1  0.11271  0.076478  0.000444  1.034108  0.001
H  H20  1  0.51048617  0.11659183  0.06143544  1  0.112732  0.076467  0.000444  1.034161  0.001
H  H21  1  0.85023608  0.57155755  0.80967738  1  0.118287  0.096704  0.000445  1.009675  0.001
H  H22  1  0.14975304  0.42843941  0.19031842  1  0.118277  0.096685  0.000445  1.009671  0.001
C  C23  1  0.00429486  0.92045152  0.13961981  1  -0.091282  -0.096196  -0.001407  3.997196  -0.001
C  C24  1  0.99570080  0.07955499  0.86038000  1  -0.09127  -0.096235  -0.001407  3.997163  -0.001
C  C25  1  0.10635715  0.94094325  0.90766866  1  -0.093327  -0.101489  -0.000849  3.96375  0.0
C  C26  1  0.89363985  0.05906445  0.09233191  1  -0.093369  -0.101511  -0.000849  3.963964  0.0
C  C27  1  0.11242621  0.86007529  0.04837056  1  -0.023621  -0.042517  -0.002716  3.986352  -0.001
C  C28  1  0.88757242  0.13993004  0.95163355  1  -0.023568  -0.042436  -0.002716  3.986425  -0.001
C  C29  1  0.23723041  0.71465022  0.10336883  1  0.20799  0.553234  -0.005713  4.193222  -0.003
C  C30  1  0.76276669  0.28535387  0.89663049  1  0.208019  0.553305  -0.005713  4.193106  -0.003
C  C31  1  0.65727904  0.64695433  0.20848954  1  0.039651  0.071434  -0.0055  3.93076  -0.003
C  C32  1  0.34272496  0.35304729  0.79151033  1  0.039636  0.071481  -0.005497  3.930755  -0.003
C  C33  1  0.71969834  0.65703009  0.34033116  1  -0.089073  -0.11832  8.1e-05  3.997855  0.001
C  C34  1  0.28030872  0.34296675  0.65967176  1  -0.089052  -0.118404  8e-05  3.997889  0.001
C  C35  1  0.74502449  0.51894770  0.44611623  1  -0.075569  -0.132871  -0.00678  3.912739  -0.004
C  C36  1  0.25497982  0.48104916  0.55388568  1  -0.075578  -0.132879  -0.006777  3.912697  -0.004
C  C37  1  0.71320421  0.37184021  0.41497890  1  0.101748  0.20711  6.2e-05  4.007351  0.001
C  C38  1  0.28680000  0.62815663  0.58502100  1  0.101779  0.207126  6.2e-05  4.007219  0.001
C  C39  1  0.65357742  0.37127525  0.27898846  1  0.043742  -0.010535  -0.006082  3.853877  -0.004
C  C40  1  0.34642311  0.62871810  0.72101622  1  0.043788  -0.010513  -0.006081  3.853896  -0.004
C  C41  1  0.72622826  0.95660510  0.64582001  1  0.002526  0.010261  0.002548  3.967999  0.003
C  C42  1  0.27377174  0.04339174  0.35417685  1  0.00243  0.010202  0.002548  3.967703  0.003
C  C43  1  0.81555589  0.80518822  0.66954547  1  -0.073192  -0.130108  7.8e-05  3.921932  0.001
C  C44  1  0.18443735  0.19480749  0.33045060  1  -0.073088  -0.13001  7.8e-05  3.921733  0.001
C  C45  1  0.61084350  0.98635277  0.74660445  1  -0.080405  -0.143931  -0.000267  3.959008  0.001
C  C46  1  0.38916036  0.01364882  0.25339239  1  -0.080369  -0.143859  -0.000267  3.959051  0.001
C  C47  1  0.58556190  0.86431658  0.86242041  1  0.042449  0.08201  0.002574  3.965207  0.003
C  C48  1  0.41443939  0.13568507  0.13757945  1  0.042434  0.082019  0.002574  3.965388  0.003
C  C49  1  0.78385534  0.69059296  0.78966045  1  0.050619  0.098499  0.002197  3.921769  0.003
C  C50  1  0.21613920  0.30940393  0.21033537  1  0.050612  0.098485  0.002197  3.921792  0.003
C  C51  1  0.74667501  0.07826611  0.51296936  1  0.242493  0.469178  0.000368  4.108511  0.0
C  C52  1  0.25332546  0.92172843  0.48703507  1  0.242531  0.469197  0.000368  4.108359  0.0
N  N53  1  0.66629795  0.71668871  0.88387858  1  -0.304034  -0.233175  0.030125  3.442152  0.046
N  N54  1  0.33370097  0.28330579  0.11612180  1  -0.304045  -0.233158  0.030122  3.442141  0.046
N  N55  1  0.73028510  0.23364780  0.52367461  1  -0.39329  -0.380348  0.000537  3.56804  0.001
N  N56  1  0.26971749  0.76635503  0.47632499  1  -0.393256  -0.380265  0.000537  3.568166  0.001
N  N57  1  0.62004840  0.50672771  0.17902460  1  -0.324356  -0.148766  -0.007976  3.651274  -0.005
N  N58  1  0.37995286  0.49327272  0.82097350  1  -0.324408  -0.148863  -0.007977  3.651409  -0.005
O  O59  1  0.31302036  0.65897652  0.00766374  1  -0.304824  -0.508693  -0.004793  2.533001  -0.003
O  O60  1  0.68698198  0.34102989  0.99233408  1  -0.304845  -0.508742  -0.004792  2.532993  -0.003
O  O61  1  0.26146436  0.65876395  0.23289533  1  -0.317759  -0.56384  -0.004051  2.253418  -0.003
O  O62  1  0.73853003  0.34124017  0.76710398  1  -0.317789  -0.563918  -0.004051  2.253408  -0.003
O  O63  1  0.77254130  0.03632616  0.40310051  1  -0.281153  -0.473617  0.000395  2.167366  0.001
O  O64  1  0.22746315  0.96367074  0.59690442  1  -0.281162  -0.473669  0.000395  2.167303  0.001
