# generated using pymatgen
data_CdH14C9S(NCl)2
_symmetry_space_group_name_H-M   'P 1'
_cell_length_a   9.93493010
_cell_length_b   10.92502960
_cell_length_c   12.32139847
_cell_angle_alpha   90.00010702
_cell_angle_beta   100.49708278
_cell_angle_gamma   89.99991402
_symmetry_Int_Tables_number   1
_chemical_formula_structural   CdH14C9S(NCl)2
_chemical_formula_sum   'Cd4 H56 C36 S4 N8 Cl8'
_cell_volume   1314.97550086
_cell_formula_units_Z   4
loop_
 _symmetry_equiv_pos_site_id
 _symmetry_equiv_pos_as_xyz
  1  'x, y, z'
loop_
 _atom_site_type_symbol
 _atom_site_label
 _atom_site_symmetry_multiplicity
 _atom_site_fract_x
 _atom_site_fract_y
 _atom_site_fract_z
 _atom_site_occupancy
 _atom_site_pbe_bader_spin_density
 _atom_site_pbe_cm5_charge
 _atom_site_pbe_ddec_charge
 _atom_site_pbe_ddec_spin_density
 _atom_site_pbe_ddec_sum_bond_order
 _atom_site_pbe_magmom
Cd  Cd0  1  0.84729147  0.23075288  0.72799590  1  0  0.584077  0.648984  0  2.491917  0
Cd  Cd1  1  0.65270957  0.73075301  0.27200371  1  0  0.584066  0.64897  0  2.491913  0
Cd  Cd2  1  0.15270945  0.76924753  0.27200369  1  0  0.584051  0.648924  0  2.491967  0
Cd  Cd3  1  0.34729136  0.26924740  0.72799669  1  0  0.584056  0.648921  0  2.492022  0
H  H4  1  0.63885592  0.40028393  0.74692586  1  0  0.264552  0.226309  0  1.018848  0
H  H5  1  0.86114387  0.90028465  0.25307385  1  0  0.264558  0.226316  0  1.01885  0
H  H6  1  0.36114399  0.59971556  0.25307358  1  0  0.26455  0.226304  0  1.018854  0
H  H7  1  0.13885603  0.09971667  0.74692640  1  0  0.26454  0.226297  0  1.018871  0
H  H8  1  0.95422373  0.12766869  0.98881394  1  0  0.10808  0.075589  0  1.016397  0
H  H9  1  0.54577642  0.62766750  0.01118618  1  0  0.108086  0.075607  0  1.016378  0
H  H10  1  0.04577618  0.87233263  0.01118712  1  0  0.108058  0.075553  0  1.0164  0
H  H11  1  0.45422246  0.37233199  0.98881230  1  0  0.108065  0.075569  0  1.016424  0
H  H12  1  0.95145447  0.19536011  0.18220229  1  0  0.093914  0.112121  0  1.041561  0
H  H13  1  0.54854457  0.69535879  0.81779697  1  0  0.093915  0.112134  0  1.041518  0
H  H14  1  0.04854543  0.80464029  0.81779796  1  0  0.093914  0.112136  0  1.041564  0
H  H15  1  0.45145534  0.30464071  0.18220166  1  0  0.093909  0.112128  0  1.041568  0
H  H16  1  0.85837160  0.40847084  0.21082262  1  0  0.097206  0.100567  0  1.039766  0
H  H17  1  0.64162921  0.90847024  0.78917806  1  0  0.097193  0.100541  0  1.039787  0
H  H18  1  0.14162728  0.59152865  0.78917748  1  0  0.097192  0.100547  0  1.039741  0
H  H19  1  0.35837274  0.09152925  0.21082249  1  0  0.097195  0.100547  0  1.039741  0
H  H20  1  0.79219981  0.54315044  0.04887565  1  0  0.102643  0.113961  0  1.02501  0
H  H21  1  0.70780148  0.04314914  0.95112613  1  0  0.102645  0.113974  0  1.025001  0
H  H22  1  0.20779600  0.45684905  0.95112482  1  0  0.102647  0.113962  0  1.025008  0
H  H23  1  0.29220252  0.95685035  0.04887473  1  0  0.102645  0.113976  0  1.024992  0
H  H24  1  0.74541675  0.56752196  0.85096068  1  0  0.098634  0.080995  0  1.010324  0
H  H25  1  0.75458246  0.06752166  0.14903920  1  0  0.098638  0.081005  0  1.010316  0
H  H26  1  0.25458213  0.43247845  0.14903861  1  0  0.098642  0.080993  0  1.01032  0
H  H27  1  0.24541642  0.93247875  0.85095927  1  0  0.098643  0.081013  0  1.010331  0
H  H28  1  0.90313701  0.52223132  0.81447547  1  0  0.105391  0.099  0  1.011409  0
H  H29  1  0.59686226  0.02223131  0.18552516  1  0  0.10539  0.098993  0  1.011391  0
H  H30  1  0.09686188  0.47776817  0.18552544  1  0  0.105394  0.098991  0  1.011443  0
H  H31  1  0.40313662  0.97776818  0.81447413  1  0  0.105399  0.099021  0  1.011452  0
H  H32  1  0.82778306  0.51673919  0.62109842  1  0  0.10101  0.087116  0  0.989289  0
H  H33  1  0.67221826  0.01674040  0.37890088  1  0  0.101019  0.08713  0  0.989297  0
H  H34  1  0.17221685  0.48325938  0.37890021  1  0  0.101004  0.087104  0  0.989303  0
H  H35  1  0.32778266  0.98326092  0.62109952  1  0  0.100996  0.087108  0  0.989306  0
H  H36  1  0.66361608  0.57269432  0.63482822  1  0  0.092886  0.072213  0  0.993669  0
H  H37  1  0.83638517  0.07269435  0.36517116  1  0  0.09288  0.072216  0  0.993662  0
H  H38  1  0.33638383  0.42730518  0.36516960  1  0  0.092888  0.072199  0  0.993711  0
H  H39  1  0.16361576  0.92730605  0.63482924  1  0  0.092885  0.072175  0  0.993698  0
H  H40  1  0.63173432  0.46485737  0.45911945  1  0  0.088446  0.110864  0  1.037032  0
H  H41  1  0.86826539  0.96485777  0.54088035  1  0  0.088454  0.110862  0  1.037045  0
H  H42  1  0.36826354  0.53513937  0.54088050  1  0  0.088436  0.110858  0  1.037035  0
H  H43  1  0.13173452  0.03514263  0.45911990  1  0  0.088457  0.110878  0  1.037021  0
H  H44  1  0.55710234  0.37511681  0.55363697  1  0  0.09466  0.110277  0  1.007133  0
H  H45  1  0.94289851  0.87511782  0.44636285  1  0  0.094656  0.110257  0  1.007129  0
H  H46  1  0.44289859  0.62487994  0.44636343  1  0  0.094651  0.110242  0  1.007157  0
H  H47  1  0.05710242  0.12488350  0.55363755  1  0  0.094651  0.110267  0  1.007125  0
H  H48  1  0.83300729  0.41761152  0.38371290  1  0  0.086972  0.145332  0  1.036106  0
H  H49  1  0.66699350  0.91761327  0.61628618  1  0  0.086983  0.145316  0  1.036139  0
H  H50  1  0.16699363  0.58238797  0.61628751  1  0  0.086978  0.145332  0  1.036113  0
H  H51  1  0.33300538  0.08238805  0.38371311  1  0  0.086979  0.145324  0  1.036147  0
H  H52  1  0.93166929  0.27900590  0.40447264  1  0  0.091989  0.141524  0  1.007759  0
H  H53  1  0.56833168  0.77900682  0.59552623  1  0  0.091979  0.141516  0  1.007788  0
H  H54  1  0.06833164  0.72099451  0.59552695  1  0  0.092006  0.141538  0  1.007754  0
H  H55  1  0.43166822  0.22099358  0.40447321  1  0  0.092002  0.141552  0  1.007728  0
H  H56  1  0.95691497  0.39337914  0.50914478  1  0  0.080203  0.138584  0  1.053369  0
H  H57  1  0.54308586  0.89338079  0.49085426  1  0  0.080222  0.138566  0  1.053405  0
H  H58  1  0.04308494  0.60662035  0.49085466  1  0  0.080218  0.138571  0  1.053398  0
H  H59  1  0.45691405  0.10661961  0.50914437  1  0  0.080202  0.138551  0  1.053434  0
C  C60  1  0.91873209  0.21909627  0.00613499  1  0  0.044343  0.097621  0  3.965989  0
C  C61  1  0.58126794  0.71909527  0.99386526  1  0  0.044315  0.097587  0  3.965986  0
C  C62  1  0.08126679  0.78090414  0.99386511  1  0  0.044389  0.097677  0  3.965892  0
C  C63  1  0.41873298  0.28090422  0.00613433  1  0  0.044379  0.097641  0  3.96596  0
C  C64  1  0.91537795  0.25718141  0.11362360  1  0  -0.091896  -0.143142  0  3.97266  0
C  C65  1  0.58462306  0.75718109  0.88637686  1  0  -0.0919  -0.143161  0  3.972682  0
C  C66  1  0.08462093  0.74281808  0.88637650  1  0  -0.091887  -0.143143  0  3.972708  0
C  C67  1  0.41537889  0.24281840  0.11362369  1  0  -0.091897  -0.143152  0  3.972684  0
C  C68  1  0.86617869  0.37425940  0.12926257  1  0  -0.069049  -0.016001  0  3.968489  0
C  C69  1  0.63382216  0.87425807  0.87073806  1  0  -0.069033  -0.015967  0  3.968549  0
C  C70  1  0.13382019  0.62574101  0.87073753  1  0  -0.069063  -0.016018  0  3.968621  0
C  C71  1  0.36617979  0.12574142  0.12926249  1  0  -0.069045  -0.015979  0  3.96855  0
C  C72  1  0.82768141  0.45034242  0.03808548  1  0  -0.083528  -0.169325  0  3.930153  0
C  C73  1  0.67231934  0.95034123  0.96191446  1  0  -0.083508  -0.169293  0  3.930096  0
C  C74  1  0.17231645  0.54965799  0.96191447  1  0  -0.083498  -0.169289  0  3.930221  0
C  C75  1  0.32768261  0.04965826  0.03808529  1  0  -0.083516  -0.169308  0  3.930245  0
C  C76  1  0.83664237  0.40657597  0.93326645  1  0  0.120584  0.241275  0  3.923654  0
C  C77  1  0.66335741  0.90657565  0.06673327  1  0  0.120554  0.241237  0  3.923615  0
C  C78  1  0.16335549  0.59342444  0.06673350  1  0  0.120553  0.241256  0  3.923719  0
C  C79  1  0.33664249  0.09342384  0.93326618  1  0  0.120589  0.241252  0  3.923819  0
C  C80  1  0.80544480  0.48780221  0.83262126  1  0  -0.06896  -0.107507  0  3.91952  0
C  C81  1  0.69455487  0.98780114  0.16737858  1  0  -0.068955  -0.107495  0  3.919504  0
C  C82  1  0.19455408  0.51219911  0.16737884  1  0  -0.068971  -0.107504  0  3.91956  0
C  C83  1  0.30544606  0.01219743  0.83262101  1  0  -0.068949  -0.107534  0  3.919566  0
C  C84  1  0.72485830  0.48861670  0.63212208  1  0  -0.077518  -0.026073  0  3.939633  0
C  C85  1  0.77514240  0.98861777  0.36787791  1  0  -0.077532  -0.026111  0  3.939643  0
C  C86  1  0.27514160  0.51138188  0.36787736  1  0  -0.077529  -0.026074  0  3.939619  0
C  C87  1  0.22485751  0.01138355  0.63212234  1  0  -0.077503  -0.026014  0  3.939631  0
C  C88  1  0.65410161  0.41098848  0.53565983  1  0  -0.154104  -0.207139  0  3.880069  0
C  C89  1  0.84589816  0.91098966  0.46433908  1  0  -0.154084  -0.207068  0  3.88002  0
C  C90  1  0.34589829  0.58900918  0.46433961  1  0  -0.154071  -0.207075  0  3.880067  0
C  C91  1  0.15410072  0.08901074  0.53566102  1  0  -0.154089  -0.20713  0  3.880031  0
C  C92  1  0.88070819  0.35033484  0.44497617  1  0  -0.238948  -0.409467  0  3.878226  0
C  C93  1  0.61929269  0.85033561  0.55502281  1  0  -0.238967  -0.409425  0  3.878327  0
C  C94  1  0.11929274  0.64966465  0.55502342  1  0  -0.239001  -0.409496  0  3.878326  0
C  C95  1  0.38070619  0.14966479  0.44497648  1  0  -0.238957  -0.409445  0  3.87835  0
S  S96  1  0.74838010  0.27678646  0.50468678  1  0  -0.007796  0.06434  0  2.868267  0
S  S97  1  0.75161985  0.77678692  0.49531275  1  0  -0.007801  0.064329  0  2.868261  0
S  S98  1  0.25162083  0.72321212  0.49531282  1  0  -0.007776  0.064378  0  2.868258  0
S  S99  1  0.24838005  0.22321440  0.50468750  1  0  -0.007807  0.064338  0  2.868255  0
N  N100  1  0.87866832  0.29150530  0.91821335  1  0  -0.329816  -0.269237  0  3.469767  0
N  N101  1  0.62133162  0.79150415  0.08178782  1  0  -0.329787  -0.269228  0  3.469731  0
N  N102  1  0.12133056  0.70849511  0.08178838  1  0  -0.32982  -0.269244  0  3.469724  0
N  N103  1  0.37866829  0.20849442  0.91821162  1  0  -0.329845  -0.269234  0  3.469812  0
N  N104  1  0.73663380  0.42058128  0.73564574  1  0  -0.499367  -0.305463  0  3.530994  0
N  N105  1  0.76336698  0.92058124  0.26435496  1  0  -0.499366  -0.305479  0  3.531036  0
N  N106  1  0.26336610  0.57941912  0.26435370  1  0  -0.499369  -0.305451  0  3.530976  0
N  N107  1  0.23663394  0.07942008  0.73564544  1  0  -0.49937  -0.305455  0  3.530977  0
Cl  Cl108  1  0.07724581  0.34955765  0.71304228  1  0  -0.320667  -0.518539  0  1.240498  0
Cl  Cl109  1  0.42275490  0.84955835  0.28695741  1  0  -0.320678  -0.518546  0  1.240478  0
Cl  Cl110  1  0.92275512  0.65044276  0.28695813  1  0  -0.320672  -0.518535  0  1.240486  0
Cl  Cl111  1  0.57724603  0.15044205  0.71304137  1  0  -0.320674  -0.518548  0  1.240496  0
Cl  Cl112  1  0.92478143  0.01344452  0.75506774  1  0  -0.313934  -0.494775  0  1.148061  0
Cl  Cl113  1  0.57521784  0.51344470  0.24493125  1  0  -0.31394  -0.494771  0  1.148043  0
Cl  Cl114  1  0.07521847  0.98655589  0.24493170  1  0  -0.313927  -0.494753  0  1.148051  0
Cl  Cl115  1  0.42478104  0.48655479  0.75506804  1  0  -0.313932  -0.494761  0  1.148083  0
