# generated using pymatgen
data_NiH16(C2N)6
_symmetry_space_group_name_H-M   'P 1'
_cell_length_a   8.73004735
_cell_length_b   8.75956190
_cell_length_c   10.97433707
_cell_angle_alpha   106.65225436
_cell_angle_beta   110.21942786
_cell_angle_gamma   100.62026566
_symmetry_Int_Tables_number   1
_chemical_formula_structural   NiH16(C2N)6
_chemical_formula_sum   'Ni2 H32 C24 N12'
_cell_volume   716.02925120
_cell_formula_units_Z   2
loop_
 _symmetry_equiv_pos_site_id
 _symmetry_equiv_pos_as_xyz
  1  'x, y, z'
loop_
 _atom_site_type_symbol
 _atom_site_label
 _atom_site_symmetry_multiplicity
 _atom_site_fract_x
 _atom_site_fract_y
 _atom_site_fract_z
 _atom_site_occupancy
 _atom_site_hle17_bader_spin_density
 _atom_site_hle17_ddec_charge
 _atom_site_hle17_ddec_spin_density
 _atom_site_hle17_ddec_sum_bond_order
 _atom_site_hle17_magmom
 _atom_site_hse06_10hf_bader_spin_density
 _atom_site_hse06_10hf_ddec_charge
 _atom_site_hse06_10hf_ddec_spin_density
 _atom_site_hse06_10hf_ddec_sum_bond_order
 _atom_site_hse06_10hf_magmom
 _atom_site_hse06_bader_spin_density
 _atom_site_hse06_ddec_charge
 _atom_site_hse06_ddec_spin_density
 _atom_site_hse06_ddec_sum_bond_order
 _atom_site_hse06_magmom
 _atom_site_pbe_bader_spin_density
 _atom_site_pbe_cm5_charge
 _atom_site_pbe_ddec_charge
 _atom_site_pbe_ddec_spin_density
 _atom_site_pbe_ddec_sum_bond_order
 _atom_site_pbe_magmom
Ni  Ni0  1  0.00000118  0.00000751  0.99999830  1  0  0.141281  0  3.416841  0  0  0.165751  0  3.862942  0  0  0.17663  0  3.813714  0  0  0.386336  0.168078  0  3.890868  0
Ni  Ni1  1  0.99999943  0.00000056  0.50000100  1  0  0.52939  0  2.485652  0  0  0.477062  0  2.943022  0  0  0.539295  0  2.879811  0  0  0.666566  0.445554  0  2.979898  0
H  H2  1  0.29180647  0.04240795  0.79992905  1  0  0.110843  0  0.964563  0  0  0.11924  0  1.025498  0  0  0.120106  0  1.026331  0  0  0.121344  0.118519  0  1.025132  0
H  H3  1  0.70818422  0.95758620  0.20007125  1  0  0.110905  0  0.964476  0  0  0.119304  0  1.025408  0  0  0.120171  0  1.02624  0  0  0.121366  0.118581  0  1.025041  0
H  H4  1  0.54702579  0.89571651  0.79051549  1  0  0.126652  0  0.972782  0  0  0.134763  0  1.034416  0  0  0.136165  0  1.035034  0  0  0.123924  0.133626  0  1.03421  0
H  H5  1  0.45297442  0.10429143  0.20949506  1  0  0.126609  0  0.972859  0  0  0.134753  0  1.034449  0  0  0.136147  0  1.035076  0  0  0.123906  0.133615  0  1.034244  0
H  H6  1  0.21451787  0.82570455  0.37825968  1  0  0.103844  0  0.955103  0  0  0.11073  0  1.020814  0  0  0.112607  0  1.018151  0  0  0.140017  0.109101  0  1.023118  0
H  H7  1  0.78548020  0.17428956  0.62174528  1  0  0.103818  0  0.955081  0  0  0.110798  0  1.020707  0  0  0.112677  0  1.018045  0  0  0.14002  0.109185  0  1.022988  0
H  H8  1  0.52035001  0.64370431  0.56368469  1  0  0.068786  0  0.917184  0  0  0.089639  0  0.973487  0  0  0.089188  0  0.974893  0  0  0.110502  0.089805  0  0.972645  0
H  H9  1  0.47965636  0.35630360  0.43633021  1  0  0.068751  0  0.917121  0  0  0.089606  0  0.973446  0  0  0.089153  0  0.974854  0  0  0.110511  0.089778  0  0.972608  0
H  H10  1  0.63938808  0.82062961  0.55203988  1  0  0.086337  0  0.971065  0  0  0.099175  0  1.036108  0  0  0.099357  0  1.036981  0  0  0.108418  0.09884  0  1.035763  0
H  H11  1  0.36061527  0.17937704  0.44796664  1  0  0.086277  0  0.971019  0  0  0.099155  0  1.036048  0  0  0.099339  0  1.036917  0  0  0.1084  0.098823  0  1.035705  0
H  H12  1  0.50029611  0.57586692  0.32142470  1  0  0.113506  0  0.970552  0  0  0.130322  0  1.039711  0  0  0.131682  0  1.040258  0  0  0.09121  0.129274  0  1.039409  0
H  H13  1  0.49971428  0.42413844  0.67858975  1  0  0.113581  0  0.970578  0  0  0.130367  0  1.039729  0  0  0.131727  0  1.040277  0  0  0.091241  0.129327  0  1.03942  0
H  H14  1  0.41902125  0.74298558  0.30482471  1  0  0.098426  0  0.953944  0  0  0.119566  0  1.015637  0  0  0.120082  0  1.017232  0  0  0.087859  0.119149  0  1.014529  0
H  H15  1  0.58098377  0.25701477  0.69518444  1  0  0.098467  0  0.953949  0  0  0.119588  0  1.015641  0  0  0.120105  0  1.017235  0  0  0.087858  0.119171  0  1.014536  0
H  H16  1  0.29370356  0.56515510  0.31539114  1  0  0.10197  0  0.941277  0  0  0.123636  0  0.999352  0  0  0.124542  0  0.999912  0  0  0.089945  0.122876  0  0.999082  0
H  H17  1  0.70630024  0.43484149  0.68461773  1  0  0.102063  0  0.941296  0  0  0.123677  0  0.999402  0  0  0.124587  0  0.999958  0  0  0.089959  0.122916  0  0.999133  0
H  H18  1  0.09277865  0.32722764  0.44721965  1  0  0.115126  0  0.952545  0  0  0.123717  0  1.011571  0  0  0.125408  0  1.011318  0  0  0.122033  0.122395  0  1.012007  0
H  H19  1  0.90721807  0.67276269  0.55277953  1  0  0.115119  0  0.952638  0  0  0.123706  0  1.011673  0  0  0.125393  0  1.011428  0  0  0.122049  0.122385  0  1.012109  0
H  H20  1  0.24376031  0.63690620  0.67450416  1  0  0.11038  0  0.987964  0  0  0.117303  0  1.05427  0  0  0.119147  0  1.054891  0  0  0.118577  0.115993  0  1.053917  0
H  H21  1  0.75623428  0.36308916  0.32549015  1  0  0.110407  0  0.988007  0  0  0.117369  0  1.054272  0  0  0.119213  0  1.054893  0  0  0.118586  0.116056  0  1.05392  0
H  H22  1  0.17253728  0.24643037  0.82307696  1  0  0.104672  0  0.976668  0  0  0.110339  0  1.0456  0  0  0.111115  0  1.044952  0  0  0.136521  0.109649  0  1.046247  0
H  H23  1  0.82746472  0.75356873  0.17692381  1  0  0.104735  0  0.976574  0  0  0.11039  0  1.045516  0  0  0.111164  0  1.044872  0  0  0.136531  0.109699  0  1.046162  0
H  H24  1  0.42601687  0.68297699  0.95201136  1  0  0.081945  0  0.949852  0  0  0.093906  0  1.015698  0  0  0.095333  0  1.01449  0  0  0.105324  0.092787  0  1.016597  0
H  H25  1  0.57398303  0.31702337  0.04798550  1  0  0.081915  0  0.949895  0  0  0.093892  0  1.015743  0  0  0.095326  0  1.01453  0  0  0.10533  0.092773  0  1.016643  0
H  H26  1  0.33272490  0.52674533  0.00175342  1  0  0.08471  0  0.929843  0  0  0.100454  0  0.989422  0  0  0.101397  0  0.989282  0  0  0.112196  0.099669  0  0.989601  0
H  H27  1  0.66726904  0.47325885  0.99824732  1  0  0.084712  0  0.929767  0  0  0.100412  0  0.989435  0  0  0.101362  0  0.989286  0  0  0.112154  0.099625  0  0.989616  0
H  H28  1  0.23815643  0.78114188  0.06814009  1  0  0.100265  0  0.962502  0  0  0.119655  0  1.029497  0  0  0.120356  0  1.030174  0  0  0.088778  0.119028  0  1.029186  0
H  H29  1  0.76183314  0.21885727  0.93184650  1  0  0.10027  0  0.962451  0  0  0.119636  0  1.029453  0  0  0.120331  0  1.030135  0  0  0.088782  0.119009  0  1.029142  0
H  H30  1  0.05831504  0.60487053  0.94032423  1  0  0.101842  0  0.946548  0  0  0.123525  0  1.005556  0  0  0.12462  0  1.006031  0  0  0.088771  0.122671  0  1.005318  0
H  H31  1  0.94167321  0.39511730  0.05965757  1  0  0.101885  0  0.946526  0  0  0.123549  0  1.005537  0  0  0.124655  0  1.005998  0  0  0.088764  0.122694  0  1.005301  0
H  H32  1  0.15003467  0.76238451  0.89085701  1  0  0.099385  0  0.963394  0  0  0.115278  0  1.035035  0  0  0.116903  0  1.033913  0  0  0.086147  0.113884  0  1.036157  0
H  H33  1  0.84995193  0.23760962  0.10912307  1  0  0.0994  0  0.963356  0  0  0.115254  0  1.035033  0  0  0.116878  0  1.033913  0  0  0.086134  0.113859  0  1.036155  0
C  C34  1  0.19528722  0.17149032  0.04964897  1  0  0.012503  0  3.55957  0  0  -0.009146  0  3.903232  0  0  -0.003995  0  3.905177  0  0  -0.011937  -0.015251  0  3.901674  0
C  C35  1  0.80471712  0.82852384  0.95034770  1  0  0.012567  0  3.559259  0  0  -0.009049  0  3.902859  0  0  -0.003895  0  3.904803  0  0  -0.011836  -0.015156  0  3.901301  0
C  C36  1  0.05939515  0.02450638  0.18328770  1  0  0.014551  0  3.559699  0  0  -0.009227  0  3.905486  0  0  -0.001552  0  3.905462  0  0  -0.012049  -0.017226  0  3.906513  0
C  C37  1  0.94060514  0.97549901  0.81670861  1  0  0.01454  0  3.559227  0  0  -0.009276  0  3.905062  0  0  -0.0016  0  3.905033  0  0  -0.012113  -0.017277  0  3.906096  0
C  C38  1  0.31444769  0.97790890  0.71072144  1  0  -0.01591  0  3.714077  0  0  -0.046171  0  3.979079  0  0  -0.042788  0  3.999737  0  0  0.001268  -0.048444  0  3.965724  0
C  C39  1  0.68554907  0.02209275  0.28927946  1  0  -0.015977  0  3.713966  0  0  -0.046248  0  3.978984  0  0  -0.042865  0  3.999641  0  0  0.001251  -0.048519  0  3.965626  0
C  C40  1  0.44176345  0.90637261  0.70806150  1  0  -0.076139  0  3.675451  0  0  -0.1153  0  3.930514  0  0  -0.114592  0  3.950218  0  0  0.000907  -0.115722  0  3.917374  0
C  C41  1  0.55823866  0.09363404  0.29194379  1  0  -0.076112  0  3.675531  0  0  -0.115305  0  3.930553  0  0  -0.114587  0  3.950259  0  0  0.000887  -0.115729  0  3.917413  0
C  C42  1  0.26888992  0.86390527  0.49099596  1  0  0.152774  0  3.62448  0  0  0.091721  0  3.891244  0  0  0.108023  0  3.90277  0  0  0.143555  0.081125  0  3.883754  0
C  C43  1  0.73111015  0.13609511  0.50900825  1  0  0.152742  0  3.624538  0  0  0.091581  0  3.891315  0  0  0.107882  0  3.902846  0  0  0.14355  0.08098  0  3.883805  0
C  C44  1  0.50858249  0.73626811  0.51404063  1  0  0.039136  0  3.628015  0  0  -0.020049  0  3.888818  0  0  -0.015708  0  3.901295  0  0  -0.057178  -0.022778  0  3.880206  0
C  C45  1  0.49142181  0.26373729  0.48597223  1  0  0.039242  0  3.627818  0  0  -0.020008  0  3.888677  0  0  -0.015667  0  3.901154  0  0  -0.05723  -0.022754  0  3.88009  0
C  C46  1  0.42435145  0.65101913  0.35522674  1  0  -0.311456  0  3.711443  0  0  -0.387768  0  3.959518  0  0  -0.390392  0  3.969616  0  0  -0.244228  -0.385665  0  3.952518  0
C  C47  1  0.57565721  0.34898497  0.64478240  1  0  -0.311624  0  3.711568  0  0  -0.387833  0  3.959676  0  0  -0.390461  0  3.969771  0  0  -0.244202  -0.385731  0  3.952678  0
C  C48  1  0.13119274  0.35699493  0.55840999  1  0  -0.015367  0  3.725703  0  0  -0.049421  0  3.996355  0  0  -0.045724  0  4.015601  0  0  -0.000786  -0.051891  0  3.983863  0
C  C49  1  0.86880931  0.64299662  0.44159270  1  0  -0.015264  0  3.725528  0  0  -0.049359  0  3.996198  0  0  -0.045654  0  4.015441  0  0  -0.000781  -0.05183  0  3.983707  0
C  C50  1  0.20572657  0.50948187  0.66938616  1  0  -0.0689  0  3.681646  0  0  -0.107087  0  3.93776  0  0  -0.106177  0  3.956984  0  0  0.000637  -0.10762  0  3.924744  0
C  C51  1  0.79427363  0.49050464  0.33060668  1  0  -0.069082  0  3.681618  0  0  -0.107318  0  3.937752  0  0  -0.106414  0  3.956979  0  0  0.000552  -0.107847  0  3.92473  0
C  C52  1  0.17197503  0.30664831  0.74945105  1  0  0.141073  0  3.611087  0  0  0.082847  0  3.873845  0  0  0.098052  0  3.887373  0  0  0.144316  0.072975  0  3.864848  0
C  C53  1  0.82803306  0.69334698  0.25055135  1  0  0.140953  0  3.61131  0  0  0.082711  0  3.874019  0  0  0.09792  0  3.887551  0  0  0.144264  0.072841  0  3.865018  0
C  C54  1  0.30376427  0.59772905  0.93341417  1  0  0.032217  0  3.626803  0  0  -0.022157  0  3.881924  0  0  -0.018193  0  3.893829  0  0  -0.056793  -0.024514  0  3.873551  0
C  C55  1  0.69623147  0.40227007  0.06657768  1  0  0.032239  0  3.626739  0  0  -0.022176  0  3.881923  0  0  -0.018222  0  3.893824  0  0  -0.056812  -0.024533  0  3.873553  0
C  C56  1  0.18005936  0.69113951  0.95893031  1  0  -0.309072  0  3.714342  0  0  -0.387288  0  3.964452  0  0  -0.389439  0  3.973569  0  0  -0.244132  -0.385618  0  3.958365  0
C  C57  1  0.81993178  0.30885711  0.04105428  1  0  -0.309119  0  3.714179  0  0  -0.387229  0  3.964315  0  0  -0.389386  0  3.973428  0  0  -0.244097  -0.385557  0  3.958229  0
N  N58  1  0.31945969  0.27913484  0.07745899  1  0  -0.450434  0  2.780267  0  0  -0.41126  0  3.035869  0  0  -0.422777  0  3.048305  0  0  -0.369491  -0.402262  0  3.027294  0
N  N59  1  0.68053445  0.72087058  0.92253297  1  0  -0.450505  0  2.77997  0  0  -0.41135  0  3.03558  0  0  -0.422867  0  3.048014  0  0  -0.369554  -0.402351  0  3.027008  0
N  N60  1  0.09383464  0.03761606  0.30009539  1  0  -0.44068  0  2.900799  0  0  -0.402187  0  3.179768  0  0  -0.414827  0  3.188781  0  0  -0.357241  -0.394089  0  3.174625  0
N  N61  1  0.90616178  0.96236292  0.69989106  1  0  -0.440641  0  2.900412  0  0  -0.402126  0  3.179378  0  0  -0.414765  0  3.18839  0  0  -0.357169  -0.39403  0  3.174241  0
N  N62  1  0.20774080  0.95044750  0.57439780  1  0  -0.270902  0  3.392388  0  0  -0.222833  0  3.698827  0  0  -0.250855  0  3.716581  0  0  -0.357956  -0.206131  0  3.687359  0
N  N63  1  0.79225561  0.04955290  0.42560545  1  0  -0.270876  0  3.392325  0  0  -0.222793  0  3.698779  0  0  -0.250815  0  3.716534  0  0  -0.357949  -0.206093  0  3.687312  0
N  N64  1  0.41015776  0.83433768  0.56836373  1  0  -0.058773  0  3.54975  0  0  0.036864  0  3.768451  0  0  0.022317  0  3.79383  0  0  -0.23909  0.046454  0  3.751083  0
N  N65  1  0.58984763  0.16567147  0.43164390  1  0  -0.058736  0  3.549738  0  0  0.036934  0  3.768443  0  0  0.022386  0  3.793821  0  0  -0.239039  0.046525  0  3.751079  0
N  N66  1  0.11128825  0.23173713  0.61007683  1  0  -0.271424  0  3.414097  0  0  -0.222819  0  3.720447  0  0  -0.250876  0  3.738501  0  0  -0.360569  -0.205978  0  3.708659  0
N  N67  1  0.88871536  0.76825567  0.38992382  1  0  -0.271484  0  3.414024  0  0  -0.222756  0  3.720221  0  0  -0.250825  0  3.738289  0  0  -0.360527  -0.205915  0  3.708433  0
N  N68  1  0.23125168  0.47512089  0.78879286  1  0  -0.047213  0  3.558369  0  0  0.04862  0  3.771976  0  0  0.033526  0  3.798547  0  0  -0.237279  0.058546  0  3.753798  0
N  N69  1  0.76875259  0.52487817  0.21120121  1  0  -0.047121  0  3.558368  0  0  0.048744  0  3.771979  0  0  0.03365  0  3.798552  0  0  -0.237206  0.05867  0  3.7538  0
