# generated using pymatgen
data_ZnH12C9N4O3
_symmetry_space_group_name_H-M   'P 1'
_cell_length_a   8.94811049
_cell_length_b   10.87674668
_cell_length_c   14.58500000
_cell_angle_alpha   96.58474243
_cell_angle_beta   90.00000000
_cell_angle_gamma   90.00000000
_symmetry_Int_Tables_number   1
_chemical_formula_structural   ZnH12C9N4O3
_chemical_formula_sum   'Zn4 H48 C36 N16 O12'
_cell_volume   1410.14054584
_cell_formula_units_Z   4
loop_
 _symmetry_equiv_pos_site_id
 _symmetry_equiv_pos_as_xyz
  1  'x, y, z'
loop_
 _atom_site_type_symbol
 _atom_site_label
 _atom_site_symmetry_multiplicity
 _atom_site_fract_x
 _atom_site_fract_y
 _atom_site_fract_z
 _atom_site_occupancy
 _atom_site_hle17_bader_spin_density
 _atom_site_hle17_ddec_charge
 _atom_site_hle17_ddec_spin_density
 _atom_site_hle17_ddec_sum_bond_order
 _atom_site_hle17_magmom
 _atom_site_hse06_10hf_bader_spin_density
 _atom_site_hse06_10hf_ddec_charge
 _atom_site_hse06_10hf_ddec_spin_density
 _atom_site_hse06_10hf_ddec_sum_bond_order
 _atom_site_hse06_10hf_magmom
 _atom_site_hse06_bader_spin_density
 _atom_site_hse06_ddec_charge
 _atom_site_hse06_ddec_spin_density
 _atom_site_hse06_ddec_sum_bond_order
 _atom_site_hse06_magmom
 _atom_site_pbe_bader_charge
 _atom_site_pbe_bader_spin_density
 _atom_site_pbe_cm5_charge
 _atom_site_pbe_ddec_charge
 _atom_site_pbe_ddec_spin_density
 _atom_site_pbe_ddec_sum_bond_order
 _atom_site_pbe_magmom
Zn  Zn0  1  0.25649214  0.06228785  0.28160846  1  0  0.955317  0  1.923383  0  0  0.761397  0  2.402018  0  0  0.802434  0  2.354764  0  1.207326  0  0.704751  0.732842  0  2.434387  0
Zn  Zn1  1  0.75649155  0.93771248  0.71839191  1  0  0.955298  0  1.923381  0  0  0.761376  0  2.402016  0  0  0.802412  0  2.354762  0  1.207342  0  0.704748  0.732818  0  2.434385  0
Zn  Zn2  1  0.74764499  0.36600012  0.18370717  1  0  0.941756  0  1.951919  0  0  0.748917  0  2.434278  0  0  0.789363  0  2.387143  0  1.198465  0  0.704869  0.72089  0  2.466513  0
Zn  Zn3  1  0.24764446  0.63399928  0.81629243  1  0  0.941718  0  1.951947  0  0  0.748873  0  2.434303  0  0  0.789315  0  2.387182  0  1.198466  0  0.704867  0.720845  0  2.466538  0
H  H4  1  0.12417482  0.41948834  0.76586446  1  0  0.301098  0  0.952807  0  0  0.289226  0  1.010949  0  0  0.295697  0  1.006737  0  0.490657  0  0.285925  0.284682  0  1.013919  0
H  H5  1  0.62417423  0.58051107  0.23413515  1  0  0.301069  0  0.952855  0  0  0.289193  0  1.011002  0  0  0.295665  0  1.006789  0  0.490654  0  0.285896  0.28465  0  1.013972  0
H  H6  1  0.13958031  0.49758739  0.67604137  1  0  0.28367  0  0.879052  0  0  0.287585  0  0.913648  0  0  0.291414  0  0.912617  0  0.397191  0  0.305849  0.284834  0  0.914563  0
H  H7  1  0.63958084  0.50241294  0.32395832  1  0  0.283645  0  0.879112  0  0  0.287561  0  0.9137  0  0  0.291389  0  0.912671  0  0.397197  0  0.305829  0.28481  0  0.914615  0
H  H8  1  0.57407204  0.16812130  0.27542967  1  0  0.080949  0  0.982403  0  0  0.086166  0  1.054864  0  0  0.088926  0  1.051306  0  0.168305  0  0.120365  0.084109  0  1.057415  0
H  H9  1  0.07407150  0.83187903  0.72457070  1  0  0.080938  0  0.982409  0  0  0.086152  0  1.054873  0  0  0.088912  0  1.051313  0  0.168304  0  0.120355  0.084095  0  1.057423  0
H  H10  1  0.23779769  0.16409353  0.07309757  1  0  0.096299  0  0.957147  0  0  0.110254  0  1.012454  0  0  0.112849  0  1.011203  0  0.078787  0  0.111063  0.10831  0  1.013464  0
H  H11  1  0.73779710  0.83590772  0.92690288  1  0  0.096329  0  0.95711  0  0  0.110275  0  1.012429  0  0  0.112869  0  1.011178  0  0.078775  0  0.11107  0.10833  0  1.013439  0
H  H12  1  0.57135079  0.51158925  0.06682464  1  0  0.077244  0  0.949984  0  0  0.082348  0  1.018638  0  0  0.085446  0  1.015501  0  0.118193  0  0.114711  0.080019  0  1.021183  0
H  H13  1  0.07135138  0.48841108  0.93317505  1  0  0.077233  0  0.949984  0  0  0.08234  0  1.018639  0  0  0.085438  0  1.0155  0  0.118191  0  0.11471  0.080012  0  1.021184  0
H  H14  1  0.35856509  0.32026295  0.96632312  1  0  0.092172  0  0.915493  0  0  0.111362  0  0.968633  0  0  0.112713  0  0.96818  0  0.035565  0  0.101442  0.110338  0  0.96908  0
H  H15  1  0.85856450  0.67973738  0.03367725  1  0  0.092175  0  0.915509  0  0  0.111383  0  0.968627  0  0  0.112736  0  0.968172  0  0.035554  0  0.101445  0.110358  0  0.969077  0
H  H16  1  0.55760040  0.32187979  0.96733763  1  0  0.092168  0  0.932899  0  0  0.105053  0  0.999141  0  0  0.106934  0  0.997839  0  0.046102  0  0.096768  0.103662  0  1.000109  0
H  H17  1  0.05759987  0.67812054  0.03266274  1  0  0.092165  0  0.93288  0  0  0.105047  0  0.999129  0  0  0.106928  0  0.997826  0  0.046122  0  0.096765  0.103657  0  1.000096  0
H  H18  1  0.26062039  0.58954115  0.29641097  1  0  0.119903  0  0.893005  0  0  0.14252  0  0.936554  0  0  0.144766  0  0.93607  0  0.088392  0  0.114931  0.140925  0  0.937145  0
H  H19  1  0.76062092  0.41046011  0.70358948  1  0  0.119931  0  0.893004  0  0  0.142552  0  0.93655  0  0  0.1448  0  0.936067  0  0.088419  0  0.11493  0.140958  0  0.937141  0
H  H20  1  0.14078503  0.63185120  0.21054686  1  0  0.10164  0  0.949611  0  0  0.112718  0  1.018686  0  0  0.115267  0  1.017591  0  0.051599  0  0.100249  0.11092  0  1.019526  0
H  H21  1  0.64078444  0.36814913  0.78945283  1  0  0.101679  0  0.949685  0  0  0.11277  0  1.018733  0  0  0.11532  0  1.017639  0  0.05159  0  0.100275  0.110973  0  1.019572  0
H  H22  1  0.12500404  0.86481750  0.19696514  1  0  0.288823  0  0.879346  0  0  0.291203  0  0.915838  0  0  0.295239  0  0.914475  0  0.407583  0  0.307968  0.288339  0  0.916927  0
H  H23  1  0.62500346  0.13518283  0.80303523  1  0  0.288803  0  0.87934  0  0  0.29118  0  0.915833  0  0  0.295217  0  0.914469  0  0.407576  0  0.30797  0.288316  0  0.916922  0
H  H24  1  0.30326179  0.86642046  0.16934288  1  0  0.302391  0  0.87153  0  0  0.299979  0  0.9131  0  0  0.304876  0  0.910403  0  0.432433  0  0.309933  0.29653  0  0.915026  0
H  H25  1  0.80326232  0.13357987  0.83065680  1  0  0.302377  0  0.871536  0  0  0.299963  0  0.913106  0  0  0.30486  0  0.910409  0  0.432434  0  0.309931  0.296513  0  0.915032  0
H  H26  1  0.18614656  0.79915713  0.34638332  1  0  0.072418  0  0.966131  0  0  0.087884  0  1.030284  0  0  0.088683  0  1.030491  0  0.095849  0  0.104816  0.087244  0  1.030225  0
H  H27  1  0.68614598  0.20084319  0.65361637  1  0  0.072398  0  0.966119  0  0  0.087864  0  1.030275  0  0  0.088664  0  1.030483  0  0.095845  0  0.104798  0.087225  0  1.030214  0
H  H28  1  0.37722824  0.80292576  0.31286535  1  0  0.071357  0  0.93053  0  0  0.086009  0  0.995303  0  0  0.086842  0  0.99503  0  0.064656  0  0.107972  0.085301  0  0.995656  0
H  H29  1  0.87722877  0.19707549  0.68713510  1  0  0.071342  0  0.930529  0  0  0.085994  0  0.995306  0  0  0.086828  0  0.995031  0  0.064653  0  0.107966  0.085288  0  0.99566  0
H  H30  1  0.24901570  0.72322097  0.61458130  1  0  0.103216  0  0.95321  0  0  0.116411  0  1.009937  0  0  0.119136  0  1.008626  0  0.091656  0  0.113888  0.114434  0  1.01098  0
H  H31  1  0.74901623  0.27677751  0.38541823  1  0  0.103145  0  0.953259  0  0  0.116337  0  1.009998  0  0  0.119064  0  1.008687  0  0.0915  0  0.113853  0.114361  0  1.011041  0
H  H32  1  0.24135822  0.48950872  0.09995249  1  0  0.306583  0  0.933279  0  0  0.287257  0  0.999938  0  0  0.295991  0  0.993468  0  0.532639  0  0.299316  0.281067  0  1.004592  0
H  H33  1  0.74135875  0.51049161  0.90004719  1  0  0.306553  0  0.933332  0  0  0.287223  0  0.999997  0  0  0.295957  0  0.993527  0  0.532637  0  0.2993  0.281034  0  1.00465  0
H  H34  1  0.61480466  0.03525406  0.54779850  1  0  0.069038  0  0.939092  0  0  0.075228  0  1.009198  0  0  0.077491  0  1.006883  0  0.087179  0  0.110183  0.073497  0  1.011077  0
H  H35  1  0.11480413  0.96474534  0.45220179  1  0  0.069009  0  0.939103  0  0  0.075191  0  1.009236  0  0  0.077454  0  1.00692  0  0.087198  0  0.110163  0.073461  0  1.011113  0
H  H36  1  0.29356701  0.04608424  0.60062251  1  0  0.301759  0  0.919855  0  0  0.282686  0  0.988685  0  0  0.29098  0  0.982363  0  0.511532  0  0.298351  0.276797  0  0.993176  0
H  H37  1  0.79356530  0.95391609  0.39937649  1  0  0.301736  0  0.919885  0  0  0.282676  0  0.988703  0  0  0.29097  0  0.982381  0  0.511485  0  0.298344  0.276787  0  0.993194  0
H  H38  1  0.38122462  0.36508110  0.75948254  1  0  0.053792  0  0.916368  0  0  0.076334  0  0.9703  0  0  0.076095  0  0.9713  0  0.04045  0  0.104269  0.076385  0  0.969786  0
H  H39  1  0.88122403  0.63491738  0.24051698  1  0  0.053755  0  0.916393  0  0  0.076322  0  0.970318  0  0  0.076083  0  0.971318  0  0.040498  0  0.104269  0.076372  0  0.969806  0
H  H40  1  0.40579405  0.44915609  0.66371180  1  0  0.067722  0  0.917695  0  0  0.083139  0  0.978484  0  0  0.084326  0  0.977882  0  0.089745  0  0.107039  0.082116  0  0.979214  0
H  H41  1  0.90579458  0.55084423  0.33628857  1  0  0.067744  0  0.917662  0  0  0.083179  0  0.978453  0  0  0.084365  0  0.977854  0  0.089739  0  0.107056  0.082156  0  0.979183  0
H  H42  1  0.56505337  0.77270918  0.82938451  1  0  0.069837  0  0.983447  0  0  0.076639  0  1.054876  0  0  0.079353  0  1.050989  0  0.118632  0  0.117547  0.074637  0  1.057651  0
H  H43  1  0.06505284  0.22729022  0.17061509  1  0  0.069874  0  0.983453  0  0  0.076682  0  1.054873  0  0  0.079397  0  1.050986  0  0.118559  0  0.11756  0.07468  0  1.057647  0
H  H44  1  0.19915825  0.22279878  0.66860056  1  0  0.115239  0  0.932016  0  0  0.128929  0  0.99134  0  0  0.13196  0  0.989396  0  0.088363  0  0.104402  0.126745  0  0.992848  0
H  H45  1  0.69915878  0.77720063  0.33139768  1  0  0.115222  0  0.932  0  0  0.128919  0  0.991328  0  0  0.131949  0  0.989387  0  0.088644  0  0.104383  0.126729  0  0.992833  0
H  H46  1  0.21110155  0.31540223  0.57624410  1  0  0.100822  0  0.92025  0  0  0.119802  0  0.971947  0  0  0.122249  0  0.970536  0  0.054856  0  0.104785  0.118066  0  0.973111  0
H  H47  1  0.71110096  0.68459810  0.42375490  1  0  0.100815  0  0.920247  0  0  0.119795  0  0.971953  0  0  0.122244  0  0.970541  0  0.054871  0  0.104792  0.118056  0  0.973114  0
H  H48  1  0.37617774  0.83923211  0.49410455  1  0  0.093864  0  0.922122  0  0  0.112793  0  0.97914  0  0  0.11368  0  0.979288  0  0.058102  0  0.104105  0.112088  0  0.97912  0
H  H49  1  0.87617716  0.16076822  0.50589514  1  0  0.093842  0  0.922142  0  0  0.112779  0  0.979142  0  0  0.113665  0  0.979289  0  0.058082  0  0.104097  0.112074  0  0.979123  0
H  H50  1  0.57289525  0.82328671  0.49521952  1  0  0.090272  0  0.95001  0  0  0.105311  0  1.014493  0  0  0.106069  0  1.014592  0  0.058665  0  0.099366  0.104698  0  1.014526  0
H  H51  1  0.07289472  0.17671269  0.50478077  1  0  0.090294  0  0.949975  0  0  0.105335  0  1.014458  0  0  0.106084  0  1.014566  0  0.058665  0  0.099371  0.104722  0  1.014493  0
C  C52  1  0.51200865  0.19178535  0.21583937  1  0  0.19774  0  3.765046  0  0  0.146652  0  4.024146  0  0  0.160608  0  4.037862  0  0.953963  0  0.112394  0.137591  0  4.014473  0
C  C53  1  0.01200812  0.80821591  0.78416040  1  0  0.197768  0  3.765061  0  0  0.14668  0  4.024163  0  0  0.160637  0  4.037877  0  0.953954  0  0.112408  0.137619  0  4.014488  0
C  C54  1  0.34012320  0.18924208  0.11055982  1  0  -0.088396  0  3.774004  0  0  -0.126659  0  4.034661  0  0  -0.127416  0  4.057048  0  0.32418  0  -0.026233  -0.126118  0  4.01945  0
C  C55  1  0.84012373  0.81075825  0.88944055  1  0  -0.088412  0  3.773981  0  0  -0.126669  0  4.03464  0  0  -0.127427  0  4.057026  0  0.324195  0  -0.026235  -0.126129  0  4.019429  0
C  C56  1  0.45134221  0.26890800  0.08908053  1  0  0.170597  0  3.793368  0  0  0.169353  0  4.054376  0  0  0.172496  0  4.080225  0  0.390986  0  0.061434  0.167196  0  4.036839  0
C  C57  1  0.95134275  0.73109233  0.91091915  1  0  0.170532  0  3.793407  0  0  0.169284  0  4.054425  0  0  0.172427  0  4.080274  0  0.390997  0  0.06141  0.167128  0  4.036886  0
C  C58  1  0.44156808  0.54828153  0.94992406  1  0  0.641664  0  3.867416  0  0  0.591538  0  4.171178  0  0  0.624088  0  4.164124  0  1.578648  0  0.210807  0.569464  0  4.1752  0
C  C59  1  0.94156862  0.45171972  0.05007571  1  0  0.641595  0  3.86743  0  0  0.591488  0  4.171178  0  0  0.624035  0  4.164127  0  1.57864  0  0.210785  0.569415  0  4.175199  0
C  C60  1  0.46113981  0.48553741  0.03815590  1  0  0.041706  0  3.628466  0  0  0.023051  0  3.866896  0  0  0.023022  0  3.878671  0  0.330424  0  0.008835  0.022908  0  3.859241  0
C  C61  1  0.96114035  0.51446292  0.96184447  1  0  0.041732  0  3.628436  0  0  0.023061  0  3.866877  0  0  0.023034  0  3.878651  0  0.330421  0  0.008829  0.022919  0  3.859226  0
C  C62  1  0.45736807  0.34390386  0.00984568  1  0  -0.195202  0  3.71277  0  0  -0.244579  0  3.968614  0  0  -0.245342  0  3.979671  0  0.015645  0  -0.151391  -0.243809  0  3.960959  0
C  C63  1  0.95736748  0.65609647  0.99015469  1  0  -0.195181  0  3.712749  0  0  -0.244564  0  3.968583  0  0  -0.245331  0  3.979646  0  0.015632  0  -0.151377  -0.243795  0  3.960928  0
C  C64  1  0.25085967  0.65209739  0.24229813  1  0  -0.281253  0  3.678384  0  0  -0.322008  0  3.938933  0  0  -0.327548  0  3.946881  0  -0.088392  0  -0.159794  -0.31821  0  3.933446  0
C  C65  1  0.75085908  0.34790294  0.75770224  1  0  -0.281361  0  3.678448  0  0  -0.322128  0  3.939038  0  0  -0.327676  0  3.946999  0  -0.088427  0  -0.159829  -0.318331  0  3.933556  0
C  C66  1  0.26297731  0.78484339  0.28762960  1  0  0.083992  0  3.640038  0  0  0.022554  0  3.912346  0  0  0.027219  0  3.923578  0  0.289281  0  -0.07888  0.01953  0  3.904622  0
C  C67  1  0.76297672  0.21515602  0.71237069  1  0  0.084016  0  3.640023  0  0  0.022576  0  3.912349  0  0  0.027238  0  3.923587  0  0.28931  0  -0.078872  0.019553  0  3.904618  0
C  C68  1  0.46272562  0.82771985  0.62551909  1  0  0.179377  0  3.774027  0  0  0.180015  0  4.030237  0  0  0.183409  0  4.055065  0  0.368563  0  0.065355  0.17755  0  4.013616  0
C  C69  1  0.96272504  0.17227956  0.37448051  1  0  0.179367  0  3.773982  0  0  0.180015  0  4.030174  0  0  0.18341  0  4.054999  0  0.368577  0  0.065371  0.177551  0  4.013554  0
C  C70  1  0.34857191  0.75506550  0.65281020  1  0  -0.085998  0  3.755271  0  0  -0.1242  0  4.013418  0  0  -0.12517  0  4.035919  0  0.370093  0  -0.021557  -0.12355  0  3.998286  0
C  C71  1  0.84857133  0.24493391  0.34719009  1  0  -0.085838  0  3.755235  0  0  -0.124039  0  4.013377  0  0  -0.125008  0  4.035874  0  0.370344  0  -0.021513  -0.123389  0  3.998245  0
C  C72  1  0.48281478  0.02638224  0.42399216  1  0  0.642125  0  3.867391  0  0  0.59208  0  4.174123  0  0  0.62425  0  4.16783  0  1.600297  0  0.210962  0.570177  0  4.177706  0
C  C73  1  0.98281196  0.97361809  0.57600821  1  0  0.641887  0  3.867577  0  0  0.591873  0  4.174291  0  0  0.624042  0  4.167998  0  1.60028  0  0.210853  0.569969  0  4.177873  0
C  C74  1  0.50021063  0.00901157  0.52708466  1  0  0.050772  0  3.637055  0  0  0.028183  0  3.883286  0  0  0.028654  0  3.894763  0  0.32062  0  0.007293  0.027792  0  3.8755  0
C  C75  1  0.00021010  0.99098876  0.47291571  1  0  0.050905  0  3.637014  0  0  0.028268  0  3.883326  0  0  0.028742  0  3.894799  0  0.320622  0  0.007333  0.027878  0  3.875541  0
C  C76  1  0.37520323  0.61933662  0.17254624  1  0  0.571461  0  3.809107  0  0  0.526053  0  4.110221  0  0  0.554936  0  4.109936  0  1.380675  0  0.23071  0.506587  0  4.109716  0
C  C77  1  0.87520153  0.38066371  0.82745413  1  0  0.571482  0  3.809073  0  0  0.526018  0  4.11028  0  0  0.554903  0  4.109997  0  1.380636  0  0.230667  0.506553  0  4.109775  0
C  C78  1  0.32518038  0.39414636  0.69843298  1  0  0.11019  0  3.637201  0  0  0.051384  0  3.907345  0  0  0.056182  0  3.918901  0  0.267888  0  -0.06929  0.048226  0  3.899402  0
C  C79  1  0.82518092  0.60585304  0.30156663  1  0  0.110254  0  3.637131  0  0  0.051383  0  3.907389  0  0  0.05618  0  3.918948  0  0.26784  0  -0.069311  0.048219  0  3.899442  0
C  C80  1  0.50891638  0.78253705  0.76478924  1  0  0.194111  0  3.784867  0  0  0.141643  0  4.046268  0  0  0.155593  0  4.060169  0  0.968174  0  0.11022  0.132601  0  4.036487  0
C  C81  1  0.00891697  0.21746143  0.23521029  1  0  0.194054  0  3.784915  0  0  0.141586  0  4.046306  0  0  0.155535  0  4.060209  0  0.96776  0  0.11022  0.132546  0  4.036526  0
C  C82  1  0.27457082  0.28193346  0.63340937  1  0  -0.288962  0  3.679297  0  0  -0.329324  0  3.935871  0  0  -0.33453  0  3.942648  0  -0.077389  0  -0.162704  -0.325753  0  3.931186  0
C  C83  1  0.77457023  0.71806687  0.36658962  1  0  -0.288921  0  3.679244  0  0  -0.329294  0  3.935863  0  0  -0.334504  0  3.942645  0  -0.077688  0  -0.162682  -0.325699  0  3.931149  0
C  C84  1  0.47812217  0.86982259  0.53245727  1  0  -0.195913  0  3.717377  0  0  -0.244329  0  3.967439  0  0  -0.245104  0  3.979407  0  0.004166  0  -0.150468  -0.243621  0  3.959258  0
C  C85  1  0.97812158  0.13017681  0.46754439  1  0  -0.195916  0  3.71736  0  0  -0.244329  0  3.967431  0  0  -0.245097  0  3.979398  0  0.004162  0  -0.150451  -0.243619  0  3.959246  0
C  C86  1  0.40512352  0.20879137  0.58871156  1  0  0.583218  0  3.814561  0  0  0.542995  0  4.110515  0  0  0.57156  0  4.109857  0  1.377509  0  0.228139  0.523761  0  4.110246  0
C  C87  1  0.90512293  0.79120896  0.41128812  1  0  0.583186  0  3.814703  0  0  0.542979  0  4.110659  0  0  0.571544  0  4.110002  0  1.377771  0  0.22812  0.523741  0  4.110387  0
N  N88  1  0.19716341  0.47322829  0.73194934  1  0  -0.629412  0  3.112151  0  0  -0.572751  0  3.376721  0  0  -0.59107  0  3.372898  0  -1.16122  0  -0.625145  -0.559992  0  3.37906  0
N  N89  1  0.69716283  0.52677111  0.26805027  1  0  -0.629398  0  3.112162  0  0  -0.57272  0  3.376751  0  0  -0.591039  0  3.372929  0  -1.161226  0  -0.62509  -0.559959  0  3.379088  0
N  N90  1  0.37886323  0.72661107  0.74068746  1  0  -0.408119  0  3.399022  0  0  -0.319916  0  3.701334  0  0  -0.34033  0  3.714817  0  -1.29469  0  -0.387408  -0.306097  0  3.691802  0
N  N91  1  0.87886264  0.27338834  0.25931284  1  0  -0.408228  0  3.399044  0  0  -0.320032  0  3.701372  0  0  -0.340444  0  3.714853  0  -1.29476  0  -0.38744  -0.306213  0  3.691842  0
N  N92  1  0.37896939  0.14090796  0.19088513  1  0  -0.420737  0  3.371133  0  0  -0.33302  0  3.670131  0  0  -0.353594  0  3.683236  0  -1.272137  0  -0.388268  -0.318992  0  3.660771  0
N  N93  1  0.87896992  0.85909237  0.80911456  1  0  -0.420777  0  3.371196  0  0  -0.33305  0  3.67018  0  0  -0.353624  0  3.683284  0  -1.27215  0  -0.388278  -0.319022  0  3.66082  0
N  N94  1  0.56003443  0.26995474  0.15691567  1  0  -0.459626  0  3.281724  0  0  -0.374563  0  3.572453  0  0  -0.395959  0  3.584948  0  -1.274331  0  -0.381078  -0.360068  0  3.563642  0
N  N95  1  0.06003502  0.73004559  0.84308401  1  0  -0.459559  0  3.281696  0  0  -0.374505  0  3.572426  0  0  -0.395902  0  3.58492  0  -1.274323  0  -0.38106  -0.36001  0  3.563614  0
N  N96  1  0.23019273  0.87866665  0.22377101  1  0  -0.610756  0  3.095729  0  0  -0.55521  0  3.357423  0  0  -0.572269  0  3.352494  0  -1.117578  0  -0.611038  -0.543361  0  3.360651  0
N  N97  1  0.73019215  0.12133276  0.77622928  1  0  -0.610676  0  3.09572  0  0  -0.555116  0  3.357401  0  0  -0.572173  0  3.352474  0  -1.117588  0  -0.611004  -0.543265  0  3.360631  0
N  N98  1  0.56444766  0.84553198  0.69777596  1  0  -0.461578  0  3.265657  0  0  -0.375337  0  3.556529  0  0  -0.396798  0  3.56836  0  -1.252479  0  -0.375289  -0.360674  0  3.548125  0
N  N99  1  0.06444601  0.15446743  0.30222501  1  0  -0.461537  0  3.265723  0  0  -0.375291  0  3.556579  0  0  -0.396754  0  3.568412  0  -1.251994  0  -0.375277  -0.36063  0  3.548176  0
N  N100  1  0.34907034  0.52469059  0.10720111  1  0  -0.437756  0  3.328418  0  0  -0.385647  0  3.574598  0  0  -0.408042  0  3.585189  0  -1.253539  0  -0.415396  -0.370383  0  3.567145  0
N  N101  1  0.84906976  0.47530973  0.89279926  1  0  -0.437693  0  3.328386  0  0  -0.385554  0  3.574575  0  0  -0.407947  0  3.585167  0  -1.253514  0  -0.41535  -0.370291  0  3.567124  0
N  N102  1  0.39483196  0.08402039  0.58485469  1  0  -0.458453  0  3.294303  0  0  -0.40891  0  3.544737  0  0  -0.430538  0  3.553216  0  -1.238741  0  -0.424546  -0.394022  0  3.538551  0
N  N103  1  0.89483026  0.91597994  0.41514499  1  0  -0.458494  0  3.294286  0  0  -0.408958  0  3.544736  0  0  -0.430585  0  3.553214  0  -1.238713  0  -0.424594  -0.394075  0  3.538557  0
O  O104  1  0.30733192  0.58500806  0.93592184  1  0  -0.634416  0  2.091737  0  0  -0.556596  0  2.369246  0  0  -0.58398  0  2.353882  0  -1.183736  0  -0.332737  -0.53754  0  2.379132  0
O  O105  1  0.80733245  0.41499227  0.06407853  1  0  -0.634372  0  2.091711  0  0  -0.556571  0  2.369246  0  0  -0.583951  0  2.353881  0  -1.183719  0  -0.332721  -0.537514  0  2.379134  0
O  O106  1  0.54932603  0.55478871  0.89592654  1  0  -0.614435  0  1.953534  0  0  -0.570184  0  2.182962  0  0  -0.593821  0  2.174887  0  -1.204728  0  -0.317346  -0.553675  0  2.187977  0
O  O107  1  0.04932661  0.44521070  0.10407376  1  0  -0.614405  0  1.953534  0  0  -0.570163  0  2.182962  0  0  -0.593803  0  2.174896  0  -1.204734  0  -0.317324  -0.553655  0  2.187979  0
O  O108  1  0.34889489  0.05659234  0.40195376  1  0  -0.651492  0  2.096267  0  0  -0.569709  0  2.377676  0  0  -0.598014  0  2.362878  0  -1.194377  0  -0.3388  -0.549974  0  2.387177  0
O  O109  1  0.84889207  0.94340521  0.59804500  1  0  -0.65134  0  2.09636  0  0  -0.569565  0  2.377742  0  0  -0.59787  0  2.362946  0  -1.194402  0  -0.338737  -0.549829  0  2.387241  0
O  O110  1  0.49736757  0.67703678  0.17989059  1  0  -0.595693  0  1.899852  0  0  -0.551253  0  2.111323  0  0  -0.571095  0  2.102828  0  -1.187243  0  -0.329746  -0.53757  0  2.116806  0
O  O111  1  0.99736699  0.32296355  0.82010978  1  0  -0.595724  0  1.899843  0  0  -0.551269  0  2.111353  0  0  -0.571111  0  2.102858  0  -1.187205  0  -0.329737  -0.537587  0  2.116836  0
O  O112  1  0.59031569  0.00295419  0.37011276  1  0  -0.613134  0  1.922887  0  0  -0.56957  0  2.146853  0  0  -0.592108  0  2.138112  0  -1.190159  0  -0.321138  -0.553866  0  2.152442  0
O  O113  1  0.09031292  0.99704614  0.62988761  1  0  -0.613089  0  1.922952  0  0  -0.569507  0  2.146876  0  0  -0.592045  0  2.138137  0  -1.190116  0  -0.321105  -0.553803  0  2.152463  0
O  O114  1  0.51413312  0.26191216  0.55727898  1  0  -0.584959  0  1.853666  0  0  -0.548874  0  2.061218  0  0  -0.568049  0  2.053532  0  -1.163322  0  -0.33277  -0.535572  0  2.066265  0
O  O115  1  0.01413148  0.73808724  0.44271994  1  0  -0.58496  0  1.853778  0  0  -0.548866  0  2.061311  0  0  -0.568039  0  2.053623  0  -1.163558  0  -0.332746  -0.535564  0  2.066358  0
