# generated using pymatgen
data_CoH28C30(SN5)2
_symmetry_space_group_name_H-M   'P 1'
_cell_length_a   10.03238688
_cell_length_b   10.27511749
_cell_length_c   10.03237598
_cell_angle_alpha   67.70426309
_cell_angle_beta   78.73304699
_cell_angle_gamma   113.96783879
_symmetry_Int_Tables_number   1
_chemical_formula_structural   CoH28C30(SN5)2
_chemical_formula_sum   'Co1 H28 C30 S2 N10'
_cell_volume   796.14928909
_cell_formula_units_Z   1
loop_
 _symmetry_equiv_pos_site_id
 _symmetry_equiv_pos_as_xyz
  1  'x, y, z'
loop_
 _atom_site_type_symbol
 _atom_site_label
 _atom_site_symmetry_multiplicity
 _atom_site_fract_x
 _atom_site_fract_y
 _atom_site_fract_z
 _atom_site_occupancy
 _atom_site_pbe_cm5_charge
 _atom_site_pbe_ddec_charge
 _atom_site_pbe_ddec_spin_density
 _atom_site_pbe_ddec_sum_bond_order
 _atom_site_pbe_magmom
Co  Co0  1  0.99657826  0.99999916  0.00342390  1  0.74022  0.570414  -1.005771  3.36696  -0.896
H  H1  1  0.83346168  0.35195556  0.66237464  1  0.10352  0.085898  2.7e-05  0.97643  0.0
H  H2  1  0.98567234  0.64804757  0.51849553  1  0.103481  0.085895  2.7e-05  0.976455  0.0
H  H3  1  0.33633310  0.49660817  0.00942295  1  0.102201  0.083579  7.7e-05  0.983868  0.0
H  H4  1  0.49396883  0.50338688  0.16027979  1  0.102201  0.083566  7.7e-05  0.983929  0.0
H  H5  1  0.88264396  0.42067697  0.79576122  1  0.092228  0.061059  5e-05  1.025278  0.0
H  H6  1  0.78356837  0.57932646  0.53802950  1  0.092206  0.06107  5e-05  1.025308  0.0
H  H7  1  0.21005641  0.32439551  0.20815658  1  0.091864  0.061269  1e-05  1.015822  0.0
H  H8  1  0.46745055  0.67560494  0.11434090  1  0.091879  0.061296  1e-05  1.015816  0.0
H  H9  1  0.67685466  0.30501876  0.02528330  1  0.105019  0.066801  5.2e-05  0.990754  0.0
H  H10  1  0.66969271  0.69497644  0.62817184  1  0.105025  0.066816  5.3e-05  0.990794  0.0
H  H11  1  0.97742284  0.29832525  0.32598334  1  0.103435  0.064352  -0.000239  0.992739  0.0
H  H12  1  0.37569180  0.70167600  0.32090225  1  0.10343  0.064359  -0.000239  0.992748  0.0
H  H13  1  0.34640783  0.19886977  0.88269566  1  0.124435  0.099317  0.000157  1.02917  0.0
H  H14  1  0.91842962  0.80112790  0.85246275  1  0.124435  0.09932  0.000157  1.029173  0.0
H  H15  1  0.10947384  0.75036303  0.08502545  1  0.118691  0.091295  -0.000843  1.020884  -0.001
H  H16  1  0.16460738  0.24963641  0.64089018  1  0.118693  0.091244  -0.000843  1.020876  -0.001
H  H17  1  0.96909623  0.91532172  0.32611431  1  0.120013  0.095619  0.000135  1.018172  0.0
H  H18  1  0.75856724  0.08468027  0.94622528  1  0.120013  0.095614  0.000135  1.018153  0.0
H  H19  1  0.66426355  0.68412545  0.26595199  1  0.113887  0.085814  -0.000758  1.017466  -0.001
H  H20  1  0.04992222  0.31587582  0.01986272  1  0.113919  0.085814  -0.000758  1.01748  -0.001
H  H21  1  0.15753124  0.97190103  0.45682714  1  0.103791  0.112276  -1e-05  1.032428  0.0
H  H22  1  0.57127023  0.02810159  0.81437366  1  0.103801  0.112283  -1e-05  1.03243  0.0
H  H23  1  0.53573675  0.37588896  0.43923692  1  0.102771  0.109522  -0.000438  1.033029  -0.001
H  H24  1  0.18487224  0.62411362  0.84015310  1  0.102752  0.109539  -0.000437  1.032964  -0.001
H  H25  1  0.45298980  0.14379004  0.28987926  1  0.095071  0.099442  0.000333  1.053599  0.0
H  H26  1  0.56632125  0.85620443  0.69080628  1  0.095114  0.099498  0.000333  1.053518  0.0
H  H27  1  0.70795893  0.25568079  0.43135364  1  0.093153  0.097393  0.000245  1.058438  0.0
H  H28  1  0.31296165  0.74431815  0.54772454  1  0.093144  0.097402  0.000245  1.058477  0.0
C  C29  1  0.23667747  0.00000252  0.76332197  1  0.143574  0.2455  0.008524  4.322656  0.006
C  C30  1  0.75766998  0.99999558  0.24232888  1  0.12968  0.223827  0.009836  4.379397  0.006
C  C31  1  0.80964714  0.41208037  0.72643225  1  -0.065651  -0.052588  2e-05  3.97757  0.0
C  C32  1  0.86149189  0.58792574  0.60243237  1  -0.065612  -0.052663  2e-05  3.977674  0.0
C  C33  1  0.27613662  0.46094708  0.13262369  1  -0.065755  -0.053636  3.3e-05  3.982  0.0
C  C34  1  0.40643338  0.53905312  0.18481220  1  -0.065804  -0.053692  3.3e-05  3.982025  0.0
C  C35  1  0.59281617  0.27653089  0.96897809  1  0.073434  0.073384  0.000258  3.971402  0.0
C  C36  1  0.75448747  0.72346923  0.68371883  1  0.073437  0.073368  0.000258  3.97156  0.0
C  C37  1  0.02970234  0.43165747  0.24275322  1  0.075293  0.077527  -0.000285  3.969862  0.0
C  C38  1  0.32558708  0.56834359  0.40195700  1  0.075252  0.077456  -0.000285  3.969795  0.0
C  C39  1  0.42142680  0.18248750  0.07289850  1  -0.00812  0.022993  -0.000819  4.012249  -0.002
C  C40  1  0.74460926  0.81751017  0.76106369  1  -0.008102  0.022971  -0.000819  4.012335  -0.002
C  C41  1  0.92288638  0.49461923  0.25649503  1  -0.008876  0.019848  -0.002154  4.009178  -0.003
C  C42  1  0.24887994  0.50537955  0.57173458  1  -0.008927  0.019777  -0.002154  4.009275  -0.003
C  C43  1  0.30748889  0.14924484  0.00938300  1  0.059001  0.057103  0.007636  3.842439  0.005
C  C44  1  0.84136946  0.85075397  0.84175836  1  0.058967  0.05702  0.007635  3.8425  0.005
C  C45  1  0.98286862  0.66461112  0.16482724  1  0.054858  0.060567  0.003419  3.87968  0.002
C  C46  1  0.17055525  0.33538812  0.68174344  1  0.054817  0.06063  0.003418  3.879669  0.002
C  C47  1  0.09806647  0.99170302  0.25782812  1  0.044146  0.071869  0.006382  3.901421  0.004
C  C48  1  0.75047074  0.00829937  0.89363569  1  0.044123  0.071843  0.006381  3.901453  0.004
C  C49  1  0.73373010  0.62557741  0.26609221  1  0.043812  0.078684  0.00258  3.940864  0.001
C  C50  1  0.10832823  0.37442450  0.89184805  1  0.043782  0.078692  0.00258  3.94079  0.001
C  C51  1  0.20350942  0.02392795  0.32908098  1  -0.08373  -0.121083  -0.000959  3.988911  -0.002
C  C52  1  0.64699126  0.97607724  0.82041768  1  -0.083751  -0.121121  -0.000959  3.988928  -0.002
C  C53  1  0.66355188  0.45541094  0.36265963  1  -0.085433  -0.124112  -0.002244  3.981655  -0.003
C  C54  1  0.18192644  0.54459105  0.79186036  1  -0.085443  -0.124181  -0.002244  3.981699  -0.003
C  C55  1  0.36797744  0.12040052  0.23601790  1  -0.067271  -0.078586  0.008487  3.936926  0.005
C  C56  1  0.64357878  0.87960062  0.75242425  1  -0.067273  -0.078575  0.008486  3.936792  0.005
C  C57  1  0.75969024  0.38872476  0.35838419  1  -0.067323  -0.078159  0.004627  3.936446  0.003
C  C58  1  0.25288840  0.61127529  0.62903514  1  -0.067268  -0.07809  0.004626  3.936534  0.003
S  S59  1  0.36373396  0.00000002  0.63626610  1  -0.166068  -0.31775  0.004482  2.353673  0.001
S  S60  1  0.63075823  0.99999677  0.36924352  1  -0.179234  -0.359888  0.005638  2.437931  0.002
N  N61  1  0.14341350  0.99999728  0.85658646  1  -0.420052  -0.466944  0.000707  3.590635  -0.001
N  N62  1  0.85089573  0.00000150  0.14910681  1  -0.425892  -0.467311  0.000269  3.614689  -0.002
N  N63  1  0.63968514  0.31787279  0.82327702  1  -0.323798  -0.249444  -0.000765  3.307905  -0.001
N  N64  1  0.85885046  0.68213260  0.67818788  1  -0.323762  -0.249359  -0.000765  3.307939  -0.001
N  N65  1  0.17415438  0.52719296  0.13761234  1  -0.325524  -0.253428  -0.000406  3.317807  -0.001
N  N66  1  0.33519398  0.47280726  0.35304347  1  -0.325459  -0.253335  -0.000406  3.317635  -0.001
N  N67  1  0.14884559  0.05413090  0.09936468  1  -0.321866  -0.160859  0.003555  3.635269  0.002
N  N68  1  0.84650159  0.94586661  0.90528934  1  -0.321878  -0.160791  0.003555  3.635109  0.002
N  N69  1  0.89086905  0.72868772  0.16893832  1  -0.308379  -0.217625  -0.040008  3.547171  -0.064
N  N70  1  0.10236984  0.27131335  0.83781896  1  -0.308322  -0.217606  -0.040007  3.546986  -0.064
