# generated using pymatgen
data_CuH5C6BrN
_symmetry_space_group_name_H-M   'P 1'
_cell_length_a   3.80976617
_cell_length_b   10.80124746
_cell_length_c   14.89296842
_cell_angle_alpha   89.99971728
_cell_angle_beta   90.00192700
_cell_angle_gamma   93.50010900
_symmetry_Int_Tables_number   1
_chemical_formula_structural   CuH5C6BrN
_chemical_formula_sum   'Cu4 H20 C24 Br4 N4'
_cell_volume   611.70587528
_cell_formula_units_Z   4
loop_
 _symmetry_equiv_pos_site_id
 _symmetry_equiv_pos_as_xyz
  1  'x, y, z'
loop_
 _atom_site_type_symbol
 _atom_site_label
 _atom_site_symmetry_multiplicity
 _atom_site_fract_x
 _atom_site_fract_y
 _atom_site_fract_z
 _atom_site_occupancy
 _atom_site_hle17_bader_spin_density
 _atom_site_hle17_ddec_charge
 _atom_site_hle17_ddec_spin_density
 _atom_site_hle17_ddec_sum_bond_order
 _atom_site_hle17_magmom
 _atom_site_hse06_10hf_bader_spin_density
 _atom_site_hse06_10hf_ddec_charge
 _atom_site_hse06_10hf_ddec_spin_density
 _atom_site_hse06_10hf_ddec_sum_bond_order
 _atom_site_hse06_10hf_magmom
 _atom_site_hse06_bader_spin_density
 _atom_site_hse06_ddec_charge
 _atom_site_hse06_ddec_spin_density
 _atom_site_hse06_ddec_sum_bond_order
 _atom_site_hse06_magmom
 _atom_site_pbe_bader_spin_density
 _atom_site_pbe_cm5_charge
 _atom_site_pbe_ddec_charge
 _atom_site_pbe_ddec_spin_density
 _atom_site_pbe_ddec_sum_bond_order
 _atom_site_pbe_magmom
Cu  Cu0  1  0.74141829  0.45388530  0.44399189  1  0  0.31012  0  2.069378  0  0  0.215889  0  2.574316  0  0  0.227911  0  2.514082  0  0  0.291129  0.210663  0  2.613623  0
Cu  Cu1  1  0.25861620  0.04610924  0.94398481  1  0  0.310101  0  2.06926  0  0  0.215839  0  2.574201  0  0  0.227848  0  2.51397  0  0  0.291108  0.210606  0  2.613445  0
Cu  Cu2  1  0.25859689  0.54610463  0.55600888  1  0  0.310126  0  2.06929  0  0  0.215829  0  2.574319  0  0  0.22779  0  2.514091  0  0  0.291117  0.210593  0  2.61358  0
Cu  Cu3  1  0.74143606  0.95389442  0.05601126  1  0  0.310149  0  2.06924  0  0  0.215901  0  2.574152  0  0  0.227879  0  2.513922  0  0  0.291133  0.210676  0  2.613438  0
H  H4  1  0.97615411  0.64539608  0.31529965  1  0  0.073744  0  0.953474  0  0  0.082518  0  1.019821  0  0  0.08534  0  1.017268  0  0  0.102774  0.080371  0  1.021737  0
H  H5  1  0.02385483  0.85459478  0.81528803  1  0  0.073749  0  0.953362  0  0  0.082517  0  1.019718  0  0  0.08535  0  1.017169  0  0  0.102769  0.080367  0  1.021629  0
H  H6  1  0.02384495  0.35459207  0.68470716  1  0  0.073859  0  0.953358  0  0  0.08261  0  1.019726  0  0  0.085448  0  1.017177  0  0  0.102792  0.080463  0  1.021639  0
H  H7  1  0.97614742  0.14540822  0.18470871  1  0  0.073837  0  0.953421  0  0  0.082615  0  1.019763  0  0  0.085453  0  1.017213  0  0  0.102784  0.080468  0  1.021679  0
H  H8  1  0.93022313  0.68249709  0.14980786  1  0  0.102789  0  0.976465  0  0  0.110001  0  1.046545  0  0  0.113869  0  1.044607  0  0  0.094554  0.106953  0  1.048433  0
H  H9  1  0.06978290  0.81750456  0.64979812  1  0  0.10285  0  0.976496  0  0  0.110047  0  1.046573  0  0  0.113918  0  1.044636  0  0  0.094567  0.106993  0  1.048459  0
H  H10  1  0.06976903  0.31750781  0.85019828  1  0  0.102788  0  0.976493  0  0  0.109984  0  1.046573  0  0  0.113851  0  1.044634  0  0  0.094562  0.106938  0  1.04846  0
H  H11  1  0.93021693  0.18249938  0.35019996  1  0  0.102848  0  0.976376  0  0  0.110016  0  1.046502  0  0  0.113885  0  1.044562  0  0  0.094578  0.106968  0  1.048394  0
H  H12  1  0.33358986  0.32990748  0.13053230  1  0  0.106153  0  0.965257  0  0  0.114932  0  1.030071  0  0  0.11848  0  1.028862  0  0  0.09797  0.112307  0  1.031017  0
H  H13  1  0.66638076  0.17009683  0.63053043  1  0  0.106201  0  0.965169  0  0  0.115006  0  1.02992  0  0  0.118554  0  1.028709  0  0  0.097996  0.112381  0  1.030867  0
H  H14  1  0.66639082  0.67009284  0.86946578  1  0  0.106086  0  0.96535  0  0  0.114903  0  1.030112  0  0  0.11845  0  1.028903  0  0  0.097933  0.112276  0  1.031056  0
H  H15  1  0.33362311  0.82990152  0.36946430  1  0  0.106114  0  0.965325  0  0  0.114935  0  1.030082  0  0  0.118481  0  1.028873  0  0  0.097953  0.112311  0  1.031025  0
H  H16  1  0.40108659  0.30903994  0.29531510  1  0  0.069709  0  0.960319  0  0  0.078643  0  1.028314  0  0  0.081038  0  1.026479  0  0  0.104695  0.076681  0  1.030167  0
H  H17  1  0.59889348  0.19096004  0.79531121  1  0  0.069728  0  0.960219  0  0  0.078643  0  1.028266  0  0  0.081043  0  1.02642  0  0  0.104704  0.076663  0  1.03016  0
H  H18  1  0.59891104  0.69095380  0.70468231  1  0  0.069809  0  0.960153  0  0  0.078705  0  1.028205  0  0  0.081114  0  1.026351  0  0  0.104699  0.076727  0  1.030082  0
H  H19  1  0.40112168  0.80904196  0.20468217  1  0  0.069775  0  0.960181  0  0  0.078664  0  1.028241  0  0  0.081077  0  1.026379  0  0  0.104709  0.076684  0  1.030138  0
H  H20  1  0.74246978  0.61970199  0.00708944  1  0  0.092098  0  0.984791  0  0  0.102684  0  1.049268  0  0  0.105521  0  1.048434  0  0  0.086587  0.100462  0  1.050157  0
H  H21  1  0.25752675  0.88030299  0.50708049  1  0  0.092177  0  0.984813  0  0  0.10275  0  1.049282  0  0  0.105583  0  1.048447  0  0  0.086597  0.100525  0  1.050175  0
H  H22  1  0.25751308  0.38030853  0.99291737  1  0  0.092205  0  0.984821  0  0  0.102813  0  1.049233  0  0  0.105649  0  1.048391  0  0  0.086627  0.100588  0  1.050127  0
H  H23  1  0.74248015  0.11969720  0.49291491  1  0  0.09214  0  0.984839  0  0  0.102739  0  1.04927  0  0  0.105573  0  1.048434  0  0  0.086579  0.100518  0  1.050164  0
C  C24  1  0.83659130  0.57811376  0.27143885  1  0  0.117987  0  3.712785  0  0  0.089865  0  3.959273  0  0  0.097186  0  3.976511  0  0  0.03138  0.084761  0  3.948802  0
C  C25  1  0.16341029  0.92188101  0.77142622  1  0  0.117979  0  3.712944  0  0  0.089869  0  3.95937  0  0  0.097175  0  3.976625  0  0  0.031408  0.084758  0  3.94889  0
C  C26  1  0.16339806  0.42187817  0.72856930  1  0  0.117884  0  3.712732  0  0  0.089778  0  3.959157  0  0  0.097078  0  3.976418  0  0  0.031401  0.084669  0  3.94868  0
C  C27  1  0.83659962  0.07812102  0.22856783  1  0  0.117883  0  3.713092  0  0  0.089721  0  3.959562  0  0  0.097025  0  3.97682  0  0  0.031365  0.0846  0  3.949129  0
C  C28  1  0.80894226  0.59825674  0.17994652  1  0  -0.168845  0  3.711946  0  0  -0.184119  0  3.955754  0  0  -0.192526  0  3.976088  0  0  -0.088809  -0.178639  0  3.942711  0
C  C29  1  0.19105104  0.90174117  0.67993555  1  0  -0.169051  0  3.71214  0  0  -0.184272  0  3.955978  0  0  -0.192681  0  3.976317  0  0  -0.088899  -0.178785  0  3.942915  0
C  C30  1  0.19104084  0.40174265  0.82006163  1  0  -0.168923  0  3.711962  0  0  -0.184147  0  3.955806  0  0  -0.192552  0  3.976143  0  0  -0.0889  -0.178668  0  3.94276  0
C  C31  1  0.80894557  0.09826000  0.32006051  1  0  -0.168901  0  3.711965  0  0  -0.184105  0  3.955815  0  0  -0.192507  0  3.976154  0  0  -0.088838  -0.17862  0  3.942767  0
C  C32  1  0.62485794  0.51027333  0.12501389  1  0  0.136871  0  3.788655  0  0  0.152304  0  4.016402  0  0  0.159612  0  4.035737  0  0  0.003843  0.147563  0  4.003343  0
C  C33  1  0.37512662  0.98972852  0.62500828  1  0  0.137134  0  3.788583  0  0  0.152426  0  4.016469  0  0  0.159733  0  4.0358  0  0  0.003951  0.147676  0  4.003403  0
C  C34  1  0.37512071  0.48972979  0.87499023  1  0  0.136943  0  3.788679  0  0  0.152265  0  4.016565  0  0  0.159578  0  4.035892  0  0  0.003847  0.147521  0  4.003504  0
C  C35  1  0.62487281  0.01027356  0.37498711  1  0  0.136921  0  3.788833  0  0  0.152289  0  4.016664  0  0  0.159591  0  4.03599  0  0  0.003895  0.147552  0  4.003603  0
C  C36  1  0.47824639  0.40294009  0.16818414  1  0  -0.156101  0  3.695599  0  0  -0.172389  0  3.938833  0  0  -0.180077  0  3.959638  0  0  -0.085519  -0.167085  0  3.924545  0
C  C37  1  0.52172594  0.09706223  0.66817654  1  0  -0.156191  0  3.695565  0  0  -0.172416  0  3.938781  0  0  -0.180098  0  3.959582  0  0  -0.085556  -0.167107  0  3.924481  0
C  C38  1  0.52172883  0.59705934  0.83181999  1  0  -0.15601  0  3.695796  0  0  -0.172281  0  3.939005  0  0  -0.179969  0  3.959813  0  0  -0.085468  -0.166974  0  3.924703  0
C  C39  1  0.47827893  0.90294075  0.33181819  1  0  -0.156038  0  3.69581  0  0  -0.172336  0  3.939029  0  0  -0.180013  0  3.959834  0  0  -0.085577  -0.167028  0  3.924732  0
C  C40  1  0.51619099  0.39012533  0.26009012  1  0  0.114072  0  3.710929  0  0  0.085062  0  3.961552  0  0  0.091654  0  3.97904  0  0  0.030221  0.080016  0  3.951836  0
C  C41  1  0.48380462  0.10987005  0.76008482  1  0  0.114077  0  3.710747  0  0  0.085063  0  3.961305  0  0  0.09165  0  3.978808  0  0  0.030277  0.080009  0  3.951566  0
C  C42  1  0.48380362  0.60986657  0.73991266  1  0  0.113968  0  3.710801  0  0  0.084983  0  3.961379  0  0  0.091569  0  3.97887  0  0  0.030273  0.079939  0  3.951634  0
C  C43  1  0.51621054  0.89013195  0.23991058  1  0  0.113998  0  3.710839  0  0  0.085025  0  3.961421  0  0  0.0916  0  3.978928  0  0  0.030332  0.079978  0  3.951691  0
C  C44  1  0.59578055  0.53535510  0.02976944  1  0  -0.090602  0  3.696764  0  0  -0.111548  0  3.948168  0  0  -0.113111  0  3.965048  0  0  -0.087737  -0.111735  0  3.939137  0
C  C45  1  0.40419726  0.96464712  0.52976217  1  0  -0.090793  0  3.696689  0  0  -0.111694  0  3.948155  0  0  -0.113251  0  3.965026  0  0  -0.08777  -0.111866  0  3.939116  0
C  C46  1  0.40418861  0.46465271  0.97023804  1  0  -0.090852  0  3.696871  0  0  -0.111772  0  3.948301  0  0  -0.11333  0  3.965174  0  0  -0.087789  -0.111953  0  3.939268  0
C  C47  1  0.59580923  0.03535122  0.47023390  1  0  -0.090784  0  3.696667  0  0  -0.111721  0  3.948104  0  0  -0.113273  0  3.964971  0  0  -0.087784  -0.111916  0  3.939082  0
Br  Br48  1  0.79096856  0.67489542  0.50177469  1  0  -0.426175  0  1.575487  0  0  -0.355945  0  2.008374  0  0  -0.374545  0  1.965632  0  0  -0.211209  -0.341449  0  2.036944  0
Br  Br49  1  0.20902630  0.82510495  0.00177278  1  0  -0.426144  0  1.575442  0  0  -0.355921  0  2.008315  0  0  -0.374526  0  1.965577  0  0  -0.211198  -0.341423  0  2.036895  0
Br  Br50  1  0.20903451  0.32509921  0.49822876  1  0  -0.426172  0  1.57554  0  0  -0.355931  0  2.008384  0  0  -0.374553  0  1.96566  0  0  -0.211219  -0.341439  0  2.036978  0
Br  Br51  1  0.79098643  0.17489799  0.99822329  1  0  -0.426173  0  1.575453  0  0  -0.35596  0  2.008346  0  0  -0.374577  0  1.965616  0  0  -0.211229  -0.341462  0  2.03691  0
N  N52  1  0.69280194  0.47555019  0.31244499  1  0  -0.281807  0  3.375339  0  0  -0.207874  0  3.668315  0  0  -0.220295  0  3.676117  0  0  -0.369857  -0.200832  0  3.663489  0
N  N53  1  0.30719240  0.02444501  0.81243574  1  0  -0.281781  0  3.375282  0  0  -0.207827  0  3.668228  0  0  -0.22025  0  3.676042  0  0  -0.369943  -0.20077  0  3.663343  0
N  N54  1  0.30719207  0.52443892  0.68756115  1  0  -0.281748  0  3.375238  0  0  -0.207782  0  3.668159  0  0  -0.220202  0  3.675971  0  0  -0.369895  -0.200727  0  3.663281  0
N  N55  1  0.69282074  0.97555978  0.18756033  1  0  -0.281779  0  3.375456  0  0  -0.207793  0  3.668377  0  0  -0.220221  0  3.676203  0  0  -0.369913  -0.200742  0  3.663535  0
