# generated using pymatgen
data_Cu3H21(C5N2)4
_symmetry_space_group_name_H-M   'P 1'
_cell_length_a   11.42704192
_cell_length_b   11.32843664
_cell_length_c   13.11990000
_cell_angle_alpha   90.17823347
_cell_angle_beta   115.77709045
_cell_angle_gamma   110.33230255
_symmetry_Int_Tables_number   1
_chemical_formula_structural   Cu3H21(C5N2)4
_chemical_formula_sum   'Cu6 H42 C40 N16'
_cell_volume   1409.96658233
_cell_formula_units_Z   2
loop_
 _symmetry_equiv_pos_site_id
 _symmetry_equiv_pos_as_xyz
  1  'x, y, z'
loop_
 _atom_site_type_symbol
 _atom_site_label
 _atom_site_symmetry_multiplicity
 _atom_site_fract_x
 _atom_site_fract_y
 _atom_site_fract_z
 _atom_site_occupancy
 _atom_site_hle17_bader_spin_density
 _atom_site_hle17_ddec_charge
 _atom_site_hle17_ddec_spin_density
 _atom_site_hle17_ddec_sum_bond_order
 _atom_site_hle17_magmom
 _atom_site_hse06_10hf_bader_spin_density
 _atom_site_hse06_10hf_ddec_charge
 _atom_site_hse06_10hf_ddec_spin_density
 _atom_site_hse06_10hf_ddec_sum_bond_order
 _atom_site_hse06_10hf_magmom
 _atom_site_hse06_bader_spin_density
 _atom_site_hse06_ddec_charge
 _atom_site_hse06_ddec_spin_density
 _atom_site_hse06_ddec_sum_bond_order
 _atom_site_hse06_magmom
 _atom_site_pbe_bader_charge
 _atom_site_pbe_bader_spin_density
 _atom_site_pbe_cm5_charge
 _atom_site_pbe_ddec_charge
 _atom_site_pbe_ddec_spin_density
 _atom_site_pbe_ddec_sum_bond_order
 _atom_site_pbe_magmom
Cu  Cu0  1  0.17564645  0.12262999  0.40987124  1  0  0.394485  0  2.237387  0  0  0.296253  0  2.734152  0  0  0.293776  0  2.691944  0  0.652352  0  0.497179  0.300235  0  2.761112  0
Cu  Cu1  1  0.82434937  0.87736162  0.59012944  1  0  0.394441  0  2.237435  0  0  0.296241  0  2.734242  0  0  0.29374  0  2.69201  0  0.652395  0  0.497187  0.300196  0  2.76119  0
Cu  Cu2  1  0.86373007  0.95762350  0.99817086  1  0  0.372881  0  2.295498  0  0  0.277335  0  2.798289  0  0  0.278401  0  2.745317  0  0.650893  0  0.48155  0.278788  0  2.833669  0
Cu  Cu3  1  0.13626764  0.04237482  0.00182903  1  0  0.372903  0  2.29544  0  0  0.277371  0  2.798225  0  0  0.278424  0  2.745244  0  0.650891  0  0.481542  0.27883  0  2.833607  0
Cu  Cu4  1  0.64763749  0.18445534  0.70327355  1  0  0.405488  0  2.263698  0  0  0.315801  0  2.745573  0  0  0.310751  0  2.704001  0  0.655896  0  0.507683  0.322739  0  2.770803  0
Cu  Cu5  1  0.35236119  0.81554299  0.29672442  1  0  0.405456  0  2.263715  0  0  0.3158  0  2.745595  0  0  0.310763  0  2.704027  0  0.655883  0  0.507681  0.322729  0  2.770818  0
H  H6  1  0.43138568  0.66873820  0.59353020  1  0  0.12126  0  0.943859  0  0  0.142468  0  1.002001  0  0  0.143639  0  1.002819  0  0.044543  0  0.097989  0.141513  0  1.001622  0
H  H7  1  0.56860967  0.33125916  0.40646879  1  0  0.121229  0  0.943903  0  0  0.142451  0  1.002016  0  0  0.143621  0  1.002836  0  0.044669  0  0.097985  0.141503  0  1.001629  0
H  H8  1  0.40803755  0.50768592  0.61137720  1  0  0.117926  0  0.931801  0  0  0.140142  0  0.988799  0  0  0.14201  0  0.9881  0  0.049157  0  0.09743  0.1389  0  0.989075  0
H  H9  1  0.59195919  0.49231240  0.38862384  1  0  0.117988  0  0.931782  0  0  0.140182  0  0.988802  0  0  0.14205  0  0.988103  0  0.048925  0  0.097445  0.13894  0  0.989079  0
H  H10  1  0.51683942  0.59193384  0.54987879  1  0  0.120738  0  0.948  0  0  0.141464  0  1.009395  0  0  0.142593  0  1.009959  0  0.058641  0  0.096887  0.140644  0  1.008962  0
H  H11  1  0.48315676  0.40806544  0.45012205  1  0  0.120738  0  0.948039  0  0  0.141493  0  1.009385  0  0  0.142618  0  1.009953  0  0.058525  0  0.096897  0.140671  0  1.008955  0
H  H12  1  0.62534282  0.83900636  0.77427697  1  0  0.295018  0  0.880389  0  0  0.281828  0  0.934753  0  0  0.287128  0  0.932276  0  0.515489  0  0.335071  0.277958  0  0.936876  0
H  H13  1  0.37465448  0.16099101  0.22572429  1  0  0.295117  0  0.880271  0  0  0.281969  0  0.934598  0  0  0.28727  0  0.932117  0  0.515504  0  0.335112  0.278099  0  0.936723  0
H  H14  1  0.88064177  0.09255609  0.28516803  1  0  0.297056  0  0.867817  0  0  0.289174  0  0.911098  0  0  0.294537  0  0.908532  0  0.501376  0  0.341136  0.285364  0  0.913109  0
H  H15  1  0.11935895  0.90744702  0.71483378  1  0  0.29708  0  0.867733  0  0  0.289197  0  0.911023  0  0  0.294574  0  0.90844  0  0.501338  0  0.341157  0.285383  0  0.913039  0
H  H16  1  0.01930264  0.71880840  0.99799779  1  0  0.126071  0  0.939162  0  0  0.146188  0  0.999461  0  0  0.147383  0  0.99975  0  0.058122  0  0.096224  0.145317  0  0.999282  0
H  H17  1  0.98069312  0.28118992  0.00199755  1  0  0.126126  0  0.939067  0  0  0.146201  0  0.999419  0  0  0.147398  0  0.999704  0  0.058194  0  0.096206  0.14533  0  0.999243  0
H  H18  1  0.90706490  0.56920199  0.00828568  1  0  0.111959  0  0.939211  0  0  0.133802  0  0.995726  0  0  0.135031  0  0.995772  0  0.04384  0  0.092218  0.132936  0  0.995699  0
H  H19  1  0.09293735  0.43080016  0.99171137  1  0  0.111977  0  0.939172  0  0  0.133815  0  0.995685  0  0  0.135045  0  0.995729  0  0.043793  0  0.092235  0.13295  0  0.995659  0
H  H20  1  0.93592849  0.71627679  0.08400915  1  0  0.119595  0  0.940015  0  0  0.138716  0  1.003565  0  0  0.140524  0  1.002726  0  0.055996  0  0.095173  0.137373  0  1.004204  0
H  H21  1  0.06407556  0.28372728  0.91599087  1  0  0.119577  0  0.940087  0  0  0.138736  0  1.003567  0  0  0.140543  0  1.002727  0  0.056113  0  0.095186  0.137392  0  1.004207  0
H  H22  1  0.58595194  0.39767377  0.70480028  1  0  0.102153  0  0.927794  0  0  0.120192  0  0.985513  0  0  0.12146  0  0.984849  0  0.083809  0  0.104234  0.11924  0  0.986035  0
H  H23  1  0.41404618  0.60232551  0.29519825  1  0  0.102172  0  0.927782  0  0  0.120188  0  0.985543  0  0  0.121452  0  0.984884  0  0.083836  0  0.104219  0.119236  0  0.986065  0
H  H24  1  0.72339173  0.41408616  0.84136432  1  0  0.093749  0  0.919121  0  0  0.111032  0  0.97857  0  0  0.113545  0  0.975326  0  0.055167  0  0.104242  0.1089  0  0.98133  0
H  H25  1  0.27660583  0.58591408  0.15863400  1  0  0.093816  0  0.919014  0  0  0.11111  0  0.978466  0  0  0.113624  0  0.97522  0  0.05514  0  0.104273  0.108978  0  0.981228  0
H  H26  1  0.87102679  0.66339730  0.71234330  1  0  0.110636  0  0.970634  0  0  0.114368  0  1.043397  0  0  0.118629  0  1.041285  0  0.116507  0  0.101367  0.111476  0  1.044673  0
H  H27  1  0.12897572  0.33660772  0.28765843  1  0  0.110593  0  0.970607  0  0  0.114338  0  1.043354  0  0  0.118597  0  1.041246  0  0.116569  0  0.101344  0.111459  0  1.044619  0
H  H28  1  0.01880823  0.64206244  0.62270519  1  0  0.083654  0  0.982457  0  0  0.090422  0  1.049951  0  0  0.0928  0  1.048461  0  0.065824  0  0.10032  0.088643  0  1.051117  0
H  H29  1  0.98119695  0.35793971  0.37729983  1  0  0.083683  0  0.982415  0  0  0.090459  0  1.049893  0  0  0.092837  0  1.048404  0  0.065859  0  0.10032  0.088679  0  1.05106  0
H  H30  1  0.01278930  0.42434857  0.57557663  1  0  0.100668  0  0.972614  0  0  0.111187  0  1.033975  0  0  0.11365  0  1.034683  0  0.065091  0  0.100883  0.109548  0  1.033395  0
H  H31  1  0.98721741  0.57565262  0.42443202  1  0  0.100698  0  0.972619  0  0  0.111231  0  1.033948  0  0  0.113696  0  1.034655  0  0.064863  0  0.100898  0.109592  0  1.033369  0
H  H32  1  0.91189939  0.17000676  0.69480206  1  0  0.110377  0  0.919975  0  0  0.13038  0  0.976795  0  0  0.130635  0  0.977466  0  0.096446  0  0.108444  0.13018  0  0.976137  0
H  H33  1  0.08810440  0.82999443  0.30519862  1  0  0.110326  0  0.920028  0  0  0.130318  0  0.976849  0  0  0.130574  0  0.977519  0  0.096467  0  0.108427  0.130119  0  0.976191  0
H  H34  1  0.74206444  0.13096210  0.58314229  1  0  0.096557  0  0.944917  0  0  0.110256  0  1.015505  0  0  0.113676  0  1.010643  0  0.034636  0  0.098578  0.107823  0  1.018618  0
H  H35  1  0.25793572  0.86904197  0.41685473  1  0  0.096549  0  0.94485  0  0  0.110229  0  1.01547  0  0  0.113649  0  1.010606  0  0.034576  0  0.098568  0.107796  0  1.018584  0
H  H36  1  0.65511636  0.16758909  0.26121990  1  0  0.118438  0  0.925466  0  0  0.140476  0  0.979067  0  0  0.142497  0  0.978586  0  0.044162  0  0.097779  0.139055  0  0.97937  0
H  H37  1  0.34488160  0.83241210  0.73877704  1  0  0.118442  0  0.925419  0  0  0.140463  0  0.979046  0  0  0.142484  0  0.978566  0  0.04423  0  0.09777  0.139041  0  0.979351  0
H  H38  1  0.62675713  0.15046241  0.38458146  1  0  0.122356  0  0.940338  0  0  0.145622  0  0.995617  0  0  0.147028  0  0.995762  0  0.036431  0  0.099255  0.144413  0  0.99582  0
H  H39  1  0.37324415  0.84953974  0.61542056  1  0  0.122305  0  0.94042  0  0  0.145589  0  0.995672  0  0  0.146996  0  0.995813  0  0.036436  0  0.099253  0.144381  0  0.995875  0
H  H40  1  0.59951569  0.01419197  0.29886184  1  0  0.12697  0  0.960418  0  0  0.142471  0  1.027718  0  0  0.145067  0  1.026294  0  0.098157  0  0.094487  0.140497  0  1.028862  0
H  H41  1  0.40048713  0.98580923  0.70114152  1  0  0.126965  0  0.960396  0  0  0.142453  0  1.027715  0  0  0.145047  0  1.026292  0  0.098039  0  0.094494  0.140478  0  1.028861  0
H  H42  1  0.24586027  0.19232306  0.65320989  1  0  0.121715  0  0.952371  0  0  0.14028  0  1.015399  0  0  0.142326  0  1.014154  0  0.074226  0  0.094461  0.138878  0  1.016137  0
H  H43  1  0.75414061  0.80767814  0.34679045  1  0  0.121679  0  0.952438  0  0  0.140259  0  1.01545  0  0  0.142306  0  1.014205  0  0.074236  0  0.094457  0.138858  0  1.016185  0
H  H44  1  0.14118906  0.16037534  0.72685928  1  0  0.120952  0  0.951381  0  0  0.139755  0  1.0145  0  0  0.14107  0  1.014205  0  0.04241  0  0.093816  0.13881  0  1.014775  0
H  H45  1  0.85881181  0.83962586  0.27313801  1  0  0.120959  0  0.951353  0  0  0.139757  0  1.014475  0  0  0.141072  0  1.01418  0  0.042371  0  0.093806  0.138813  0  1.014749  0
H  H46  1  0.20800146  0.31634716  0.69945866  1  0  0.111885  0  0.92955  0  0  0.135017  0  0.983566  0  0  0.136369  0  0.98347  0  0.039399  0  0.093549  0.134062  0  0.98359  0
H  H47  1  0.79199860  0.68365212  0.30053984  1  0  0.11191  0  0.929481  0  0  0.135037  0  0.983511  0  0  0.136389  0  0.983414  0  0.039427  0  0.093562  0.134081  0  0.983535  0
C  C48  1  0.48480276  0.60172229  0.61615410  1  0  -0.350037  0  3.735408  0  0  -0.427142  0  3.972356  0  0  -0.430572  0  3.980924  0  -0.024499  0  -0.231324  -0.424485  0  3.966291  0
C  C49  1  0.51519163  0.39827507  0.38384758  1  0  -0.350016  0  3.735573  0  0  -0.427128  0  3.972464  0  0  -0.430555  0  3.981036  0  -0.024251  0  -0.231312  -0.424477  0  3.966394  0
C  C50  1  0.60922990  0.64831104  0.73262270  1  0  0.215724  0  3.739945  0  0  0.201842  0  4.013501  0  0  0.211563  0  4.032607  0  0.372466  0  0.10026  0.195576  0  4.000281  0
C  C51  1  0.39076781  0.35168728  0.26737796  1  0  0.215591  0  3.740079  0  0  0.201756  0  4.013594  0  0  0.211478  0  4.032698  0  0.372436  0  0.100242  0.195489  0  4.000374  0
C  C52  1  0.69957000  0.59007247  0.79944667  1  0  -0.141702  0  3.773766  0  0  -0.128182  0  4.022067  0  0  -0.13911  0  4.050205  0  0.050068  0  -0.041266  -0.121046  0  4.002961  0
C  C53  1  0.30042924  0.40992490  0.20055380  1  0  -0.141704  0  3.773846  0  0  -0.128187  0  4.022123  0  0  -0.139115  0  4.050258  0  0.050209  0  -0.041321  -0.121053  0  4.00302  0
C  C54  1  0.79824305  0.67944202  0.90281669  1  0  0.211104  0  3.7412  0  0  0.211517  0  4.000438  0  0  0.218718  0  4.022375  0  0.451218  0  0.098965  0.20697  0  3.985216  0
C  C55  1  0.20175532  0.32056013  0.09718117  1  0  0.211083  0  3.741373  0  0  0.211519  0  4.000566  0  0  0.21872  0  4.022502  0  0.451126  0  0.099003  0.206979  0  3.985352  0
C  C56  1  0.92103907  0.66961048  0.00337939  1  0  -0.346397  0  3.730265  0  0  -0.424819  0  3.966649  0  0  -0.427534  0  3.974869  0  -0.045235  0  -0.234931  -0.422694  0  3.960761  0
C  C57  1  0.07895889  0.33039072  0.99661907  1  0  -0.34644  0  3.730277  0  0  -0.424865  0  3.966673  0  0  -0.427579  0  3.974891  0  -0.045357  0  -0.234936  -0.422729  0  3.96076  0
C  C58  1  0.69454375  0.46185167  0.76611521  1  0  -0.191853  0  3.768297  0  0  -0.239991  0  4.012939  0  0  -0.239499  0  4.023196  0  -0.025607  0  -0.151047  -0.2402  0  4.006201  0
C  C59  1  0.30545534  0.53814761  0.23388139  1  0  -0.191925  0  3.768166  0  0  -0.24011  0  4.012854  0  0  -0.239618  0  4.023107  0  -0.025562  0  -0.151069  -0.240312  0  4.006103  0
C  C60  1  0.78808418  0.46097844  0.71273895  1  0  0.274472  0  3.682737  0  0  0.278966  0  3.921292  0  0  0.286926  0  3.941785  0  0.442783  0  0.120715  0.273623  0  3.907654  0
C  C61  1  0.21191726  0.53902180  0.28725931  1  0  0.274511  0  3.682663  0  0  0.279117  0  3.921109  0  0  0.287078  0  3.941601  0  0.442705  0  0.120767  0.273767  0  3.907474  0
C  C62  1  0.87141604  0.57050418  0.69086758  1  0  -0.178531  0  3.716287  0  0  -0.1947  0  3.960241  0  0  -0.20388  0  3.981212  0  -0.017708  0  -0.093547  -0.188945  0  3.946112  0
C  C63  1  0.12858760  0.42949893  0.30913762  1  0  -0.17854  0  3.716305  0  0  -0.194737  0  3.960231  0  0  -0.203918  0  3.981205  0  -0.017718  0  -0.093568  -0.188998  0  3.946097  0
C  C64  1  0.95324412  0.55808645  0.64098914  1  0  -0.002551  0  3.770038  0  0  -0.019126  0  4.020229  0  0  -0.012736  0  4.037113  0  -0.038901  0  -0.078894  -0.023012  0  4.008723  0
C  C65  1  0.04676560  0.44191953  0.35901837  1  0  -0.002481  0  3.770158  0  0  -0.01906  0  4.020346  0  0  -0.012669  0  4.037232  0  -0.039044  0  -0.078812  -0.022946  0  4.008845  0
C  C66  1  0.95005152  0.43740591  0.61443957  1  0  -0.188267  0  3.745367  0  0  -0.204874  0  3.986298  0  0  -0.214293  0  4.009053  0  -0.027757  0  -0.099034  -0.198951  0  3.971074  0
C  C67  1  0.04995268  0.56259624  0.38556508  1  0  -0.188365  0  3.745375  0  0  -0.205  0  3.986285  0  0  -0.214421  0  4.009038  0  -0.027749  0  -0.099074  -0.199078  0  3.971061  0
C  C68  1  0.86385308  0.33131278  0.63756217  1  0  0.269778  0  3.705116  0  0  0.273878  0  3.94675  0  0  0.281849  0  3.966953  0  0.46461  0  0.117263  0.268451  0  3.93337  0
C  C69  1  0.13615306  0.66868937  0.36243711  1  0  0.269759  0  3.705084  0  0  0.273927  0  3.94664  0  0  0.281901  0  3.96684  0  0.465006  0  0.117229  0.268496  0  3.93326  0
C  C70  1  0.85259656  0.19645847  0.61264893  1  0  -0.202067  0  3.763317  0  0  -0.250768  0  4.00284  0  0  -0.250656  0  4.013016  0  0.021432  0  -0.153744  -0.250486  0  3.995299  0
C  C71  1  0.14740309  0.80353985  0.38734788  1  0  -0.201938  0  3.763092  0  0  -0.250625  0  4.002554  0  0  -0.250516  0  4.012734  0  0.0215  0  -0.153695  -0.250348  0  3.995021  0
C  C72  1  0.66731524  0.11609798  0.33373610  1  0  -0.352276  0  3.731331  0  0  -0.426393  0  3.962655  0  0  -0.430565  0  3.971286  0  -0.062408  0  -0.231712  -0.423239  0  3.956811  0
C  C73  1  0.33268313  0.88390418  0.66626100  1  0  -0.352225  0  3.731309  0  0  -0.426335  0  3.962618  0  0  -0.430509  0  3.971254  0  -0.062321  0  -0.231714  -0.42318  0  3.956775  0
C  C74  1  0.81715093  0.13629630  0.40839892  1  0  0.222596  0  3.728  0  0  0.21152  0  3.995346  0  0  0.220645  0  4.015808  0  0.409495  0  0.10386  0.205382  0  3.981388  0
C  C75  1  0.18284826  0.86370777  0.59160002  1  0  0.222594  0  3.728192  0  0  0.211548  0  3.995482  0  0  0.220673  0  4.015941  0  0.409251  0  0.103877  0.205409  0  3.981524  0
C  C76  1  0.89995010  0.17245699  0.52787753  1  0  -0.141432  0  3.770901  0  0  -0.129499  0  4.029809  0  0  -0.138676  0  4.053909  0  0.016803  0  -0.037679  -0.123619  0  4.013159  0
C  C77  1  0.10005063  0.82754612  0.47212504  1  0  -0.141532  0  3.770998  0  0  -0.129574  0  4.029826  0  0  -0.138758  0  4.053939  0  0.017019  0  -0.037708  -0.123695  0  4.013184  0
C  C78  1  0.03532880  0.17859260  0.55089845  1  0  0.208105  0  3.748458  0  0  0.202148  0  4.022693  0  0  0.210756  0  4.04065  0  0.452239  0  0.096677  0.196699  0  4.010292  0
C  C79  1  0.96467387  0.82141050  0.44910028  1  0  0.208111  0  3.748447  0  0  0.202181  0  4.022629  0  0  0.210788  0  4.040582  0  0.452019  0  0.096613  0.19673  0  4.01023  0
C  C80  1  0.16471288  0.21367707  0.66367930  1  0  -0.347858  0  3.728895  0  0  -0.423289  0  3.960984  0  0  -0.425865  0  3.968229  0  -0.0473  0  -0.236051  -0.421338  0  3.955693  0
C  C81  1  0.83528866  0.78632795  0.33631901  1  0  -0.347865  0  3.728867  0  0  -0.423306  0  3.960944  0  0  -0.425878  0  3.968178  0  -0.047327  0  -0.236041  -0.421354  0  3.955653  0
C  C82  1  0.98428714  0.01834078  0.15090698  1  0  -0.118018  0  3.583672  0  0  -0.121389  0  3.973057  0  0  -0.102306  0  3.957286  0  0.702814  0  -0.069095  -0.135853  0  3.984626  0
C  C83  1  0.01570909  0.98165179  0.84909538  1  0  -0.118098  0  3.583639  0  0  -0.12148  0  3.973038  0  0  -0.102391  0  3.957252  0  0.702806  0  -0.069181  -0.135944  0  3.984606  0
C  C84  1  0.70518381  0.09460321  0.81859745  1  0  -0.142467  0  3.57003  0  0  -0.146035  0  3.94381  0  0  -0.1301  0  3.937396  0  0.699797  0  -0.071188  -0.15804  0  3.947809  0
C  C85  1  0.29481835  0.90539416  0.18139879  1  0  -0.142423  0  3.569924  0  0  -0.145996  0  3.943705  0  0  -0.130067  0  3.937299  0  0.699838  0  -0.071179  -0.157993  0  3.947696  0
C  C86  1  0.35793615  0.15170907  0.51064145  1  0  -0.12894  0  3.587968  0  0  -0.127843  0  3.969286  0  0  -0.111246  0  3.96027  0  0.696042  0  -0.073445  -0.139737  0  3.975491  0
C  C87  1  0.64206218  0.84828160  0.48936018  1  0  -0.128787  0  3.587948  0  0  -0.127699  0  3.969286  0  0  -0.111095  0  3.960249  0  0.695927  0  -0.073396  -0.139582  0  3.975474  0
N  N88  1  0.76956231  0.78540684  0.89937850  1  0  -0.232915  0  3.251029  0  0  -0.194901  0  3.566674  0  0  -0.203548  0  3.574625  0  -0.722514  0  -0.287929  -0.189394  0  3.561259  0
N  N89  1  0.23043386  0.21459244  0.10062157  1  0  -0.232897  0  3.250919  0  0  -0.194883  0  3.566585  0  0  -0.203526  0  3.574529  0  -0.722599  0  -0.287905  -0.189402  0  3.561192  0
N  N90  1  0.65534581  0.76414666  0.79637588  1  0  -0.203252  0  3.483865  0  0  -0.154815  0  3.723525  0  0  -0.166949  0  3.741477  0  -0.843989  0  -0.288368  -0.146872  0  3.711597  0
N  N91  1  0.34465108  0.23584974  0.20362370  1  0  -0.203265  0  3.483645  0  0  -0.154921  0  3.723345  0  0  -0.167057  0  3.741296  0  -0.843991  0  -0.288431  -0.146971  0  3.711425  0
N  N92  1  0.78468655  0.34408766  0.68572860  1  0  -0.371531  0  3.286856  0  0  -0.308868  0  3.560266  0  0  -0.321768  0  3.569553  0  -1.221027  0  -0.355811  -0.300876  0  3.553877  0
N  N93  1  0.21531822  0.65591354  0.31427321  1  0  -0.37153  0  3.286962  0  0  -0.308976  0  3.560396  0  0  -0.32188  0  3.569685  0  -1.221172  0  -0.355826  -0.300965  0  3.553982  0
N  N94  1  0.90241986  0.12161026  0.36721481  1  0  -0.214807  0  3.475603  0  0  -0.16287  0  3.71087  0  0  -0.176155  0  3.729312  0  -0.843472  0  -0.291805  -0.154097  0  3.698623  0
N  N95  1  0.09758183  0.87839284  0.63278508  1  0  -0.21476  0  3.475527  0  0  -0.162859  0  3.710845  0  0  -0.176156  0  3.729268  0  -0.843295  0  -0.291801  -0.154085  0  3.698597  0
N  N96  1  0.03504232  0.14672819  0.45180574  1  0  -0.246405  0  3.236998  0  0  -0.211719  0  3.562919  0  0  -0.218839  0  3.569552  0  -0.738467  0  -0.286728  -0.207486  0  3.558528  0
N  N97  1  0.96495840  0.85327492  0.54819302  1  0  -0.246474  0  3.236902  0  0  -0.211813  0  3.562865  0  0  -0.218926  0  3.569483  0  -0.738439  0  -0.286741  -0.207572  0  3.558461  0
N  N98  1  0.05670872  0.06013632  0.25031984  1  0  -0.402583  0  3.344336  0  0  -0.342803  0  3.682596  0  0  -0.356798  0  3.684735  0  -1.428523  0  -0.456094  -0.333976  0  3.681219  0
N  N99  1  0.94328817  0.93986008  0.74968050  1  0  -0.402538  0  3.344361  0  0  -0.342761  0  3.682628  0  0  -0.356751  0  3.684757  0  -1.428526  0  -0.456036  -0.333928  0  3.681238  0
N  N100  1  0.74969088  0.03698892  0.89034786  1  0  -0.393213  0  3.336254  0  0  -0.328104  0  3.653879  0  0  -0.343926  0  3.658384  0  -1.412324  0  -0.442912  -0.317617  0  3.650655  0
N  N101  1  0.25031015  0.96301036  0.10965024  1  0  -0.393248  0  3.336164  0  0  -0.328148  0  3.65381  0  0  -0.343968  0  3.658318  0  -1.412419  0  -0.442913  -0.317665  0  3.650585  0
N  N102  1  0.47192569  0.16329665  0.57988782  1  0  -0.407255  0  3.375861  0  0  -0.346374  0  3.707594  0  0  -0.359962  0  3.710031  0  -1.418529  0  -0.455085  -0.338034  0  3.70556  0
N  N103  1  0.52807468  0.83669880  0.42011383  1  0  -0.407337  0  3.375862  0  0  -0.346461  0  3.70759  0  0  -0.360052  0  3.710026  0  -1.41843  0  -0.455099  -0.338124  0  3.705556  0
