# generated using pymatgen
data_CuH4C5BrN
_symmetry_space_group_name_H-M   'P 1'
_cell_length_a   3.85018837
_cell_length_b   9.95092235
_cell_length_c   15.88290086
_cell_angle_alpha   110.39972369
_cell_angle_beta   88.19325449
_cell_angle_gamma   98.20091690
_symmetry_Int_Tables_number   1
_chemical_formula_structural   CuH4C5BrN
_chemical_formula_sum   'Cu4 H16 C20 Br4 N4'
_cell_volume   564.41517521
_cell_formula_units_Z   4
loop_
 _symmetry_equiv_pos_site_id
 _symmetry_equiv_pos_as_xyz
  1  'x, y, z'
loop_
 _atom_site_type_symbol
 _atom_site_label
 _atom_site_symmetry_multiplicity
 _atom_site_fract_x
 _atom_site_fract_y
 _atom_site_fract_z
 _atom_site_occupancy
 _atom_site_hle17_bader_spin_density
 _atom_site_hle17_ddec_charge
 _atom_site_hle17_ddec_spin_density
 _atom_site_hle17_ddec_sum_bond_order
 _atom_site_hle17_magmom
 _atom_site_hse06_10hf_bader_spin_density
 _atom_site_hse06_10hf_ddec_charge
 _atom_site_hse06_10hf_ddec_spin_density
 _atom_site_hse06_10hf_ddec_sum_bond_order
 _atom_site_hse06_10hf_magmom
 _atom_site_hse06_bader_spin_density
 _atom_site_hse06_ddec_charge
 _atom_site_hse06_ddec_spin_density
 _atom_site_hse06_ddec_sum_bond_order
 _atom_site_hse06_magmom
 _atom_site_pbe_bader_spin_density
 _atom_site_pbe_cm5_charge
 _atom_site_pbe_ddec_charge
 _atom_site_pbe_ddec_spin_density
 _atom_site_pbe_ddec_sum_bond_order
 _atom_site_pbe_magmom
Cu  Cu0  1  0.11433990  0.82991113  0.28983598  1  0  0.313263  0  2.061505  0  0  0.22224  0  2.555323  0  0  0.236815  0  2.494626  0  0  0.284845  0.213322  0  2.596499  0
Cu  Cu1  1  0.88566579  0.17008934  0.71015704  1  0  0.31327  0  2.061512  0  0  0.222279  0  2.555345  0  0  0.236795  0  2.494656  0  0  0.284861  0.213353  0  2.5965  0
Cu  Cu2  1  0.57746412  0.66522826  0.19119683  1  0  0.310231  0  2.058439  0  0  0.220048  0  2.55346  0  0  0.234735  0  2.492002  0  0  0.283812  0.21231  0  2.59444  0
Cu  Cu3  1  0.42251089  0.33476696  0.80879900  1  0  0.310307  0  2.058323  0  0  0.22013  0  2.553405  0  0  0.234878  0  2.491954  0  0  0.283838  0.212416  0  2.594332  0
H  H4  1  0.16625588  0.08625217  0.46026350  1  0  0.080972  0  0.9471  0  0  0.086432  0  1.019222  0  0  0.089723  0  1.015809  0  0  0.104063  0.08366  0  1.022162  0
H  H5  1  0.83374998  0.91375837  0.53974548  1  0  0.080962  0  0.94711  0  0  0.086417  0  1.019233  0  0  0.089704  0  1.015829  0  0  0.104076  0.083652  0  1.022168  0
H  H6  1  0.99796891  0.33338203  0.50883651  1  0  0.101739  0  0.964907  0  0  0.110903  0  1.026575  0  0  0.113903  0  1.026008  0  0  0.094196  0.108292  0  1.027786  0
H  H7  1  0.00210627  0.66663890  0.49116366  1  0  0.101865  0  0.964842  0  0  0.110983  0  1.026557  0  0  0.113986  0  1.02599  0  0  0.094222  0.108372  0  1.027761  0
H  H8  1  0.75322505  0.41873465  0.39434623  1  0  0.095446  0  0.947157  0  0  0.107941  0  1.007098  0  0  0.111093  0  1.004264  0  0  0.10436  0.105307  0  1.009958  0
H  H9  1  0.24682214  0.58128098  0.60565483  1  0  0.095478  0  0.947213  0  0  0.107962  0  1.00716  0  0  0.111126  0  1.0043  0  0  0.10434  0.105327  0  1.010022  0
H  H10  1  0.86201312  0.00006572  0.19695182  1  0  0.068682  0  0.988895  0  0  0.073957  0  1.064696  0  0  0.076926  0  1.061241  0  0  0.097315  0.071138  0  1.068264  0
H  H11  1  0.13798971  0.99993612  0.80305410  1  0  0.068657  0  0.988926  0  0  0.073954  0  1.064723  0  0  0.076922  0  1.061273  0  0  0.097314  0.071133  0  1.068278  0
H  H12  1  0.83057141  0.48874738  0.27912837  1  0  0.075102  0  0.973881  0  0  0.077829  0  1.052839  0  0  0.081422  0  1.048623  0  0  0.099367  0.075041  0  1.055733  0
H  H13  1  0.16940785  0.51124574  0.72087015  1  0  0.0751  0  0.973912  0  0  0.077846  0  1.052823  0  0  0.081438  0  1.048609  0  0  0.09936  0.075061  0  1.055726  0
H  H14  1  0.44251252  0.04182943  0.12579145  1  0  0.093776  0  0.969381  0  0  0.10343  0  1.036799  0  0  0.106493  0  1.034106  0  0  0.0971  0.100771  0  1.039382  0
H  H15  1  0.55746372  0.95816262  0.87420750  1  0  0.093772  0  0.969278  0  0  0.103414  0  1.036713  0  0  0.106474  0  1.034017  0  0  0.097072  0.100755  0  1.039286  0
H  H16  1  0.22365322  0.13059236  0.01021667  1  0  0.100831  0  0.950618  0  0  0.112759  0  1.008594  0  0  0.115515  0  1.008371  0  0  0.09876  0.110379  0  1.009671  0
H  H17  1  0.77633859  0.86939965  0.98978220  1  0  0.100887  0  0.950541  0  0  0.112802  0  1.008524  0  0  0.11556  0  1.008299  0  0  0.098778  0.110425  0  1.009606  0
H  H18  1  0.29427455  0.39523928  0.03908898  1  0  0.082516  0  0.950437  0  0  0.088524  0  1.021  0  0  0.091684  0  1.017786  0  0  0.101405  0.085409  0  1.024796  0
H  H19  1  0.70571473  0.60475271  0.96090863  1  0  0.082457  0  0.950557  0  0  0.088565  0  1.021028  0  0  0.091728  0  1.017806  0  0  0.101443  0.085451  0  1.024826  0
C  C20  1  0.05795697  0.12565703  0.41212114  1  0  0.128672  0  3.664938  0  0  0.095492  0  3.917664  0  0  0.102381  0  3.934822  0  0  0.038682  0.090545  0  3.906631  0
C  C21  1  0.94207078  0.87435545  0.58788124  1  0  0.128705  0  3.664817  0  0  0.095548  0  3.917531  0  0  0.102421  0  3.934674  0  0  0.038629  0.090583  0  3.906514  0
C  C22  1  0.96753017  0.26477430  0.43834732  1  0  -0.109643  0  3.755231  0  0  -0.119706  0  4.003418  0  0  -0.126355  0  4.025096  0  0  -0.089144  -0.115706  0  3.990134  0
C  C23  1  0.03250506  0.73523704  0.56165353  1  0  -0.109829  0  3.755082  0  0  -0.119854  0  4.003298  0  0  -0.126507  0  4.024978  0  0  -0.089219  -0.115853  0  3.990021  0
C  C24  1  0.83300778  0.31134978  0.37459642  1  0  -0.058857  0  3.694414  0  0  -0.083237  0  3.938646  0  0  -0.080148  0  3.956624  0  0  -0.071709  -0.085781  0  3.927754  0
C  C25  1  0.16702888  0.68865831  0.62540374  1  0  -0.058856  0  3.694295  0  0  -0.083298  0  3.938428  0  0  -0.080206  0  3.95641  0  0  -0.071649  -0.085847  0  3.92755  0
C  C26  1  0.79072809  0.21684716  0.28495669  1  0  0.01068  0  3.781757  0  0  0.02875  0  4.009572  0  0  0.024114  0  4.0365  0  0  -0.005359  0.031506  0  3.991719  0
C  C27  1  0.20927564  0.78315679  0.71504715  1  0  0.010572  0  3.781913  0  0  0.028874  0  4.009445  0  0  0.024233  0  4.03638  0  0  -0.00537  0.03163  0  3.991603  0
C  C28  1  0.88662742  0.07888121  0.26509008  1  0  0.077847  0  3.66162  0  0  0.039535  0  3.91684  0  0  0.046278  0  3.931448  0  0  0.037233  0.034788  0  3.90823  0
C  C29  1  0.11337586  0.92112169  0.73491480  1  0  0.077957  0  3.661804  0  0  0.039572  0  3.916954  0  0  0.046301  0  3.931547  0  0  0.037261  0.034832  0  3.908321  0
C  C30  1  0.69079507  0.40470155  0.22180785  1  0  0.079001  0  3.653087  0  0  0.042749  0  3.903047  0  0  0.048968  0  3.919175  0  0  0.036712  0.038878  0  3.89171  0
C  C31  1  0.30918335  0.59528942  0.77819149  1  0  0.078849  0  3.653152  0  0  0.042687  0  3.903028  0  0  0.048899  0  3.91917  0  0  0.036754  0.038809  0  3.891723  0
C  C32  1  0.65425782  0.25881761  0.21343717  1  0  0.005822  0  3.789911  0  0  0.024793  0  4.016711  0  0  0.019915  0  4.043958  0  0  -0.00658  0.028003  0  3.9983  0
C  C33  1  0.34571429  0.74117775  0.78656437  1  0  0.006115  0  3.789632  0  0  0.02495  0  4.016417  0  0  0.020072  0  4.043668  0  0  -0.00656  0.02815  0  3.998046  0
C  C34  1  0.48449997  0.15704642  0.13524259  1  0  -0.067176  0  3.703719  0  0  -0.090999  0  3.949533  0  0  -0.088056  0  3.967566  0  0  -0.074945  -0.092372  0  3.937346  0
C  C35  1  0.51548438  0.84294672  0.86475781  1  0  -0.06734  0  3.703619  0  0  -0.091137  0  3.949449  0  0  -0.088188  0  3.967476  0  0  -0.074922  -0.092501  0  3.937255  0
C  C36  1  0.35931317  0.20551017  0.07129417  1  0  -0.111731  0  3.753573  0  0  -0.12326  0  4.004642  0  0  -0.130058  0  4.026617  0  0  -0.091755  -0.119315  0  3.990779  0
C  C37  1  0.64067384  0.79448294  0.92870494  1  0  -0.111651  0  3.753541  0  0  -0.123166  0  4.004604  0  0  -0.129964  0  4.026575  0  0  -0.091725  -0.119227  0  3.990765  0
C  C38  1  0.39868330  0.35356893  0.08661087  1  0  0.131025  0  3.663397  0  0  0.097351  0  3.91723  0  0  0.104664  0  3.93405  0  0  0.038114  0.092161  0  3.907259  0
C  C39  1  0.60129989  0.64642096  0.91338886  1  0  0.131038  0  3.663321  0  0  0.097272  0  3.917168  0  0  0.104586  0  3.933994  0  0  0.038089  0.092083  0  3.907209  0
Br  Br40  1  0.12995607  0.74718378  0.12034726  1  0  -0.427538  0  1.532157  0  0  -0.358212  0  1.951424  0  0  -0.375994  0  1.909467  0  0  -0.216603  -0.344071  0  1.981622  0
Br  Br41  1  0.86999253  0.25280282  0.87964561  1  0  -0.427547  0  1.532081  0  0  -0.358245  0  1.951431  0  0  -0.376045  0  1.909482  0  0  -0.216615  -0.34412  0  1.981613  0
Br  Br42  1  0.52531102  0.74348044  0.36215157  1  0  -0.448443  0  1.475406  0  0  -0.378539  0  1.877672  0  0  -0.397512  0  1.838439  0  0  -0.234053  -0.363363  0  1.904329  0
Br  Br43  1  0.47470387  0.25652439  0.63784485  1  0  -0.448486  0  1.475447  0  0  -0.378587  0  1.87771  0  0  -0.397552  0  1.838473  0  0  -0.234059  -0.363415  0  1.904365  0
N  N44  1  0.01951289  0.03385784  0.32634618  1  0  -0.267591  0  3.394882  0  0  -0.190125  0  3.681132  0  0  -0.204021  0  3.691452  0  0  -0.363548  -0.181293  0  3.674202  0
N  N45  1  0.98049668  0.96614833  0.67366061  1  0  -0.267635  0  3.394861  0  0  -0.190224  0  3.681187  0  0  -0.204066  0  3.691451  0  0  -0.363528  -0.181378  0  3.674239  0
N  N46  1  0.56033889  0.45212811  0.16124037  1  0  -0.264638  0  3.378324  0  0  -0.188665  0  3.667311  0  0  -0.202495  0  3.677298  0  0  -0.362273  -0.179615  0  3.659879  0
N  N47  1  0.43962995  0.54786505  0.83875883  1  0  -0.264635  0  3.378552  0  0  -0.188737  0  3.66762  0  0  -0.202582  0  3.677638  0  0  -0.362383  -0.179685  0  3.660207  0
