# generated using pymatgen
data_CdH12C16(N3O2)2
_symmetry_space_group_name_H-M   'P 1'
_cell_length_a   7.07956488
_cell_length_b   9.53437268
_cell_length_c   13.03959953
_cell_angle_alpha   111.42179420
_cell_angle_beta   103.17260534
_cell_angle_gamma   89.99673129
_symmetry_Int_Tables_number   1
_chemical_formula_structural   CdH12C16(N3O2)2
_chemical_formula_sum   'Cd2 H24 C32 N12 O8'
_cell_volume   794.43354630
_cell_formula_units_Z   2
loop_
 _symmetry_equiv_pos_site_id
 _symmetry_equiv_pos_as_xyz
  1  'x, y, z'
loop_
 _atom_site_type_symbol
 _atom_site_label
 _atom_site_symmetry_multiplicity
 _atom_site_fract_x
 _atom_site_fract_y
 _atom_site_fract_z
 _atom_site_occupancy
 _atom_site_hle17_bader_spin_density
 _atom_site_hle17_ddec_charge
 _atom_site_hle17_ddec_spin_density
 _atom_site_hle17_ddec_sum_bond_order
 _atom_site_hle17_magmom
 _atom_site_hse06_10hf_bader_spin_density
 _atom_site_hse06_10hf_ddec_charge
 _atom_site_hse06_10hf_ddec_spin_density
 _atom_site_hse06_10hf_ddec_sum_bond_order
 _atom_site_hse06_10hf_magmom
 _atom_site_hse06_bader_spin_density
 _atom_site_hse06_ddec_charge
 _atom_site_hse06_ddec_spin_density
 _atom_site_hse06_ddec_sum_bond_order
 _atom_site_hse06_magmom
 _atom_site_pbe_bader_spin_density
 _atom_site_pbe_cm5_charge
 _atom_site_pbe_ddec_charge
 _atom_site_pbe_ddec_spin_density
 _atom_site_pbe_ddec_sum_bond_order
 _atom_site_pbe_magmom
Cd  Cd0  1  0.75003408  0.07187071  0.00003707  1  0  1.169001  0  1.701419  0  0  0.972284  0  2.154297  0  0  1.029333  0  2.101701  0  0  0.786123  0.931822  0  2.189819  0
Cd  Cd1  1  0.24995483  0.92813529  0.99997061  1  0  1.168931  0  1.701574  0  0  0.972204  0  2.15448  0  0  1.029254  0  2.101877  0  0  0.786105  0.931741  0  2.190006  0
H  H2  1  0.01575719  0.96251490  0.58525216  1  0  0.298665  0  0.932585  0  0  0.275454  0  0.999659  0  0  0.28552  0  0.991172  0  0  0.310827  0.268337  0  1.005694  0
H  H3  1  0.48452235  0.37722136  0.41472805  1  0  0.297895  0  0.933686  0  0  0.275351  0  1.000021  0  0  0.285394  0  0.991516  0  0  0.310672  0.268218  0  1.006143  0
H  H4  1  0.98424869  0.03749164  0.41474531  1  0  0.298724  0  0.932521  0  0  0.275636  0  0.999417  0  0  0.285706  0  0.990926  0  0  0.310912  0.268513  0  1.00547  0
H  H5  1  0.51548423  0.62279205  0.58526917  1  0  0.297906  0  0.933681  0  0  0.27534  0  1.000052  0  0  0.285377  0  0.991563  0  0  0.310693  0.268209  0  1.006171  0
H  H6  1  0.57964785  0.20079019  0.55341793  1  0  0.116021  0  0.929158  0  0  0.122887  0  0.99244  0  0  0.126881  0  0.988548  0  0  0.116746  0.12005  0  0.995074  0
H  H7  1  0.92044331  0.64722841  0.44644807  1  0  0.116388  0  0.929606  0  0  0.123101  0  0.992885  0  0  0.127058  0  0.989093  0  0  0.117112  0.120271  0  0.995502  0
H  H8  1  0.42035076  0.79921379  0.44658489  1  0  0.116069  0  0.929059  0  0  0.12289  0  0.992386  0  0  0.126879  0  0.988511  0  0  0.116773  0.120054  0  0.99502  0
H  H9  1  0.07953651  0.35277672  0.55355143  1  0  0.116333  0  0.929513  0  0  0.123074  0  0.992774  0  0  0.127029  0  0.988986  0  0  0.117082  0.120243  0  0.995391  0
H  H10  1  0.90685150  0.29173402  0.68955583  1  0  0.104731  0  0.980736  0  0  0.11527  0  1.042263  0  0  0.117522  0  1.043494  0  0  0.104115  0.113593  0  1.041711  0
H  H11  1  0.59319991  0.60188465  0.31035816  1  0  0.103534  0  0.9804  0  0  0.114058  0  1.042334  0  0  0.116283  0  1.043577  0  0  0.103863  0.112429  0  1.041734  0
H  H12  1  0.09316242  0.70825323  0.31043931  1  0  0.104696  0  0.980784  0  0  0.115249  0  1.042296  0  0  0.1175  0  1.043525  0  0  0.104143  0.113573  0  1.041744  0
H  H13  1  0.40678583  0.39810924  0.68963725  1  0  0.103575  0  0.980402  0  0  0.114103  0  1.042318  0  0  0.116327  0  1.04356  0  0  0.10385  0.112473  0  1.041716  0
H  H14  1  0.03896692  0.25560305  0.97500477  1  0  0.12449  0  0.980442  0  0  0.141328  0  1.048041  0  0  0.14399  0  1.046452  0  0  0.094841  0.139403  0  1.049143  0
H  H15  1  0.46117931  0.28053829  0.02506263  1  0  0.124263  0  0.979908  0  0  0.141589  0  1.046904  0  0  0.144211  0  1.045353  0  0  0.095004  0.139671  0  1.048018  0
H  H16  1  0.96102733  0.74438979  0.02498976  1  0  0.124498  0  0.980382  0  0  0.141333  0  1.047987  0  0  0.143995  0  1.046398  0  0  0.094859  0.139408  0  1.049093  0
H  H17  1  0.53880735  0.71946478  0.97493244  1  0  0.124311  0  0.979815  0  0  0.14165  0  1.046773  0  0  0.144272  0  1.045222  0  0  0.095035  0.139733  0  1.047889  0
H  H18  1  0.03593392  0.41146958  0.92934609  1  0  0.115891  0  0.947027  0  0  0.138972  0  1.003983  0  0  0.140142  0  1.004347  0  0  0.094263  0.138191  0  1.003552  0
H  H19  1  0.46424265  0.48197203  0.07051436  1  0  0.115886  0  0.94683  0  0  0.138856  0  1.004014  0  0  0.140027  0  1.004373  0  0  0.094169  0.138075  0  1.003586  0
H  H20  1  0.96408464  0.58852974  0.07066224  1  0  0.115978  0  0.94696  0  0  0.13903  0  1.00395  0  0  0.1402  0  1.004314  0  0  0.094256  0.138251  0  1.003517  0
H  H21  1  0.53574668  0.51802875  0.92948112  1  0  0.115923  0  0.946874  0  0  0.13888  0  1.004075  0  0  0.14005  0  1.004436  0  0  0.094182  0.138098  0  1.003647  0
H  H22  1  0.14272702  0.24636076  0.86111489  1  0  0.126335  0  0.958628  0  0  0.146779  0  1.018565  0  0  0.148141  0  1.019449  0  0  0.097466  0.145801  0  1.017894  0
H  H23  1  0.35768247  0.38533659  0.13902993  1  0  0.126351  0  0.957838  0  0  0.146682  0  1.017959  0  0  0.148047  0  1.018837  0  0  0.097523  0.145738  0  1.017243  0
H  H24  1  0.85727193  0.75363427  0.13888310  1  0  0.126302  0  0.958571  0  0  0.146763  0  1.0185  0  0  0.148125  0  1.019385  0  0  0.097474  0.145786  0  1.01783  0
H  H25  1  0.64231264  0.61466424  0.86096545  1  0  0.126362  0  0.957789  0  0  0.146687  0  1.017918  0  0  0.148053  0  1.018796  0  0  0.097523  0.145743  0  1.017202  0
C  C26  1  0.52125044  0.10182531  0.77106374  1  0  0.124806  0  3.77639  0  0  0.115419  0  4.02165  0  0  0.123126  0  4.038942  0  0  0.116108  0.110264  0  4.01  0
C  C27  1  0.97908982  0.33077211  0.22887914  1  0  0.125209  0  3.775852  0  0  0.115138  0  4.022492  0  0  0.122861  0  4.039795  0  0  0.116103  0.109946  0  4.010836  0
C  C28  1  0.47875421  0.89816857  0.22893532  1  0  0.124815  0  3.776276  0  0  0.115438  0  4.021456  0  0  0.123143  0  4.038747  0  0  0.116146  0.110284  0  4.009813  0
C  C29  1  0.02090934  0.66923636  0.77112580  1  0  0.125188  0  3.776074  0  0  0.115099  0  4.022689  0  0  0.122826  0  4.03999  0  0  0.116086  0.109904  0  4.011033  0
C  C30  1  0.47215093  0.11878693  0.66604694  1  0  -0.112597  0  3.77377  0  0  -0.099875  0  4.0156  0  0  -0.109657  0  4.036613  0  0  -0.007705  -0.093951  0  4.001829  0
C  C31  1  0.02809103  0.45262936  0.33389936  1  0  -0.112479  0  3.771962  0  0  -0.099596  0  4.014346  0  0  -0.109388  0  4.035339  0  0  -0.007257  -0.093682  0  4.000598  0
C  C32  1  0.52786341  0.88120239  0.33395344  1  0  -0.112628  0  3.773642  0  0  -0.099886  0  4.015404  0  0  -0.109663  0  4.036409  0  0  -0.007706  -0.093959  0  4.001644  0
C  C33  1  0.97190674  0.54737905  0.66610694  1  0  -0.11255  0  3.772235  0  0  -0.099605  0  4.014583  0  0  -0.109401  0  4.035578  0  0  -0.007196  -0.093689  0  4.000832  0
C  C34  1  0.61373029  0.18702247  0.63488797  1  0  0.021379  0  3.67963  0  0  -0.008644  0  3.938164  0  0  -0.000709  0  3.949367  0  0  -0.051217  -0.013506  0  3.930389  0
C  C35  1  0.88649273  0.55201243  0.36500789  1  0  0.019913  0  3.680261  0  0  -0.009645  0  3.938842  0  0  -0.001711  0  3.950011  0  0  -0.05184  -0.014514  0  3.931066  0
C  C36  1  0.38628008  0.81297152  0.36510947  1  0  0.021455  0  3.679489  0  0  -0.008505  0  3.937997  0  0  -0.000574  0  3.949195  0  0  -0.051203  -0.013365  0  3.930227  0
C  C37  1  0.11350009  0.44799154  0.63499427  1  0  0.019977  0  3.680207  0  0  -0.009646  0  3.938836  0  0  -0.001712  0  3.950007  0  0  -0.051897  -0.014513  0  3.931057  0
C  C38  1  0.79310328  0.23872817  0.71055689  1  0  -0.162596  0  3.661054  0  0  -0.183763  0  3.913113  0  0  -0.191717  0  3.93152  0  0  -0.082504  -0.178794  0  3.900781  0
C  C39  1  0.70707862  0.52802764  0.28935194  1  0  -0.159627  0  3.658195  0  0  -0.181157  0  3.910483  0  0  -0.189066  0  3.928886  0  0  -0.082122  -0.176164  0  3.898106  0
C  C40  1  0.20690564  0.76126582  0.28944039  1  0  -0.162572  0  3.661114  0  0  -0.183798  0  3.913188  0  0  -0.191747  0  3.93159  0  0  -0.082571  -0.178832  0  3.900864  0
C  C41  1  0.29291349  0.47197074  0.71064700  1  0  -0.159615  0  3.658224  0  0  -0.181111  0  3.910517  0  0  -0.189018  0  3.928921  0  0  -0.082037  -0.176116  0  3.898135  0
C  C42  1  0.83143642  0.22348170  0.81681079  1  0  0.35101  0  3.691657  0  0  0.356173  0  3.935732  0  0  0.369133  0  3.951554  0  0  0.140027  0.347693  0  3.924552  0
C  C43  1  0.66886286  0.40657933  0.18314449  1  0  0.34899  0  3.693123  0  0  0.354375  0  3.936999  0  0  0.367328  0  3.952849  0  0  0.140193  0.345905  0  3.925788  0
C  C44  1  0.16856750  0.77651902  0.18318862  1  0  0.35094  0  3.691856  0  0  0.356162  0  3.935866  0  0  0.369122  0  3.951688  0  0  0.140072  0.347684  0  3.924693  0
C  C45  1  0.33113383  0.59342135  0.81685486  1  0  0.349001  0  3.693155  0  0  0.354357  0  3.937071  0  0  0.36731  0  3.952921  0  0  0.140202  0.345886  0  3.925857  0
C  C46  1  0.02232897  0.28735765  0.90095871  1  0  -0.379201  0  3.68933  0  0  -0.459906  0  3.921037  0  0  -0.463801  0  3.926897  0  0  -0.241117  -0.457027  0  3.916741  0
C  C47  1  0.47794533  0.38635217  0.09905584  1  0  -0.378866  0  3.688393  0  0  -0.459798  0  3.92032  0  0  -0.463651  0  3.926161  0  0  -0.241219  -0.456928  0  3.916027  0
C  C48  1  0.97767423  0.71263622  0.09904019  1  0  -0.379196  0  3.689149  0  0  -0.459925  0  3.920865  0  0  -0.463825  0  3.926731  0  0  -0.241133  -0.457046  0  3.91657  0
C  C49  1  0.52205154  0.61365086  0.90094190  1  0  -0.378955  0  3.688365  0  0  -0.459876  0  3.920342  0  0  -0.463728  0  3.926183  0  0  -0.241259  -0.457007  0  3.91605  0
C  C50  1  0.37508205  0.02959657  0.80372488  1  0  0.388322  0  3.946101  0  0  0.347401  0  4.247021  0  0  0.367056  0  4.254602  0  0  0.194445  0.334157  0  4.241315  0
C  C51  1  0.12523956  0.22589857  0.19621999  1  0  0.387747  0  3.945355  0  0  0.346478  0  4.246922  0  0  0.366094  0  4.254553  0  0  0.193933  0.333299  0  4.241199  0
C  C52  1  0.62491301  0.97040175  0.19627592  1  0  0.388209  0  3.946256  0  0  0.347349  0  4.247048  0  0  0.367006  0  4.254625  0  0  0.194418  0.334106  0  4.241349  0
C  C53  1  0.87475769  0.77410531  0.80378495  1  0  0.387724  0  3.945608  0  0  0.346524  0  4.247097  0  0  0.366138  0  4.254732  0  0  0.193931  0.333347  0  4.24137  0
C  C54  1  0.27478126  0.07015101  0.59441162  1  0  0.473302  0  3.903717  0  0  0.424086  0  4.197631  0  0  0.450851  0  4.203058  0  0  0.219579  0.406337  0  4.193507  0
C  C55  1  0.22546721  0.47560008  0.40551364  1  0  0.473411  0  3.899755  0  0  0.423548  0  4.195378  0  0  0.450267  0  4.200757  0  0  0.219344  0.405864  0  4.191228  0
C  C56  1  0.72522904  0.92984307  0.40558354  1  0  0.47344  0  3.903379  0  0  0.424187  0  4.197333  0  0  0.450953  0  4.202752  0  0  0.21964  0.406429  0  4.193228  0
C  C57  1  0.77453306  0.52440623  0.59448850  1  0  0.473448  0  3.899864  0  0  0.42358  0  4.195507  0  0  0.4503  0  4.200884  0  0  0.219367  0.405897  0  4.191356  0
N  N58  1  0.69773811  0.15475354  0.84496592  1  0  -0.40374  0  3.175723  0  0  -0.337673  0  3.428991  0  0  -0.358138  0  3.443577  0  0  -0.31984  -0.323815  0  3.418828  0
N  N59  1  0.80260160  0.30980021  0.15498182  1  0  -0.402817  0  3.176607  0  0  -0.336343  0  3.42992  0  0  -0.356788  0  3.44447  0  0  -0.319772  -0.322441  0  3.419721  0
N  N60  1  0.30226182  0.84524932  0.15503672  1  0  -0.403731  0  3.175884  0  0  -0.337695  0  3.429142  0  0  -0.358159  0  3.443726  0  0  -0.319871  -0.323837  0  3.418985  0
N  N61  1  0.19740126  0.69020391  0.84501845  1  0  -0.402776  0  3.176533  0  0  -0.336304  0  3.429859  0  0  -0.35675  0  3.444409  0  0  -0.319768  -0.322403  0  3.419664  0
N  N62  1  0.20013336  0.97931080  0.73525401  1  0  -0.26594  0  2.926161  0  0  -0.261205  0  3.210415  0  0  -0.270331  0  3.223835  0  0  -0.23593  -0.255083  0  3.201233  0
N  N63  1  0.30021991  0.24407678  0.26467237  1  0  -0.264564  0  2.924893  0  0  -0.259257  0  3.209322  0  0  -0.268434  0  3.222718  0  0  -0.234915  -0.253072  0  3.200147  0
N  N64  1  0.79986105  0.02068315  0.26474162  1  0  -0.265927  0  2.926154  0  0  -0.261216  0  3.210418  0  0  -0.270342  0  3.223838  0  0  -0.235944  -0.255091  0  3.201236  0
N  N65  1  0.69977837  0.75592374  0.73533096  1  0  -0.264617  0  2.924963  0  0  -0.259303  0  3.209369  0  0  -0.268479  0  3.222762  0  0  -0.234894  -0.253118  0  3.200192  0
N  N66  1  0.15809293  0.00051568  0.63473018  1  0  -0.258104  0  3.4252  0  0  -0.195505  0  3.673625  0  0  -0.214391  0  3.687672  0  0  -0.276811  -0.18293  0  3.664064  0
N  N67  1  0.34219502  0.36570950  0.36521268  1  0  -0.258275  0  3.423814  0  0  -0.196469  0  3.672896  0  0  -0.215173  0  3.686739  0  0  -0.277199  -0.184046  0  3.663437  0
N  N68  1  0.84191312  0.99947827  0.36526753  1  0  -0.258135  0  3.425223  0  0  -0.195638  0  3.673643  0  0  -0.214526  0  3.687684  0  0  -0.276903  -0.18306  0  3.664091  0
N  N69  1  0.65780352  0.63429328  0.63479132  1  0  -0.258235  0  3.423801  0  0  -0.196466  0  3.67298  0  0  -0.215165  0  3.686818  0  0  -0.277253  -0.184045  0  3.66352  0
O  O70  1  0.41933673  0.02067356  0.90400585  1  0  -0.673082  0  2.166256  0  0  -0.588527  0  2.447435  0  0  -0.620991  0  2.437739  0  0  -0.349533  -0.565534  0  2.452978  0
O  O71  1  0.08090699  0.11679506  0.09593541  1  0  -0.673606  0  2.16645  0  0  -0.588583  0  2.447453  0  0  -0.621115  0  2.437966  0  0  -0.349277  -0.565618  0  2.452802  0
O  O72  1  0.58064989  0.97932700  0.09599463  1  0  -0.673095  0  2.166344  0  0  -0.588539  0  2.447474  0  0  -0.621005  0  2.437776  0  0  -0.34951  -0.565547  0  2.453021  0
O  O73  1  0.91908880  0.88320882  0.90406936  1  0  -0.673606  0  2.166533  0  0  -0.58863  0  2.447497  0  0  -0.621156  0  2.438005  0  0  -0.34934  -0.565666  0  2.452845  0
O  O74  1  0.21481901  0.09291020  0.50331019  1  0  -0.574075  0  1.946054  0  0  -0.534898  0  2.171814  0  0  -0.55735  0  2.166861  0  0  -0.317103  -0.519242  0  2.174517  0
O  O75  1  0.28529416  0.58936729  0.49662649  1  0  -0.574009  0  1.945841  0  0  -0.534446  0  2.171792  0  0  -0.556913  0  2.166838  0  0  -0.317129  -0.518779  0  2.174503  0
O  O76  1  0.78520497  0.90708703  0.49669431  1  0  -0.574165  0  1.945563  0  0  -0.534912  0  2.17133  0  0  -0.55737  0  2.166376  0  0  -0.317111  -0.519252  0  2.174034  0
O  O77  1  0.71471049  0.41064028  0.50337343  1  0  -0.573963  0  1.945968  0  0  -0.534421  0  2.171939  0  0  -0.556891  0  2.166978  0  0  -0.317119  -0.518755  0  2.174651  0
